@<TRIPOS>MOLECULE
3R540
247   249    1
SMALL
USER_CHARGES


@<TRIPOS>ATOM
      1 CA         -4.0440  -16.3916  -47.3108 C.3       0 UNK        -0.1800 
      2 C          -3.3588  -15.6093  -48.4232 C.2       0 UNK         0.5000 
      3 O          -4.0075  -15.2406  -49.4022 O.2       0 UNK        -0.5000 
      4 N          -2.0548  -15.3619  -48.2691 N.am      1 UNK        -0.5000 
      5 CA         -1.1969  -14.6124  -49.1912 C.3       1 UNK         0.1400 
      6 C6         -0.3063  -15.5516  -50.0465 C.3       23 UNK        -0.0398 
      7 S7         -1.2897  -16.5712  -51.1971 S.3       23 UNK        -0.2404 
      8 C8         -1.2740  -18.1909  -50.3684 C.3       23 UNK        -0.0205 
      9 C9         -0.0449  -18.9904  -50.7613 C.ar      23 UNK        -0.0193 
     10 C10        -0.0403  -19.7243  -51.9494 C.ar      23 UNK        -0.1150 
     11 C11         1.1000  -20.4222  -52.3518 C.ar      23 UNK        -0.0193 
     12 C12         2.2342  -20.4102  -51.5357 C.ar      23 UNK        -0.1150 
     13 C13         2.2357  -19.6931  -50.3352 C.ar      23 UNK        -0.0193 
     14 C14         1.0951  -18.9802  -49.9556 C.ar      23 UNK        -0.1150 
     15 C15         3.4807  -19.6698  -49.4651 C.3       23 UNK        -0.0205 
     16 S16         3.5440  -21.0995  -48.3443 S.3       23 UNK        -0.2404 
     17 C17         2.3588  -20.6116  -47.0459 C.3       23 UNK        -0.0398 
     18 CA          1.3556  -21.7355  -46.6966 C.3       11 UNK         0.1400 
     19 N           0.9157  -21.6499  -45.3039 N.am      11 UNK        -0.5000 
     20 C           0.3579  -22.6625  -44.6294 C.2       10 UNK         0.5000 
     21 O           0.1418  -23.7704  -45.1203 O.2       10 UNK        -0.5000 
     22 CA         -0.0509  -22.3839  -43.1727 C.3       10 UNK         0.1400 
     23 CB          1.1759  -22.4123  -42.2490 C.3       10 UNK        -0.1800 
     24 N          -0.7605  -21.1141  -43.0116 N.am      10 UNK        -0.5000 
     25 C          -1.9480  -20.8387  -43.5701 C.2       9 UNK         0.5000 
     26 O          -2.5667  -21.6255  -44.2857 O.2       9 UNK        -0.5000 
     27 CA         -2.5291  -19.4374  -43.3182 C.3       9 UNK         0.1400 
     28 CB         -3.1207  -19.3370  -41.9044 C.3       9 UNK        -0.1800 
     29 N          -1.5464  -18.3743  -43.5172 N.am      9 UNK        -0.5000 
     30 C          -0.9405  -18.1088  -44.6837 C.2       8 UNK         0.5000 
     31 O          -1.1518  -18.7197  -45.7298 O.2       8 UNK        -0.5000 
     32 CA          0.1202  -17.0001  -44.6662 C.3       8 UNK         0.1400 
     33 CB         -0.5477  -15.6226  -44.5340 C.3       8 UNK        -0.1800 
     34 N           1.0873  -17.1808  -43.5872 N.am      8 UNK        -0.5000 
     35 C           1.8587  -18.2587  -43.3935 C.2       7 UNK         0.5000 
     36 O           1.8823  -19.2343  -44.1417 O.2       7 UNK        -0.5000 
     37 CA          2.7094  -18.2667  -42.1142 C.3       7 UNK         0.1400 
     38 CB          3.9802  -17.4216  -42.2938 C.3       7 UNK        -0.1800 
     39 N           1.9560  -17.7854  -40.9567 N.am      7 UNK        -0.5000 
     40 C           0.9294  -18.4362  -40.3923 C.2       6 UNK         0.5000 
     41 O           0.5136  -19.5294  -40.7776 O.2       6 UNK        -0.5000 
     42 CA          0.2318  -17.7259  -39.2181 C.3       6 UNK         0.1400 
     43 CB          1.0337  -17.9033  -37.9200 C.3       6 UNK        -0.1800 
     44 N           0.0196  -16.2991  -39.4690 N.am      6 UNK        -0.5000 
     45 C          -0.8327  -15.8206  -40.3852 C.2       5 UNK         0.5000 
     46 O          -1.5307  -16.5331  -41.1078 O.2       5 UNK        -0.5000 
     47 CA         -0.8905  -14.2886  -40.5482 C.3       5 UNK         0.1400 
     48 CB         -1.7734  -13.6651  -39.4564 C.3       5 UNK        -0.1800 
     49 N           0.4080  -13.6000  -40.5748 N.am      5 UNK        -0.5000 
     50 C           1.4408  -13.9219  -41.3649 C.2       4 UNK         0.5000 
     51 O           1.5069  -14.9642  -42.0150 O.2       4 UNK        -0.5000 
     52 CA          2.6059  -12.9188  -41.4603 C.3       4 UNK         0.1400 
     53 CB          3.7131  -13.2908  -40.4630 C.3       4 UNK        -0.1800 
     54 N           3.1651  -12.9117  -42.8170 N.am      4 UNK        -0.5000 
     55 C           2.4837  -12.5307  -43.9066 C.2       3 UNK         0.5000 
     56 O           1.3910  -11.9552  -43.8563 O.2       3 UNK        -0.5000 
     57 CA          3.1073  -12.8673  -45.2742 C.3       3 UNK         0.1400 
     58 CB          3.3315  -14.3879  -45.4333 C.3       3 UNK        -0.1800 
     59 N           2.1984  -12.3719  -46.3033 N.am      3 UNK        -0.5000 
     60 C           2.4050  -12.2888  -47.6197 C.2       2 UNK         0.5000 
     61 O           3.4411  -12.6493  -48.1816 O.2       2 UNK        -0.5000 
     62 CA          1.2396  -11.7043  -48.4469 C.3       2 UNK         0.1400 
     63 CB          1.7468  -10.7752  -49.5634 C.3       2 UNK        -0.1800 
     64 N           0.3923  -12.7408  -49.0431 N.am      2 UNK        -0.5000 
     65 C          -0.3536  -13.6216  -48.3617 C.2       1 UNK         0.5000 
     66 O          -0.4071  -13.6540  -47.1301 O.2       1 UNK        -0.5000 
     67 C           0.1617  -21.8217  -47.6735 C.2       11 UNK         0.5000 
     68 O           0.2299  -22.5837  -48.6376 O.2       11 UNK        -0.5000 
     69 N          -0.9422  -21.1160  -47.3751 N.am      12 UNK        -0.5000 
     70 CA         -2.2085  -21.2463  -48.0994 C.3       12 UNK         0.1400 
     71 CB         -3.2005  -20.1623  -47.6530 C.3       12 UNK        -0.1800 
     72 C          -2.8328  -22.6430  -47.9378 C.2       12 UNK         0.5000 
     73 O          -3.2918  -23.2113  -48.9269 O.2       12 UNK        -0.5000 
     74 N          -2.8141  -23.1914  -46.7137 N.am      13 UNK        -0.5000 
     75 CA         -3.2769  -24.5475  -46.4066 C.3       13 UNK         0.1400 
     76 CB         -3.3029  -24.7643  -44.8870 C.3       13 UNK        -0.1800 
     77 C          -2.4404  -25.6352  -47.1051 C.2       13 UNK         0.5000 
     78 O          -3.0104  -26.6012  -47.6125 O.2       13 UNK        -0.5000 
     79 N          -1.1167  -25.4329  -47.1817 N.am      14 UNK        -0.5000 
     80 CA         -0.1881  -26.2710  -47.9479 C.3       14 UNK         0.1400 
     81 CB          1.2576  -25.8589  -47.6331 C.3       14 UNK        -0.1800 
     82 C          -0.4529  -26.2320  -49.4681 C.2       14 UNK         0.5000 
     83 O          -0.2202  -27.2298  -50.1504 O.2       14 UNK        -0.5000 
     84 N          -0.9894  -25.1062  -49.9577 N.am      15 UNK        -0.5000 
     85 CA         -1.4848  -24.9084  -51.3213 C.3       15 UNK         0.1400 
     86 CB         -1.2800  -23.4344  -51.7138 C.3       15 UNK        -0.1800 
     87 C          -2.9526  -25.3675  -51.5062 C.2       15 UNK         0.5000 
     88 O          -3.5714  -25.0118  -52.5089 O.2       15 UNK        -0.5000 
     89 N          -3.4733  -26.1624  -50.5581 N.am      16 UNK        -0.5000 
     90 CA         -4.7897  -26.8117  -50.5241 C.3       16 UNK         0.1400 
     91 CB         -5.0640  -27.6361  -51.8007 C.3       16 UNK        -0.1800 
     92 C          -5.9603  -25.8852  -50.1333 C.2       16 UNK         0.5000 
     93 O          -7.1140  -26.2591  -50.3516 O.2       16 UNK        -0.5000 
     94 N          -5.6454  -24.7417  -49.5062 N.am      17 UNK        -0.5000 
     95 CA         -6.5355  -23.7153  -48.9499 C.3       17 UNK         0.1400 
     96 CB         -7.5433  -24.3086  -47.9460 C.3       17 UNK        -0.1800 
     97 C          -7.2363  -22.8532  -50.0170 C.2       17 UNK         0.5000 
     98 O          -7.5830  -23.3354  -51.0961 O.2       17 UNK        -0.5000 
     99 N          -7.4225  -21.5671  -49.6792 N.am      18 UNK        -0.5000 
    100 CA        -8.0622  -20.5066  -50.4766 C.3       18 UNK         0.1400 
    101 CB        -9.5564  -20.8189  -50.6992 C.3       18 UNK        -0.1800 
    102 C         -7.3393  -20.1590  -51.7992 C.2       18 UNK         0.5000 
    103 O         -7.8892  -19.4256  -52.6234 O.2       18 UNK        -0.5000 
    104 N         -6.1139  -20.6653  -51.9785 N.am      19 UNK        -0.5000 
    105 CA        -5.2831  -20.5011  -53.1662 C.3       19 UNK         0.1400 
    106 CB        -4.3378  -21.7110  -53.2634 C.3       19 UNK        -0.1800 
    107 C         -4.5266  -19.1623  -53.1280 C.2       19 UNK         0.5000 
    108 O         -3.3008  -19.1501  -53.0181 O.2       19 UNK        -0.5000 
    109 N         -5.2710  -18.0518  -53.2029 N.am      20 UNK        -0.5000 
    110 CA        -4.7412  -16.6883  -53.2645 C.3       20 UNK         0.1400 
    111 CB        -5.9087  -15.6912  -53.3003 C.3       20 UNK        -0.1800 
    112 C         -3.8195  -16.5074  -54.4858 C.2       20 UNK         0.5000 
    113 O         -4.2446  -16.7785  -55.6118 O.2       20 UNK        -0.5000 
    114 N         -2.5600  -16.1283  -54.2282 N.am      21 UNK        -0.5000 
    115 CA        -1.4492  -16.0417  -55.1871 C.3       21 UNK         0.1400 
    116 CB        -1.6754  -14.8779  -56.1744 C.3       21 UNK        -0.1800 
    117 C         -1.1493  -17.3838  -55.8969 C.2       21 UNK         0.5000 
    118 O         -0.7074  -17.3897  -57.0471 O.2       21 UNK        -0.5000 
    119 N         -1.4237  -18.4928  -55.1974 N.am      22 UNK        -0.5000 
    120 CA        -1.3836  -19.8824  -55.6800 C.3       22 UNK         0.1400 
    121 C         -2.5270  -20.2485  -56.6762 C.2       22 UNK         0.5000 
    122 N         -3.5572  -19.4276  -56.8526 N.am      22 UNK        -0.7600 
    123 O         -2.5014  -21.3165  -57.2813 O.2       22 UNK        -0.5000 
    124 C124        0.0140  -20.3566  -56.1794 C.3       23 UNK        -0.0398 
    125 S125        1.3991  -19.9843  -55.0471 S.3       23 UNK        -0.2404 
    126 C126        1.1112  -21.1560  -53.6829 C.3       23 UNK        -0.0205 
    127 H127       -4.7587  -15.7554  -46.7893 H         1 UNK         0.0600 
    128 H128       -3.3281  -16.7724  -46.5815 H         1 UNK         0.0600 
    129 H129       -4.5836  -17.2418  -47.7281 H         1 UNK         0.0600 
    130 H130       -1.6011  -15.5997  -47.3986 H         1 UNK         0.3000 
    131 H131       -1.8142  -14.0065  -49.8578 H         1 UNK         0.0600 
    132 H132        0.3921  -14.9777  -50.6571 H         1 UNK         0.0800 
    133 H133        0.3075  -16.1880  -49.4085 H         1 UNK         0.0800 
    134 H134       -1.3184  -18.0582  -49.2870 H         1 UNK         0.0800 
    135 H135       -2.1739  -18.7416  -50.6442 H         1 UNK         0.0800 
    136 H136       -0.9154  -19.7276  -52.5796 H         1 UNK         0.1150 
    137 H137        3.1209  -20.9487  -51.8394 H         1 UNK         0.1150 
    138 H138        1.0956  -18.4093  -49.0390 H         1 UNK         0.1150 
    139 H139        4.3681  -19.6833  -50.0996 H         1 UNK         0.0800 
    140 H140        3.5353  -18.7438  -48.8904 H         1 UNK         0.0800 
    141 H141        1.8449  -19.6822  -47.2896 H         1 UNK         0.0800 
    142 H142        2.9734  -20.3827  -46.1750 H         1 UNK         0.0800 
    143 H143        1.8922  -22.6832  -46.7806 H         1 UNK         0.0600 
    144 H144        1.0856  -20.7666  -44.8272 H         1 UNK         0.3000 
    145 H145       -0.7265  -23.1833  -42.8616 H         1 UNK         0.0600 
    146 H146        0.8829  -22.3168  -41.2034 H         1 UNK         0.0600 
    147 H147        1.7205  -23.3519  -42.3497 H         1 UNK         0.0600 
    148 H148        1.8701  -21.6025  -42.4763 H         1 UNK         0.0600 
    149 H149       -0.3204  -20.4196  -42.4163 H         1 UNK         0.3000 
    150 H150       -3.3369  -19.2805  -44.0361 H         1 UNK         0.0600 
    151 H151       -3.8571  -20.1227  -41.7310 H         1 UNK         0.0600 
    152 H152       -3.6236  -18.3813  -41.7562 H         1 UNK         0.0600 
    153 H153       -2.3507  -19.4306  -41.1375 H         1 UNK         0.0600 
    154 H154       -1.3240  -17.8056  -42.7065 H         1 UNK         0.3000 
    155 H155        0.6629  -17.0348  -45.6129 H         1 UNK         0.0600 
    156 H156       -1.0532  -15.5083  -43.5759 H         1 UNK         0.0600 
    157 H157       -1.2947  -15.4714  -45.3129 H         1 UNK         0.0600 
    158 H158        0.1791  -14.8153  -44.6188 H         1 UNK         0.0600 
    159 H159        1.1705  -16.4095  -42.9250 H         1 UNK         0.3000 
    160 H160        3.0110  -19.2980  -41.9189 H         1 UNK         0.0600 
    161 H161        3.7486  -16.3731  -42.4827 H         1 UNK         0.0600 
    162 H162        4.5707  -17.7825  -43.1368 H         1 UNK         0.0600 
    163 H163        4.6141  -17.4702  -41.4084 H         1 UNK         0.0600 
    164 H164        2.1717  -16.8535  -40.6339 H         1 UNK         0.3000 
    165 H165       -0.7444  -18.1960  -39.0801 H         1 UNK         0.0600 
    166 H166        0.5045  -17.4749  -37.0686 H         1 UNK         0.0600 
    167 H167        1.1948  -18.9602  -37.7029 H         1 UNK         0.0600 
    168 H168        2.0132  -17.4274  -37.9808 H         1 UNK         0.0600 
    169 H169        0.5671  -15.6462  -38.9279 H         1 UNK         0.3000 
    170 H170       -1.3662  -14.0925  -41.5111 H         1 UNK         0.0600 
    171 H171       -2.7523  -14.1455  -39.4222 H         1 UNK         0.0600 
    172 H172       -1.3233  -13.7661  -38.4681 H         1 UNK         0.0600 
    173 H173       -1.9416  -12.6041  -39.6422 H         1 UNK         0.0600 
    174 H174        0.4556  -12.7359  -40.0546 H         1 UNK         0.3000 
    175 H175        2.2376  -11.9171  -41.2296 H         1 UNK         0.0600 
    176 H176        4.1137  -14.2866  -40.6585 H         1 UNK         0.0600 
    177 H177        4.5396  -12.5815  -40.5084 H         1 UNK         0.0600 
    178 H178        3.3359  -13.2840  -39.4396 H         1 UNK         0.0600 
    179 H179        4.0445  -13.3914  -42.9369 H         1 UNK         0.3000 
    180 H180        4.0593  -12.3400  -45.3575 H         1 UNK         0.0600 
    181 H181        2.3945  -14.9403  -45.3707 H         1 UNK         0.0600 
    182 H182        3.9929  -14.7792  -44.6600 H         1 UNK         0.0600 
    183 H183        3.7926  -14.6279  -46.3908 H         1 UNK         0.0600 
    184 H184        1.3070  -12.0736  -45.9219 H         1 UNK         0.3000 
    185 H185        0.6158  -11.1043  -47.7807 H         1 UNK         0.0600 
    186 H186        2.3866   -9.9908  -49.1570 H         1 UNK         0.0600 
    187 H187        2.3276  -11.3184  -50.3100 H         1 UNK         0.0600 
    188 H188        0.9187  -10.2845  -50.0750 H         1 UNK         0.0600 
    189 H189        0.3911  -12.7758  -50.0518 H         1 UNK         0.3000 
    190 H190       -0.9347  -20.4728  -46.5888 H         1 UNK         0.3000 
    191 H191       -2.0011  -21.0956  -49.1611 H         1 UNK         0.0600 
    192 H192       -2.8031  -19.1647  -47.8328 H         1 UNK         0.0600 
    193 H193       -4.1391  -20.2401  -48.2029 H         1 UNK         0.0600 
    194 H194       -3.4328  -20.2404  -46.5904 H         1 UNK         0.0600 
    195 H195       -2.4753  -22.6404  -45.9296 H         1 UNK         0.3000 
    196 H196       -4.3014  -24.6377  -46.7732 H         1 UNK         0.0600 
    197 H197       -3.6583  -25.7656  -44.6410 H         1 UNK         0.0600 
    198 H198       -3.9714  -24.0540  -44.4003 H         1 UNK         0.0600 
    199 H199       -2.3136  -24.6488  -44.4445 H         1 UNK         0.0600 
    200 H200       -0.7145  -24.6487  -46.6766 H         1 UNK         0.3000 
    201 H201       -0.3250  -27.3025  -47.6173 H         1 UNK         0.0600 
    202 H202        1.4623  -25.9190  -46.5640 H         1 UNK         0.0600 
    203 H203        1.4669  -24.8402  -47.9578 H         1 UNK         0.0600 
    204 H204        1.9677  -26.5147  -48.1383 H         1 UNK         0.0600 
    205 H205       -1.1142  -24.3234  -49.3275 H         1 UNK         0.3000 
    206 H206       -0.8835  -25.5129  -52.0030 H         1 UNK         0.0600 
    207 H207       -0.2356  -23.1413  -51.6048 H         1 UNK         0.0600 
    208 H208       -1.5592  -23.2591  -52.7532 H         1 UNK         0.0600 
    209 H209       -1.8751  -22.7636  -51.0958 H         1 UNK         0.0600 
    210 H210       -2.9011  -26.3497  -49.7437 H         1 UNK         0.3000 
    211 H211       -4.7194  -27.5285  -49.7048 H         1 UNK         0.0600 
    212 H212       -5.2667  -26.9982  -52.6611 H         1 UNK         0.0600 
    213 H213       -5.9320  -28.2828  -51.6682 H         1 UNK         0.0600 
    214 H214       -4.2186  -28.2785  -52.0471 H         1 UNK         0.0600 
    215 H215       -4.6592  -24.5086  -49.4324 H         1 UNK         0.3000 
    216 H216       -5.8805  -23.0529  -48.3833 H         1 UNK         0.0600 
    217 H217       -8.0786  -23.5169  -47.4206 H         1 UNK         0.0600 
    218 H218       -7.0408  -24.9155  -47.1928 H         1 UNK         0.0600 
    219 H219       -8.2925  -24.9306  -48.4361 H         1 UNK         0.0600 
    220 H220       -7.1004  -21.2684  -48.7690 H         1 UNK         0.3000 
    221 H221       -8.0068  -19.6031  -49.8679 H         1 UNK         0.0600 
    222 H222       -9.6979  -21.6747  -51.3598 H         1 UNK         0.0600 
    223 H223      -10.0589  -21.0358  -49.7566 H         1 UNK         0.0600 
    224 H224      -10.0721  -19.9708  -51.1513 H         1 UNK         0.0600 
    225 H225       -5.7295  -21.2388  -51.2435 H         1 UNK         0.3000 
    226 H226       -5.9163  -20.4997  -54.0559 H         1 UNK         0.0600 
    227 H227       -4.8982  -22.6445  -53.3197 H         1 UNK         0.0600 
    228 H228       -3.7154  -21.6545  -54.1563 H         1 UNK         0.0600 
    229 H229       -3.6748  -21.7733  -52.4004 H         1 UNK         0.0600 
    230 H230       -6.2761  -18.1590  -53.2675 H         1 UNK         0.3000 
    231 H231       -4.1693  -16.5122  -52.3511 H         1 UNK         0.0600 
    232 H232       -5.5424  -14.6644  -53.3321 H         1 UNK         0.0600 
    233 H233       -6.5344  -15.7855  -52.4125 H         1 UNK         0.0600 
    234 H234       -6.5415  -15.8428  -54.1758 H         1 UNK         0.0600 
    235 H235       -2.2966  -15.9928  -53.2597 H         1 UNK         0.3000 
    236 H236       -0.5596  -15.8088  -54.6001 H         1 UNK         0.0600 
    237 H237       -1.8743  -13.9458  -55.6458 H         1 UNK         0.0600 
    238 H238       -0.7944  -14.7148  -56.7961 H         1 UNK         0.0600 
    239 H239       -2.5154  -15.0711  -56.8422 H         1 UNK         0.0600 
    240 H240       -1.8369  -18.3863  -54.2774 H         1 UNK         0.3000 
    241 H241       -1.6153  -20.4774  -54.7977 H         1 UNK         0.0600 
    242 H242       -4.2847  -19.6893  -57.4983 H         1 UNK         0.3800 
    243 H243       -3.6124  -18.5325  -56.3788 H         1 UNK         0.3800 
    244 H244        0.0083  -21.4330  -56.3585 H         1 UNK         0.0800 
    245 H245        0.2418  -19.8980  -57.1424 H         1 UNK         0.0800 
    246 H246        1.8923  -21.9176  -53.6951 H         1 UNK         0.0800 
    247 H247        0.1681  -21.6860  -53.8167 H         1 UNK         0.0800 
@<TRIPOS>BOND
     1    1    2 1    
     2    1  127 1    
     3    1  128 1    
     4    1  129 1    
     5    2    3 2    
     6    2    4 am   BACKBONE|DICT|INTERRES
     7    4    5 1    
     8    4  130 1    
     9    5    6 1    
    10    5   65 1    
    11    5  131 1    
    12    6    7 1    
    13    6  132 1    
    14    6  133 1    
    15    7    8 1    
    16    8    9 1    
    17    8  134 1    
    18    8  135 1    
    19    9   10 ar   
    20    9   14 ar   
    21   10   11 ar   
    22   10  136 1    
    23   11   12 ar   
    24   11  126 1    
    25   12   13 ar   
    26   12  137 1    
    27   13   14 ar   
    28   13   15 1    
    29   14  138 1    
    30   15   16 1    
    31   15  139 1    
    32   15  140 1    
    33   16   17 1    
    34   17   18 1    
    35   17  141 1    
    36   17  142 1    
    37   18   19 1    
    38   18   67 1    
    39   18  143 1    
    40   19   20 am   BACKBONE|DICT|INTERRES
    41   19  144 1    
    42   20   21 2    
    43   20   22 1    
    44   22   23 1    
    45   22   24 1    
    46   22  145 1    
    47   23  146 1    
    48   23  147 1    
    49   23  148 1    
    50   24   25 am   BACKBONE|DICT|INTERRES
    51   24  149 1    
    52   25   26 2    
    53   25   27 1    
    54   27   28 1    
    55   27   29 1    
    56   27  150 1    
    57   28  151 1    
    58   28  152 1    
    59   28  153 1    
    60   29   30 am   BACKBONE|DICT|INTERRES
    61   29  154 1    
    62   30   31 2    
    63   30   32 1    
    64   32   33 1    
    65   32   34 1    
    66   32  155 1    
    67   33  156 1    
    68   33  157 1    
    69   33  158 1    
    70   34   35 am   BACKBONE|DICT|INTERRES
    71   34  159 1    
    72   35   36 2    
    73   35   37 1    
    74   37   38 1    
    75   37   39 1    
    76   37  160 1    
    77   38  161 1    
    78   38  162 1    
    79   38  163 1    
    80   39   40 am   BACKBONE|DICT|INTERRES
    81   39  164 1    
    82   40   41 2    
    83   40   42 1    
    84   42   43 1    
    85   42   44 1    
    86   42  165 1    
    87   43  166 1    
    88   43  167 1    
    89   43  168 1    
    90   44   45 am   BACKBONE|DICT|INTERRES
    91   44  169 1    
    92   45   46 2    
    93   45   47 1    
    94   47   48 1    
    95   47   49 1    
    96   47  170 1    
    97   48  171 1    
    98   48  172 1    
    99   48  173 1    
   100   49   50 am   BACKBONE|DICT|INTERRES
   101   49  174 1    
   102   50   51 2    
   103   50   52 1    
   104   52   53 1    
   105   52   54 1    
   106   52  175 1    
   107   53  176 1    
   108   53  177 1    
   109   53  178 1    
   110   54   55 am   BACKBONE|DICT|INTERRES
   111   54  179 1    
   112   55   56 2    
   113   55   57 1    
   114   57   58 1    
   115   57   59 1    
   116   57  180 1    
   117   58  181 1    
   118   58  182 1    
   119   58  183 1    
   120   59   60 am   BACKBONE|DICT|INTERRES
   121   59  184 1    
   122   60   61 2    
   123   60   62 1    
   124   62   63 1    
   125   62   64 1    
   126   62  185 1    
   127   63  186 1    
   128   63  187 1    
   129   63  188 1    
   130   64   65 am   BACKBONE|DICT|INTERRES
   131   64  189 1    
   132   65   66 2    
   133   67   68 2    
   134   67   69 am   BACKBONE|DICT|INTERRES
   135   69   70 1    
   136   69  190 1    
   137   70   71 1    
   138   70   72 1    
   139   70  191 1    
   140   71  192 1    
   141   71  193 1    
   142   71  194 1    
   143   72   73 2    
   144   72   74 am   BACKBONE|DICT|INTERRES
   145   74   75 1    
   146   74  195 1    
   147   75   76 1    
   148   75   77 1    
   149   75  196 1    
   150   76  197 1    
   151   76  198 1    
   152   76  199 1    
   153   77   78 2    
   154   77   79 am   BACKBONE|DICT|INTERRES
   155   79   80 1    
   156   79  200 1    
   157   80   81 1    
   158   80   82 1    
   159   80  201 1    
   160   81  202 1    
   161   81  203 1    
   162   81  204 1    
   163   82   83 2    
   164   82   84 am   BACKBONE|DICT|INTERRES
   165   84   85 1    
   166   84  205 1    
   167   85   86 1    
   168   85   87 1    
   169   85  206 1    
   170   86  207 1    
   171   86  208 1    
   172   86  209 1    
   173   87   88 2    
   174   87   89 am   BACKBONE|DICT|INTERRES
   175   89   90 1    
   176   89  210 1    
   177   90   91 1    
   178   90   92 1    
   179   90  211 1    
   180   91  212 1    
   181   91  213 1    
   182   91  214 1    
   183   92   93 2    
   184   92   94 am   BACKBONE|DICT|INTERRES
   185   94   95 1    
   186   94  215 1    
   187   95   96 1    
   188   95   97 1    
   189   95  216 1    
   190   96  217 1    
   191   96  218 1    
   192   96  219 1    
   193   97   98 2    
   194   97   99 am   BACKBONE|DICT|INTERRES
   195   99  100 1    
   196   99  220 1    
   197  100  101 1    
   198  100  102 1    
   199  100  221 1    
   200  101  222 1    
   201  101  223 1    
   202  101  224 1    
   203  102  103 2    
   204  102  104 am   BACKBONE|DICT|INTERRES
   205  104  105 1    
   206  104  225 1    
   207  105  106 1    
   208  105  107 1    
   209  105  226 1    
   210  106  227 1    
   211  106  228 1    
   212  106  229 1    
   213  107  108 2    
   214  107  109 am   BACKBONE|DICT|INTERRES
   215  109  110 1    
   216  109  230 1    
   217  110  111 1    
   218  110  112 1    
   219  110  231 1    
   220  111  232 1    
   221  111  233 1    
   222  111  234 1    
   223  112  113 2    
   224  112  114 am   BACKBONE|DICT|INTERRES
   225  114  115 1    
   226  114  235 1    
   227  115  116 1    
   228  115  117 1    
   229  115  236 1    
   230  116  237 1    
   231  116  238 1    
   232  116  239 1    
   233  117  118 2    
   234  117  119 am   BACKBONE|DICT|INTERRES
   235  119  120 1    
   236  119  240 1    
   237  120  121 1    
   238  120  124 1    
   239  120  241 1    
   240  121  122 am   BACKBONE|DICT|INTERRES
   241  121  123 2    
   242  122  242 1    
   243  122  243 1    
   244  124  125 1    
   245  124  244 1    
   246  124  245 1    
   247  125  126 1    
   248  126  246 1    
   249  126  247 1    
@<TRIPOS>SUBSTRUCTURE
     1 UNK         1 GROUP             0       ****    0 ROOT    
