@<TRIPOS>MOLECULE
3R540
247   249    1
SMALL
USER_CHARGES


@<TRIPOS>ATOM
      1 CA          3.1557  -19.5533  -49.8151 C.3       0 UNK        -0.1800 
      2 C           4.1215  -18.4106  -49.5339 C.2       0 UNK         0.5000 
      3 O           5.3334  -18.6229  -49.5453 O.2       0 UNK        -0.5000 
      4 N           3.5853  -17.2062  -49.2886 N.am      1 UNK        -0.5000 
      5 CA          4.3142  -15.9615  -48.9915 C.3       1 UNK         0.1400 
      6 C6          5.1857  -15.4465  -50.1792 C.3       23 UNK        -0.0398 
      7 S7          4.2201  -14.5558  -51.4511 S.3       23 UNK        -0.2404 
      8 C8          3.7393  -15.8794  -52.6130 C.3       23 UNK        -0.0205 
      9 C9          2.2260  -16.0004  -52.7673 C.ar      23 UNK        -0.0193 
     10 C10         1.6370  -16.0784  -54.0336 C.ar      23 UNK        -0.1150 
     11 C11         0.2512  -16.2323  -54.1657 C.ar      23 UNK        -0.0193 
     12 C12        -0.5452  -16.3242  -53.0182 C.ar      23 UNK        -0.1150 
     13 C13         0.0280  -16.2365  -51.7480 C.ar      23 UNK        -0.0193 
     14 C14         1.4070  -16.0577  -51.6387 C.ar      23 UNK        -0.1150 
     15 C15        -0.8343  -16.2828  -50.4930 C.3       23 UNK        -0.0205 
     16 S16        -0.1581  -17.4113  -49.2276 S.3       23 UNK        -0.2404 
     17 C17        -1.3496  -18.7885  -49.2665 C.3       23 UNK        -0.0398 
     18 CA         -0.7317  -20.1486  -48.8558 C.3       11 UNK         0.1400 
     19 N           0.0267  -20.0864  -47.6025 N.am      11 UNK        -0.5000 
     20 C           0.8111  -21.0717  -47.1390 C.2       10 UNK         0.5000 
     21 O           1.0017  -22.1304  -47.7354 O.2       10 UNK        -0.5000 
     22 CA          1.4617  -20.8648  -45.7592 C.3       10 UNK         0.1400 
     23 CB          2.8487  -20.2313  -45.9139 C.3       10 UNK        -0.1800 
     24 N           0.6435  -20.0528  -44.8577 N.am      10 UNK        -0.5000 
     25 C          -0.5655  -20.4230  -44.4086 C.2       9 UNK         0.5000 
     26 O          -1.0796  -21.5104  -44.6714 O.2       9 UNK        -0.5000 
     27 CA         -1.3627  -19.4070  -43.5690 C.3       9 UNK         0.1400 
     28 CB         -1.2789  -19.7577  -42.0774 C.3       9 UNK        -0.1800 
     29 N          -0.9779  -18.0067  -43.7691 N.am      9 UNK        -0.5000 
     30 C          -1.0534  -17.3495  -44.9353 C.2       8 UNK         0.5000 
     31 O          -1.3844  -17.8820  -45.9966 O.2       8 UNK        -0.5000 
     32 CA         -0.7091  -15.8504  -44.8756 C.3       8 UNK         0.1400 
     33 CB         -0.8507  -15.1235  -46.2282 C.3       8 UNK        -0.1800 
     34 N          -1.4625  -15.1692  -43.8177 N.am      8 UNK        -0.5000 
     35 C          -2.7884  -14.9750  -43.7534 C.2       7 UNK         0.5000 
     36 O          -3.5845  -15.3396  -44.6200 O.2       7 UNK        -0.5000 
     37 CA         -3.2941  -14.2228  -42.5051 C.3       7 UNK         0.1400 
     38 CB         -4.8257  -14.2910  -42.3238 C.3       7 UNK        -0.1800 
     39 N          -2.5934  -14.6163  -41.2779 N.am      7 UNK        -0.5000 
     40 C          -2.6234  -15.8099  -40.6631 C.2       6 UNK         0.5000 
     41 O          -3.2808  -16.7685  -41.0684 O.2       6 UNK        -0.5000 
     42 CA         -1.7726  -15.9563  -39.3824 C.3       6 UNK         0.1400 
     43 CB         -1.1805  -17.3686  -39.2345 C.3       6 UNK        -0.1800 
     44 N          -0.6750  -14.9906  -39.3631 N.am      6 UNK        -0.5000 
     45 C          -0.6330  -13.8624  -38.6421 C.2       5 UNK         0.5000 
     46 O          -1.5070  -13.5294  -37.8417 O.2       5 UNK        -0.5000 
     47 CA          0.5768  -12.9315  -38.8715 C.3       5 UNK         0.1400 
     48 CB          1.6096  -13.1090  -37.7481 C.3       5 UNK        -0.1800 
     49 N           1.2423  -13.1356  -40.1620 N.am      5 UNK        -0.5000 
     50 C           0.6969  -12.8905  -41.3620 C.2       4 UNK         0.5000 
     51 O          -0.4338  -12.4301  -41.5189 O.2       4 UNK        -0.5000 
     52 CA          1.5279  -13.2993  -42.5930 C.3       4 UNK         0.1400 
     53 CB          2.4353  -12.1443  -43.0399 C.3       4 UNK        -0.1800 
     54 N           2.3434  -14.5007  -42.3830 N.am      4 UNK        -0.5000 
     55 C           1.8813  -15.7166  -42.0549 C.2       3 UNK         0.5000 
     56 O           0.6873  -15.9618  -41.8651 O.2       3 UNK        -0.5000 
     57 CA          2.9413  -16.8313  -41.9362 C.3       3 UNK         0.1400 
     58 CB          2.3270  -18.2390  -41.8004 C.3       3 UNK        -0.1800 
     59 N           3.9219  -16.7883  -43.0284 N.am      3 UNK        -0.5000 
     60 C           3.6713  -16.9362  -44.3370 C.2       2 UNK         0.5000 
     61 O           2.5540  -17.1734  -44.8079 O.2       2 UNK        -0.5000 
     62 CA          4.8813  -16.7928  -45.2723 C.3       2 UNK         0.1400 
     63 CB          5.8205  -18.0105  -45.1859 C.3       2 UNK        -0.1800 
     64 N           4.4008  -16.6246  -46.6379 N.am      2 UNK        -0.5000 
     65 C           5.0798  -16.0736  -47.6506 C.2       1 UNK         0.5000 
     66 O           6.2387  -15.6664  -47.5469 O.2       1 UNK        -0.5000 
     67 C          -1.8310  -21.2213  -48.7607 C.2       11 UNK         0.5000 
     68 O          -1.9480  -22.0617  -49.6508 O.2       11 UNK        -0.5000 
     69 N          -2.5805  -21.1965  -47.6486 N.am      12 UNK        -0.5000 
     70 CA         -3.6227  -22.1677  -47.3239 C.3       12 UNK         0.1400 
     71 CB         -4.4068  -21.6859  -46.0947 C.3       12 UNK        -0.1800 
     72 C          -3.0612  -23.5805  -47.0958 C.2       12 UNK         0.5000 
     73 O          -3.6666  -24.5464  -47.5575 O.2       12 UNK        -0.5000 
     74 N          -1.9100  -23.6800  -46.4180 N.am      13 UNK        -0.5000 
     75 CA         -1.2053  -24.9388  -46.1763 C.3       13 UNK         0.1400 
     76 CB         -0.0441  -24.7033  -45.1992 C.3       13 UNK        -0.1800 
     77 C          -0.7033  -25.5967  -47.4746 C.2       13 UNK         0.5000 
     78 O          -0.8897  -26.8007  -47.6530 O.2       13 UNK        -0.5000 
     79 N          -0.0990  -24.7954  -48.3634 N.am      14 UNK        -0.5000 
     80 CA          0.4227  -25.2428  -49.6548 C.3       14 UNK         0.1400 
     81 CB          1.3109  -24.1423  -50.2562 C.3       14 UNK        -0.1800 
     82 C          -0.6847  -25.6396  -50.6467 C.2       14 UNK         0.5000 
     83 O          -0.5490  -26.6511  -51.3360 O.2       14 UNK        -0.5000 
     84 N          -1.7529  -24.8348  -50.7068 N.am      15 UNK        -0.5000 
     85 CA         -2.8426  -24.9838  -51.6722 C.3       15 UNK         0.1400 
     86 CB         -3.3937  -23.5904  -51.9859 C.3       15 UNK        -0.1800 
     87 C          -3.9754  -25.9179  -51.2060 C.2       15 UNK         0.5000 
     88 O          -4.9082  -26.1434  -51.9769 O.2       15 UNK        -0.5000 
     89 N          -3.8939  -26.4270  -49.9682 N.am      16 UNK        -0.5000 
     90 CA         -4.8772  -27.2836  -49.2960 C.3       16 UNK         0.1400 
     91 CB         -5.0119  -28.6466  -50.0073 C.3       16 UNK        -0.1800 
     92 C          -6.2248  -26.5589  -49.0980 C.2       16 UNK         0.5000 
     93 O          -7.2532  -26.9784  -49.6303 O.2       16 UNK        -0.5000 
     94 N          -6.1604  -25.4544  -48.3442 N.am      17 UNK        -0.5000 
     95 CA         -7.2320  -24.5431  -47.9227 C.3       17 UNK         0.1400 
     96 CB         -8.4136  -25.2933  -47.2763 C.3       17 UNK        -0.1800 
     97 C          -7.7028  -23.5495  -49.0019 C.2       17 UNK         0.5000 
     98 O          -8.3975  -22.5901  -48.6622 O.2       17 UNK        -0.5000 
     99 N          -7.2901  -23.7337  -50.2626 N.am      18 UNK        -0.5000 
    100 CA        -7.5467  -22.8154  -51.3747 C.3       18 UNK         0.1400 
    101 CB        -7.4754  -23.6016  -52.6953 C.3       18 UNK        -0.1800 
    102 C         -6.5629  -21.6278  -51.3337 C.2       18 UNK         0.5000 
    103 O         -5.7185  -21.4935  -52.2182 O.2       18 UNK        -0.5000 
    104 N         -6.6722  -20.8093  -50.2782 N.am      19 UNK        -0.5000 
    105 CA        -5.7226  -19.7785  -49.8366 C.3       19 UNK         0.1400 
    106 CB        -6.2785  -19.1194  -48.5653 C.3       19 UNK        -0.1800 
    107 C         -5.3108  -18.7031  -50.8644 C.2       19 UNK         0.5000 
    108 O         -4.3088  -18.0247  -50.6399 O.2       19 UNK        -0.5000 
    109 N         -6.0527  -18.5718  -51.9728 N.am      20 UNK        -0.5000 
    110 CA        -5.6638  -17.7732  -53.1391 C.3       20 UNK         0.1400 
    111 CB        -6.8401  -17.7156  -54.1249 C.3       20 UNK        -0.1800 
    112 C         -4.3981  -18.3125  -53.8405 C.2       20 UNK         0.5000 
    113 O         -3.6406  -17.5221  -54.4028 O.2       20 UNK        -0.5000 
    114 N         -4.1948  -19.6373  -53.7682 N.am      21 UNK        -0.5000 
    115 CA        -3.0416  -20.4462  -54.1762 C.3       21 UNK         0.1400 
    116 CB        -1.8080  -20.1074  -53.3185 C.3       21 UNK        -0.1800 
    117 C         -2.6943  -20.4446  -55.6767 C.2       21 UNK         0.5000 
    118 O         -2.5192  -21.5186  -56.2538 O.2       21 UNK        -0.5000 
    119 N         -2.5772  -19.2582  -56.2752 N.am      22 UNK        -0.5000 
    120 CA        -2.0968  -19.0439  -57.6504 C.3       22 UNK         0.1400 
    121 C         -3.2181  -19.0702  -58.7295 C.2       22 UNK         0.5000 
    122 N         -4.4858  -19.2322  -58.3704 N.am      22 UNK        -0.7600 
    123 O         -2.9327  -18.9532  -59.9183 O.2       22 UNK        -0.5000 
    124 C124       -1.2311  -17.7612  -57.7647 C.3       23 UNK        -0.0398 
    125 S125        0.1143  -17.7034  -56.5259 S.3       23 UNK        -0.2404 
    126 C126       -0.3966  -16.2594  -55.5425 C.3       23 UNK        -0.0205 
    127 H127        2.1197  -19.2179  -49.8166 H         1 UNK         0.0600 
    128 H128        3.2608  -20.3317  -49.0597 H         1 UNK         0.0600 
    129 H129        3.3680  -19.9925  -50.7896 H         1 UNK         0.0600 
    130 H130        2.5781  -17.1256  -49.2805 H         1 UNK         0.3000 
    131 H131        3.5493  -15.2073  -48.7999 H         1 UNK         0.0600 
    132 H132        5.9219  -14.7195  -49.8340 H         1 UNK         0.0800 
    133 H133        5.7666  -16.2484  -50.6351 H         1 UNK         0.0800 
    134 H134        4.2066  -15.6756  -53.5775 H         1 UNK         0.0800 
    135 H135        4.1311  -16.8403  -52.2784 H         1 UNK         0.0800 
    136 H136        2.2531  -16.0204  -54.9200 H         1 UNK         0.1150 
    137 H137       -1.6155  -16.4415  -53.1127 H         1 UNK         0.1150 
    138 H138        1.8422  -15.9528  -50.6599 H         1 UNK         0.1150 
    139 H139       -0.8785  -15.2786  -50.0699 H         1 UNK         0.0800 
    140 H140       -1.8629  -16.5564  -50.7338 H         1 UNK         0.0800 
    141 H141       -2.1801  -18.5164  -48.6120 H         1 UNK         0.0800 
    142 H142       -1.7640  -18.8663  -50.2726 H         1 UNK         0.0800 
    143 H143       -0.0409  -20.4549  -49.6443 H         1 UNK         0.0600 
    144 H144       -0.1214  -19.2578  -47.0372 H         1 UNK         0.3000 
    145 H145        1.5893  -21.8454  -45.2976 H         1 UNK         0.0600 
    146 H146        3.3168  -20.0722  -44.9425 H         1 UNK         0.0600 
    147 H147        3.5098  -20.8775  -46.4926 H         1 UNK         0.0600 
    148 H148        2.7971  -19.2725  -46.4303 H         1 UNK         0.0600 
    149 H149        0.9916  -19.1312  -44.6289 H         1 UNK         0.3000 
    150 H150       -2.4068  -19.4989  -43.8751 H         1 UNK         0.0600 
    151 H151       -1.5651  -20.7957  -41.9025 H         1 UNK         0.0600 
    152 H152       -1.9567  -19.1375  -41.4925 H         1 UNK         0.0600 
    153 H153       -0.2714  -19.6261  -41.6845 H         1 UNK         0.0600 
    154 H154       -0.6870  -17.4901  -42.9489 H         1 UNK         0.3000 
    155 H155        0.3405  -15.7863  -44.5933 H         1 UNK         0.0600 
    156 H156       -0.6435  -14.0582  -46.1286 H         1 UNK         0.0600 
    157 H157       -1.8485  -15.2357  -46.6531 H         1 UNK         0.0600 
    158 H158       -0.1413  -15.5234  -46.9522 H         1 UNK         0.0600 
    159 H159       -0.9186  -14.9162  -43.0034 H         1 UNK         0.3000 
    160 H160       -3.0376  -13.1751  -42.6689 H         1 UNK         0.0600 
    161 H161       -5.1802  -15.3176  -42.2289 H         1 UNK         0.0600 
    162 H162       -5.3387  -13.8485  -43.1784 H         1 UNK         0.0600 
    163 H163       -5.1429  -13.7422  -41.4371 H         1 UNK         0.0600 
    164 H164       -1.9928  -13.9018  -40.8857 H         1 UNK         0.3000 
    165 H165       -2.4426  -15.7850  -38.5378 H         1 UNK         0.0600 
    166 H166       -0.5366  -17.6223  -40.0760 H         1 UNK         0.0600 
    167 H167       -0.5875  -17.4526  -38.3238 H         1 UNK         0.0600 
    168 H168       -1.9660  -18.1230  -39.1774 H         1 UNK         0.0600 
    169 H169        0.0622  -15.1679  -40.0351 H         1 UNK         0.3000 
    170 H170        0.2088  -11.9038  -38.8412 H         1 UNK         0.0600 
    171 H171        1.1583  -12.9341  -36.7705 H         1 UNK         0.0600 
    172 H172        2.0271  -14.1167  -37.7412 H         1 UNK         0.0600 
    173 H173        2.4338  -12.4034  -37.8541 H         1 UNK         0.0600 
    174 H174        2.1745  -13.5218  -40.1324 H         1 UNK         0.3000 
    175 H175        0.8305  -13.5100  -43.4052 H         1 UNK         0.0600 
    176 H176        3.1841  -11.9038  -42.2841 H         1 UNK         0.0600 
    177 H177        2.9576  -12.3884  -43.9652 H         1 UNK         0.0600 
    178 H178        1.8541  -11.2400  -43.2259 H         1 UNK         0.0600 
    179 H179        3.3367  -14.3955  -42.5292 H         1 UNK         0.3000 
    180 H180        3.4924  -16.6268  -41.0173 H         1 UNK         0.0600 
    181 H181        1.7031  -18.4942  -42.6554 H         1 UNK         0.0600 
    182 H182        1.7056  -18.3076  -40.9072 H         1 UNK         0.0600 
    183 H183        3.1018  -19.0006  -41.7141 H         1 UNK         0.0600 
    184 H184        4.8744  -16.6042  -42.7446 H         1 UNK         0.3000 
    185 H185        5.4249  -15.8938  -44.9743 H         1 UNK         0.0600 
    186 H186        6.7245  -17.8516  -45.7739 H         1 UNK         0.0600 
    187 H187        6.1354  -18.2004  -44.1593 H         1 UNK         0.0600 
    188 H188        5.3431  -18.9161  -45.5578 H         1 UNK         0.0600 
    189 H189        3.4368  -16.9046  -46.7681 H         1 UNK         0.3000 
    190 H190       -2.3790  -20.4963  -46.9491 H         1 UNK         0.3000 
    191 H191       -4.3110  -22.2200  -48.1700 H         1 UNK         0.0600 
    192 H192       -4.8306  -20.6954  -46.2577 H         1 UNK         0.0600 
    193 H193       -5.2329  -22.3610  -45.8691 H         1 UNK         0.0600 
    194 H194       -3.7754  -21.6344  -45.2071 H         1 UNK         0.0600 
    195 H195       -1.5093  -22.8431  -46.0041 H         1 UNK         0.3000 
    196 H196       -1.9091  -25.6275  -45.7042 H         1 UNK         0.0600 
    197 H197        0.4592  -25.6407  -44.9592 H         1 UNK         0.0600 
    198 H198       -0.3970  -24.2735  -44.2615 H         1 UNK         0.0600 
    199 H199        0.7026  -24.0290  -45.6176 H         1 UNK         0.0600 
    200 H200        0.0522  -23.8185  -48.1291 H         1 UNK         0.3000 
    201 H201        1.0458  -26.1228  -49.4819 H         1 UNK         0.0600 
    202 H202        2.1553  -23.9182  -49.6043 H         1 UNK         0.0600 
    203 H203        0.7549  -23.2165  -50.4116 H         1 UNK         0.0600 
    204 H204        1.7172  -24.4490  -51.2208 H         1 UNK         0.0600 
    205 H205       -1.7753  -23.9972  -50.1319 H         1 UNK         0.3000 
    206 H206       -2.4434  -25.3983  -52.6003 H         1 UNK         0.0600 
    207 H207       -2.5933  -22.9089  -52.2715 H         1 UNK         0.0600 
    208 H208       -4.1042  -23.6254  -52.8118 H         1 UNK         0.0600 
    209 H209       -3.9047  -23.1620  -51.1232 H         1 UNK         0.0600 
    210 H210       -3.1108  -26.1341  -49.3992 H         1 UNK         0.3000 
    211 H211       -4.4801  -27.4777  -48.2983 H         1 UNK         0.0600 
    212 H212       -5.4354  -28.5500  -51.0071 H         1 UNK         0.0600 
    213 H213       -5.6635  -29.3144  -49.4427 H         1 UNK         0.0600 
    214 H214       -4.0437  -29.1387  -50.0998 H         1 UNK         0.0600 
    215 H215       -5.2318  -25.1838  -48.0175 H         1 UNK         0.3000 
    216 H216       -6.7824  -23.9291  -47.1414 H         1 UNK         0.0600 
    217 H217       -8.0717  -25.9729  -46.4957 H         1 UNK         0.0600 
    218 H218       -8.9790  -25.8730  -48.0060 H         1 UNK         0.0600 
    219 H219       -9.1103  -24.5932  -46.8137 H         1 UNK         0.0600 
    220 H220       -6.7192  -24.5422  -50.4658 H         1 UNK         0.3000 
    221 H221       -8.5571  -22.4109  -51.2853 H         1 UNK         0.0600 
    222 H222       -6.4946  -24.0522  -52.8463 H         1 UNK         0.0600 
    223 H223       -8.2155  -24.4017  -52.7168 H         1 UNK         0.0600 
    224 H224       -7.6738  -22.9521  -53.5487 H         1 UNK         0.0600 
    225 H225       -7.4072  -21.0345  -49.6165 H         1 UNK         0.3000 
    226 H226       -4.8037  -20.3022  -49.5692 H         1 UNK         0.0600 
    227 H227       -5.5612  -18.4154  -48.1409 H         1 UNK         0.0600 
    228 H228       -7.1980  -18.5701  -48.7708 H         1 UNK         0.0600 
    229 H229       -6.4977  -19.8609  -47.7972 H         1 UNK         0.0600 
    230 H230       -6.8553  -19.1742  -52.0788 H         1 UNK         0.3000 
    231 H231       -5.4476  -16.7581  -52.7997 H         1 UNK         0.0600 
    232 H232       -6.5889  -17.1101  -54.9969 H         1 UNK         0.0600 
    233 H233       -7.7206  -17.2687  -53.6629 H         1 UNK         0.0600 
    234 H234       -7.1148  -18.7088  -54.4826 H         1 UNK         0.0600 
    235 H235       -4.8992  -20.1795  -53.2724 H         1 UNK         0.3000 
    236 H236       -3.3280  -21.4710  -53.9424 H         1 UNK         0.0600 
    237 H237       -1.4867  -19.0751  -53.4584 H         1 UNK         0.0600 
    238 H238       -0.9644  -20.7494  -53.5746 H         1 UNK         0.0600 
    239 H239       -2.0172  -20.2553  -52.2592 H         1 UNK         0.0600 
    240 H240       -2.7832  -18.4298  -55.7215 H         1 UNK         0.3000 
    241 H241       -1.4412  -19.8786  -57.9061 H         1 UNK         0.0600 
    242 H242       -5.2056  -19.2541  -59.0758 H         1 UNK         0.3800 
    243 H243       -4.7277  -19.3400  -57.3986 H         1 UNK         0.3800 
    244 H244       -1.8575  -16.8721  -57.6765 H         1 UNK         0.0800 
    245 H245       -0.7704  -17.7048  -58.7524 H         1 UNK         0.0800 
    246 H246       -0.1366  -15.3479  -56.0823 H         1 UNK         0.0800 
    247 H247       -1.4826  -16.2568  -55.4409 H         1 UNK         0.0800 
@<TRIPOS>BOND
     1    1    2 1    
     2    1  127 1    
     3    1  128 1    
     4    1  129 1    
     5    2    3 2    
     6    2    4 am   BACKBONE|DICT|INTERRES
     7    4    5 1    
     8    4  130 1    
     9    5    6 1    
    10    5   65 1    
    11    5  131 1    
    12    6    7 1    
    13    6  132 1    
    14    6  133 1    
    15    7    8 1    
    16    8    9 1    
    17    8  134 1    
    18    8  135 1    
    19    9   10 ar   
    20    9   14 ar   
    21   10   11 ar   
    22   10  136 1    
    23   11   12 ar   
    24   11  126 1    
    25   12   13 ar   
    26   12  137 1    
    27   13   14 ar   
    28   13   15 1    
    29   14  138 1    
    30   15   16 1    
    31   15  139 1    
    32   15  140 1    
    33   16   17 1    
    34   17   18 1    
    35   17  141 1    
    36   17  142 1    
    37   18   19 1    
    38   18   67 1    
    39   18  143 1    
    40   19   20 am   BACKBONE|DICT|INTERRES
    41   19  144 1    
    42   20   21 2    
    43   20   22 1    
    44   22   23 1    
    45   22   24 1    
    46   22  145 1    
    47   23  146 1    
    48   23  147 1    
    49   23  148 1    
    50   24   25 am   BACKBONE|DICT|INTERRES
    51   24  149 1    
    52   25   26 2    
    53   25   27 1    
    54   27   28 1    
    55   27   29 1    
    56   27  150 1    
    57   28  151 1    
    58   28  152 1    
    59   28  153 1    
    60   29   30 am   BACKBONE|DICT|INTERRES
    61   29  154 1    
    62   30   31 2    
    63   30   32 1    
    64   32   33 1    
    65   32   34 1    
    66   32  155 1    
    67   33  156 1    
    68   33  157 1    
    69   33  158 1    
    70   34   35 am   BACKBONE|DICT|INTERRES
    71   34  159 1    
    72   35   36 2    
    73   35   37 1    
    74   37   38 1    
    75   37   39 1    
    76   37  160 1    
    77   38  161 1    
    78   38  162 1    
    79   38  163 1    
    80   39   40 am   BACKBONE|DICT|INTERRES
    81   39  164 1    
    82   40   41 2    
    83   40   42 1    
    84   42   43 1    
    85   42   44 1    
    86   42  165 1    
    87   43  166 1    
    88   43  167 1    
    89   43  168 1    
    90   44   45 am   BACKBONE|DICT|INTERRES
    91   44  169 1    
    92   45   46 2    
    93   45   47 1    
    94   47   48 1    
    95   47   49 1    
    96   47  170 1    
    97   48  171 1    
    98   48  172 1    
    99   48  173 1    
   100   49   50 am   BACKBONE|DICT|INTERRES
   101   49  174 1    
   102   50   51 2    
   103   50   52 1    
   104   52   53 1    
   105   52   54 1    
   106   52  175 1    
   107   53  176 1    
   108   53  177 1    
   109   53  178 1    
   110   54   55 am   BACKBONE|DICT|INTERRES
   111   54  179 1    
   112   55   56 2    
   113   55   57 1    
   114   57   58 1    
   115   57   59 1    
   116   57  180 1    
   117   58  181 1    
   118   58  182 1    
   119   58  183 1    
   120   59   60 am   BACKBONE|DICT|INTERRES
   121   59  184 1    
   122   60   61 2    
   123   60   62 1    
   124   62   63 1    
   125   62   64 1    
   126   62  185 1    
   127   63  186 1    
   128   63  187 1    
   129   63  188 1    
   130   64   65 am   BACKBONE|DICT|INTERRES
   131   64  189 1    
   132   65   66 2    
   133   67   68 2    
   134   67   69 am   BACKBONE|DICT|INTERRES
   135   69   70 1    
   136   69  190 1    
   137   70   71 1    
   138   70   72 1    
   139   70  191 1    
   140   71  192 1    
   141   71  193 1    
   142   71  194 1    
   143   72   73 2    
   144   72   74 am   BACKBONE|DICT|INTERRES
   145   74   75 1    
   146   74  195 1    
   147   75   76 1    
   148   75   77 1    
   149   75  196 1    
   150   76  197 1    
   151   76  198 1    
   152   76  199 1    
   153   77   78 2    
   154   77   79 am   BACKBONE|DICT|INTERRES
   155   79   80 1    
   156   79  200 1    
   157   80   81 1    
   158   80   82 1    
   159   80  201 1    
   160   81  202 1    
   161   81  203 1    
   162   81  204 1    
   163   82   83 2    
   164   82   84 am   BACKBONE|DICT|INTERRES
   165   84   85 1    
   166   84  205 1    
   167   85   86 1    
   168   85   87 1    
   169   85  206 1    
   170   86  207 1    
   171   86  208 1    
   172   86  209 1    
   173   87   88 2    
   174   87   89 am   BACKBONE|DICT|INTERRES
   175   89   90 1    
   176   89  210 1    
   177   90   91 1    
   178   90   92 1    
   179   90  211 1    
   180   91  212 1    
   181   91  213 1    
   182   91  214 1    
   183   92   93 2    
   184   92   94 am   BACKBONE|DICT|INTERRES
   185   94   95 1    
   186   94  215 1    
   187   95   96 1    
   188   95   97 1    
   189   95  216 1    
   190   96  217 1    
   191   96  218 1    
   192   96  219 1    
   193   97   98 2    
   194   97   99 am   BACKBONE|DICT|INTERRES
   195   99  100 1    
   196   99  220 1    
   197  100  101 1    
   198  100  102 1    
   199  100  221 1    
   200  101  222 1    
   201  101  223 1    
   202  101  224 1    
   203  102  103 2    
   204  102  104 am   BACKBONE|DICT|INTERRES
   205  104  105 1    
   206  104  225 1    
   207  105  106 1    
   208  105  107 1    
   209  105  226 1    
   210  106  227 1    
   211  106  228 1    
   212  106  229 1    
   213  107  108 2    
   214  107  109 am   BACKBONE|DICT|INTERRES
   215  109  110 1    
   216  109  230 1    
   217  110  111 1    
   218  110  112 1    
   219  110  231 1    
   220  111  232 1    
   221  111  233 1    
   222  111  234 1    
   223  112  113 2    
   224  112  114 am   BACKBONE|DICT|INTERRES
   225  114  115 1    
   226  114  235 1    
   227  115  116 1    
   228  115  117 1    
   229  115  236 1    
   230  116  237 1    
   231  116  238 1    
   232  116  239 1    
   233  117  118 2    
   234  117  119 am   BACKBONE|DICT|INTERRES
   235  119  120 1    
   236  119  240 1    
   237  120  121 1    
   238  120  124 1    
   239  120  241 1    
   240  121  122 am   BACKBONE|DICT|INTERRES
   241  121  123 2    
   242  122  242 1    
   243  122  243 1    
   244  124  125 1    
   245  124  244 1    
   246  124  245 1    
   247  125  126 1    
   248  126  246 1    
   249  126  247 1    
@<TRIPOS>SUBSTRUCTURE
     1 UNK         1 GROUP             0       ****    0 ROOT    
