@<TRIPOS>MOLECULE
3R540
247   249    1
SMALL
USER_CHARGES


@<TRIPOS>ATOM
      1 CA         -5.5027   -9.3533  -44.6290 C.3       0 UNK        -0.1800 
      2 C          -4.3198   -9.8612  -45.4416 C.2       0 UNK         0.5000 
      3 O          -4.1542   -9.4677  -46.5964 O.2       0 UNK        -0.5000 
      4 N          -3.4993  -10.7307  -44.8461 N.am      1 UNK        -0.5000 
      5 CA         -2.2997  -11.3142  -45.4393 C.3       1 UNK         0.1400 
      6 C6         -2.6399  -12.4883  -46.3923 C.3       23 UNK        -0.0398 
      7 S7         -1.2381  -12.9791  -47.4479 S.3       23 UNK        -0.2404 
      8 C8         -2.0066  -14.3316  -48.3874 C.3       23 UNK        -0.0205 
      9 C9         -0.9542  -15.1262  -49.1395 C.ar      23 UNK        -0.0193 
     10 C10        -0.6023  -14.7801  -50.4469 C.ar      23 UNK        -0.1150 
     11 C11         0.3832  -15.4953  -51.1353 C.ar      23 UNK        -0.0193 
     12 C12         1.0407  -16.5444  -50.4794 C.ar      23 UNK        -0.1150 
     13 C13         0.6664  -16.9274  -49.1900 C.ar      23 UNK        -0.0193 
     14 C14        -0.3297  -16.2122  -48.5237 C.ar      23 UNK        -0.1150 
     15 C15         1.3389  -18.1153  -48.5221 C.3       23 UNK        -0.0205 
     16 S16         0.7094  -19.6987  -49.1637 S.3       23 UNK        -0.2404 
     17 C17        -1.0031  -19.7131  -48.5298 C.3       23 UNK        -0.0398 
     18 CA         -1.3345  -21.0149  -47.7656 C.3       11 UNK         0.1400 
     19 N          -0.4963  -21.2167  -46.5809 N.am      11 UNK        -0.5000 
     20 C          -0.3460  -22.3953  -45.9607 C.2       10 UNK         0.5000 
     21 O          -0.8701  -23.4419  -46.3422 O.2       10 UNK        -0.5000 
     22 CA          0.4948  -22.3912  -44.6712 C.3       10 UNK         0.1400 
     23 CB          1.9916  -22.4458  -44.9975 C.3       10 UNK        -0.1800 
     24 N           0.2189  -21.2248  -43.8306 N.am      10 UNK        -0.5000 
     25 C          -0.9531  -21.0262  -43.2102 C.2       9 UNK         0.5000 
     26 O          -1.9038  -21.8028  -43.2870 O.2       9 UNK        -0.5000 
     27 CA         -1.1163  -19.7378  -42.3898 C.3       9 UNK         0.1400 
     28 CB         -0.7257  -19.9889  -40.9275 C.3       9 UNK        -0.1800 
     29 N          -0.3793  -18.5902  -42.9209 N.am      9 UNK        -0.5000 
     30 C          -0.6023  -18.0289  -44.1188 C.2       8 UNK         0.5000 
     31 O          -1.3585  -18.5192  -44.9610 O.2       8 UNK        -0.5000 
     32 CA          0.1350  -16.7192  -44.4673 C.3       8 UNK         0.1400 
     33 CB         -0.8635  -15.5812  -44.7617 C.3       8 UNK        -0.1800 
     34 N           1.1570  -16.2937  -43.5044 N.am      8 UNK        -0.5000 
     35 C           1.0090  -15.8322  -42.2548 C.2       7 UNK         0.5000 
     36 O          -0.0763  -15.6496  -41.7036 O.2       7 UNK        -0.5000 
     37 CA          2.3294  -15.5983  -41.4909 C.3       7 UNK         0.1400 
     38 CB          2.1207  -15.1987  -40.0149 C.3       7 UNK        -0.1800 
     39 N           3.2271  -16.7581  -41.6093 N.am      7 UNK        -0.5000 
     40 C           2.9641  -18.0084  -41.1974 C.2       6 UNK         0.5000 
     41 O           1.9328  -18.3205  -40.6041 O.2       6 UNK        -0.5000 
     42 CA          4.0224  -19.0864  -41.5101 C.3       6 UNK         0.1400 
     43 CB          3.5069  -20.5219  -41.2663 C.3       6 UNK        -0.1800 
     44 N           4.5972  -18.9717  -42.8540 N.am      6 UNK        -0.5000 
     45 C           3.9696  -19.0998  -44.0312 C.2       5 UNK         0.5000 
     46 O           2.7513  -19.2551  -44.1534 O.2       5 UNK        -0.5000 
     47 CA          4.8846  -19.0211  -45.2744 C.3       5 UNK         0.1400 
     48 CB          4.2154  -19.5488  -46.5535 C.3       5 UNK        -0.1800 
     49 N           5.3319  -17.6511  -45.5139 N.am      5 UNK        -0.5000 
     50 C           6.2747  -17.0067  -44.8144 C.2       4 UNK         0.5000 
     51 O           6.9330  -17.5363  -43.9173 O.2       4 UNK        -0.5000 
     52 CA          6.5129  -15.5187  -45.1484 C.3       4 UNK         0.1400 
     53 CB          7.7737  -15.3630  -46.0126 C.3       4 UNK        -0.1800 
     54 N           5.3974  -14.8289  -45.8108 N.am      4 UNK        -0.5000 
     55 C           4.1548  -14.7096  -45.3255 C.2       3 UNK         0.5000 
     56 O           3.7595  -15.2899  -44.3130 O.2       3 UNK        -0.5000 
     57 CA          3.1808  -13.8347  -46.1383 C.3       3 UNK         0.1400 
     58 CB          2.5596  -14.6576  -47.2756 C.3       3 UNK        -0.1800 
     59 N           2.0986  -13.2838  -45.3192 N.am      3 UNK        -0.5000 
     60 C           2.2564  -12.4385  -44.2910 C.2       2 UNK         0.5000 
     61 O           3.3430  -11.9619  -43.9591 O.2       2 UNK        -0.5000 
     62 CA          0.9727  -12.0418  -43.5414 C.3       2 UNK         0.1400 
     63 CB          1.1874  -10.9049  -42.5218 C.3       2 UNK        -0.1800 
     64 N          -0.0645  -11.6745  -44.5036 N.am      2 UNK        -0.5000 
     65 C          -1.3810  -11.7425  -44.2807 C.2       1 UNK         0.5000 
     66 O          -1.8804  -12.1220  -43.2177 O.2       1 UNK        -0.5000 
     67 C          -2.8275  -21.0645  -47.3926 C.2       11 UNK         0.5000 
     68 O          -3.6127  -21.6525  -48.1357 O.2       11 UNK        -0.5000 
     69 N          -3.1909  -20.4868  -46.2370 N.am      12 UNK        -0.5000 
     70 CA         -4.5525  -20.5019  -45.6990 C.3       12 UNK         0.1400 
     71 CB         -4.6346  -19.5965  -44.4622 C.3       12 UNK        -0.1800 
     72 C          -5.0481  -21.9234  -45.3743 C.2       12 UNK         0.5000 
     73 O          -6.1719  -22.2672  -45.7401 O.2       12 UNK        -0.5000 
     74 N          -4.1878  -22.7422  -44.7508 N.am      13 UNK        -0.5000 
     75 CA         -4.4448  -24.1538  -44.4477 C.3       13 UNK         0.1400 
     76 CB         -3.3174  -24.6987  -43.5582 C.3       13 UNK        -0.1800 
     77 C          -4.6042  -25.0276  -45.7067 C.2       13 UNK         0.5000 
     78 O          -5.3755  -25.9871  -45.6874 O.2       13 UNK        -0.5000 
     79 N          -3.8988  -24.6612  -46.7846 N.am      14 UNK        -0.5000 
     80 CA         -4.0041  -25.2799  -48.1066 C.3       14 UNK         0.1400 
     81 CB         -2.7018  -25.0061  -48.8770 C.3       14 UNK        -0.1800 
     82 C          -5.2290  -24.7915  -48.9111 C.2       14 UNK         0.5000 
     83 O          -5.4928  -25.3351  -49.9825 O.2       14 UNK        -0.5000 
     84 N          -5.9412  -23.7738  -48.4015 N.am      15 UNK        -0.5000 
     85 CA         -7.0582  -23.0632  -49.0333 C.3       15 UNK         0.1400 
     86 CB         -8.2856  -23.9827  -49.2016 C.3       15 UNK        -0.1800 
     87 C          -6.6453  -22.3223  -50.3243 C.2       15 UNK         0.5000 
     88 O          -7.4427  -22.2007  -51.2573 O.2       15 UNK        -0.5000 
     89 N          -5.4017  -21.8195  -50.3286 N.am      16 UNK        -0.5000 
     90 CA         -4.7499  -21.0119  -51.3570 C.3       16 UNK         0.1400 
     91 CB         -5.2484  -19.5535  -51.2652 C.3       16 UNK        -0.1800 
     92 C          -4.8599  -21.6324  -52.7656 C.2       16 UNK         0.5000 
     93 O          -4.3032  -22.7070  -53.0065 O.2       16 UNK        -0.5000 
     94 N          -5.5925  -20.9601  -53.6636 N.am      17 UNK        -0.5000 
     95 CA         -5.8087  -21.3256  -55.0635 C.3       17 UNK         0.1400 
     96 CB         -6.6789  -20.2493  -55.7286 C.3       17 UNK        -0.1800 
     97 C          -6.4165  -22.7240  -55.2874 C.2       17 UNK         0.5000 
     98 O          -6.1966  -23.2980  -56.3536 O.2       17 UNK        -0.5000 
     99 N          -7.1144  -23.2757  -54.2828 N.am      18 UNK        -0.5000 
    100 CA        -7.6578  -24.6378  -54.2992 C.3       18 UNK         0.1400 
    101 CB        -8.5321  -24.8467  -53.0559 C.3       18 UNK        -0.1800 
    102 C         -6.5735  -25.7334  -54.3793 C.2       18 UNK         0.5000 
    103 O         -6.8332  -26.7977  -54.9418 O.2       18 UNK        -0.5000 
    104 N         -5.3804  -25.4434  -53.8443 N.am      19 UNK        -0.5000 
    105 CA        -4.1903  -26.2947  -53.9107 C.3       19 UNK         0.1400 
    106 CB        -3.6450  -26.4709  -52.4854 C.3       19 UNK        -0.1800 
    107 C         -3.1096  -25.6936  -54.8314 C.2       19 UNK         0.5000 
    108 O         -1.9935  -26.2130  -54.8674 O.2       19 UNK        -0.5000 
    109 N         -3.4424  -24.5957  -55.5291 N.am      20 UNK        -0.5000 
    110 CA        -2.5578  -23.7429  -56.3316 C.3       20 UNK         0.1400 
    111 CB        -2.0185  -24.5036  -57.5605 C.3       20 UNK        -0.1800 
    112 C         -1.4400  -23.0685  -55.5027 C.2       20 UNK         0.5000 
    113 O         -0.3932  -22.7182  -56.0506 O.2       20 UNK        -0.5000 
    114 N         -1.6826  -22.8748  -54.1991 N.am      21 UNK        -0.5000 
    115 CA        -0.7742  -22.2299  -53.2580 C.3       21 UNK         0.1400 
    116 CB        -1.0226  -22.7932  -51.8456 C.3       21 UNK        -0.1800 
    117 C         -0.9655  -20.7070  -53.3309 C.2       21 UNK         0.5000 
    118 O         -1.7332  -20.1419  -52.5517 O.2       21 UNK        -0.5000 
    119 N         -0.2839  -20.0785  -54.2965 N.am      22 UNK        -0.5000 
    120 CA        -0.2927  -18.6261  -54.5521 C.3       22 UNK         0.1400 
    121 C         -1.5896  -18.0868  -55.2317 C.2       22 UNK         0.5000 
    122 N         -2.4636  -18.9389  -55.7537 N.am      22 UNK        -0.7600 
    123 O         -1.7973  -16.8798  -55.3180 O.2       22 UNK        -0.5000 
    124 C124        0.1217  -17.8077  -53.2947 C.3       23 UNK        -0.0398 
    125 S125        1.3199  -16.4733  -53.6405 S.3       23 UNK        -0.2404 
    126 C126        0.6955  -15.1146  -52.5849 C.3       23 UNK        -0.0205 
    127 H127       -5.5231   -9.7868  -43.6287 H         1 UNK         0.0600 
    128 H128       -6.4377   -9.6071  -45.1284 H         1 UNK         0.0600 
    129 H129       -5.4515   -8.2692  -44.5287 H         1 UNK         0.0600 
    130 H130       -3.6488  -11.0085  -43.8831 H         1 UNK         0.3000 
    131 H131       -1.7881  -10.5302  -46.0024 H         1 UNK         0.0600 
    132 H132       -3.4566  -12.2031  -47.0568 H         1 UNK         0.0800 
    133 H133       -2.9956  -13.3543  -45.8308 H         1 UNK         0.0800 
    134 H134       -2.7421  -13.9212  -49.0810 H         1 UNK         0.0800 
    135 H135       -2.5528  -14.9902  -47.7104 H         1 UNK         0.0800 
    136 H136       -1.1010  -13.9515  -50.9301 H         1 UNK         0.1150 
    137 H137        1.8218  -17.0970  -50.9806 H         1 UNK         0.1150 
    138 H138       -0.6136  -16.4958  -47.5221 H         1 UNK         0.1150 
    139 H139        1.2042  -18.0821  -47.4407 H         1 UNK         0.0800 
    140 H140        2.4132  -18.0635  -48.7033 H         1 UNK         0.0800 
    141 H141       -1.6664  -19.5929  -49.3890 H         1 UNK         0.0800 
    142 H142       -1.1739  -18.8484  -47.8876 H         1 UNK         0.0800 
    143 H143       -1.1522  -21.8480  -48.4486 H         1 UNK         0.0600 
    144 H144       -0.0662  -20.3960  -46.1805 H         1 UNK         0.3000 
    145 H145        0.2389  -23.2874  -44.1017 H         1 UNK         0.0600 
    146 H146        2.2898  -21.5852  -45.5927 H         1 UNK         0.0600 
    147 H147        2.2359  -23.3425  -45.5684 H         1 UNK         0.0600 
    148 H148        2.5976  -22.4565  -44.0913 H         1 UNK         0.0600 
    149 H149        0.9482  -20.5249  -43.7518 H         1 UNK         0.3000 
    150 H150       -2.1729  -19.4679  -42.4047 H         1 UNK         0.0600 
    151 H151        0.3011  -20.3447  -40.8414 H         1 UNK         0.0600 
    152 H152       -1.3692  -20.7470  -40.4794 H         1 UNK         0.0600 
    153 H153       -0.8226  -19.0836  -40.3278 H         1 UNK         0.0600 
    154 H154        0.2811  -18.1500  -42.2936 H         1 UNK         0.3000 
    155 H155        0.6775  -16.9285  -45.3887 H         1 UNK         0.0600 
    156 H156       -1.4391  -15.2987  -43.8805 H         1 UNK         0.0600 
    157 H157       -1.5844  -15.8733  -45.5251 H         1 UNK         0.0600 
    158 H158       -0.3513  -14.6929  -45.1241 H         1 UNK         0.0600 
    159 H159        2.1143  -16.3768  -43.8323 H         1 UNK         0.3000 
    160 H160        2.8271  -14.7593  -41.9777 H         1 UNK         0.0600 
    161 H161        1.5736  -15.9588  -39.4568 H         1 UNK         0.0600 
    162 H162        1.5525  -14.2707  -39.9419 H         1 UNK         0.0600 
    163 H163        3.0743  -15.0355  -39.5130 H         1 UNK         0.0600 
    164 H164        4.0721  -16.5985  -42.1406 H         1 UNK         0.3000 
    165 H165        4.8424  -18.9113  -40.8125 H         1 UNK         0.0600 
    166 H166        3.1984  -20.6566  -40.2290 H         1 UNK         0.0600 
    167 H167        2.6474  -20.7576  -41.8946 H         1 UNK         0.0600 
    168 H168        4.2826  -21.2598  -41.4705 H         1 UNK         0.0600 
    169 H169        5.5884  -18.7578  -42.8895 H         1 UNK         0.3000 
    170 H170        5.7620  -19.6436  -45.0858 H         1 UNK         0.0600 
    171 H171        4.8238  -19.3466  -47.4352 H         1 UNK         0.0600 
    172 H172        4.0857  -20.6286  -46.5023 H         1 UNK         0.0600 
    173 H173        3.2360  -19.1019  -46.7118 H         1 UNK         0.0600 
    174 H174        4.8209  -17.1257  -46.2067 H         1 UNK         0.3000 
    175 H175        6.6872  -15.0082  -44.1992 H         1 UNK         0.0600 
    176 H176        8.6354  -15.8359  -45.5392 H         1 UNK         0.0600 
    177 H177        7.6463  -15.8211  -46.9942 H         1 UNK         0.0600 
    178 H178        8.0246  -14.3125  -46.1610 H         1 UNK         0.0600 
    179 H179        5.6282  -14.3451  -46.6667 H         1 UNK         0.3000 
    180 H180        3.7374  -12.9990  -46.5672 H         1 UNK         0.0600 
    181 H181        2.0003  -15.5091  -46.8891 H         1 UNK         0.0600 
    182 H182        3.3243  -15.0466  -47.9489 H         1 UNK         0.0600 
    183 H183        1.8783  -14.0549  -47.8771 H         1 UNK         0.0600 
    184 H184        1.1711  -13.6218  -45.5249 H         1 UNK         0.3000 
    185 H185        0.6487  -12.9306  -42.9966 H         1 UNK         0.0600 
    186 H186        1.9487  -11.1739  -41.7886 H         1 UNK         0.0600 
    187 H187        1.5086   -9.9847  -43.0110 H         1 UNK         0.0600 
    188 H188        0.2733  -10.6885  -41.9690 H         1 UNK         0.0600 
    189 H189        0.2684  -11.3658  -45.4077 H         1 UNK         0.3000 
    190 H190       -2.4930  -19.9839  -45.6972 H         1 UNK         0.3000 
    191 H191       -5.2112  -20.0867  -46.4648 H         1 UNK         0.0600 
    192 H192       -4.2779  -18.5899  -44.6815 H         1 UNK         0.0600 
    193 H193       -5.6641  -19.5097  -44.1130 H         1 UNK         0.0600 
    194 H194       -4.0440  -19.9914  -43.6369 H         1 UNK         0.0600 
    195 H195       -3.2966  -22.3702  -44.4308 H         1 UNK         0.3000 
    196 H196       -5.3800  -24.2104  -43.8870 H         1 UNK         0.0600 
    197 H197       -2.3463  -24.6206  -44.0491 H         1 UNK         0.0600 
    198 H198       -3.4812  -25.7493  -43.3154 H         1 UNK         0.0600 
    199 H199       -3.2609  -24.1532  -42.6161 H         1 UNK         0.0600 
    200 H200       -3.2669  -23.8753  -46.7049 H         1 UNK         0.3000 
    201 H201       -4.1031  -26.3601  -47.9820 H         1 UNK         0.0600 
    202 H202       -2.5846  -23.9484  -49.1131 H         1 UNK         0.0600 
    203 H203       -1.8291  -25.3198  -48.3039 H         1 UNK         0.0600 
    204 H204       -2.6818  -25.5562  -49.8168 H         1 UNK         0.0600 
    205 H205       -5.6481  -23.3951  -47.5093 H         1 UNK         0.3000 
    206 H206       -7.3436  -22.2777  -48.3325 H         1 UNK         0.0600 
    207 H207       -8.6035  -24.3851  -48.2399 H         1 UNK         0.0600 
    208 H208       -9.1332  -23.4381  -49.6189 H         1 UNK         0.0600 
    209 H209       -8.0809  -24.8255  -49.8598 H         1 UNK         0.0600 
    210 H210       -4.8301  -21.9788  -49.5018 H         1 UNK         0.3000 
    211 H211       -3.6910  -21.0097  -51.1025 H         1 UNK         0.0600 
    212 H212       -5.0475  -19.1402  -50.2767 H         1 UNK         0.0600 
    213 H213       -4.7344  -18.9154  -51.9857 H         1 UNK         0.0600 
    214 H214       -6.3215  -19.4723  -51.4424 H         1 UNK         0.0600 
    215 H215       -6.0372  -20.1075  -53.3565 H         1 UNK         0.3000 
    216 H216       -4.8314  -21.3202  -55.5495 H         1 UNK         0.0600 
    217 H217       -7.6608  -20.1807  -55.2585 H         1 UNK         0.0600 
    218 H218       -6.8354  -20.4693  -56.7856 H         1 UNK         0.0600 
    219 H219       -6.2080  -19.2678  -55.6697 H         1 UNK         0.0600 
    220 H220       -7.2260  -22.7535  -53.4208 H         1 UNK         0.3000 
    221 H221       -8.2914  -24.7327  -55.1834 H         1 UNK         0.0600 
    222 H222       -7.9353  -24.7957  -52.1459 H         1 UNK         0.0600 
    223 H223       -9.3168  -24.0931  -52.9876 H         1 UNK         0.0600 
    224 H224       -9.0163  -25.8238  -53.0767 H         1 UNK         0.0600 
    225 H225       -5.2501  -24.5399  -53.4004 H         1 UNK         0.3000 
    226 H226       -4.4386  -27.2805  -54.3080 H         1 UNK         0.0600 
    227 H227       -4.3849  -26.9423  -51.8390 H         1 UNK         0.0600 
    228 H228       -2.7563  -27.1027  -52.4707 H         1 UNK         0.0600 
    229 H229       -3.3767  -25.5092  -52.0466 H         1 UNK         0.0600 
    230 H230       -4.4024  -24.2830  -55.4665 H         1 UNK         0.3000 
    231 H231       -3.1835  -22.9306  -56.7029 H         1 UNK         0.0600 
    232 H232       -1.3141  -25.2862  -57.2780 H         1 UNK         0.0600 
    233 H233       -1.4984  -23.8285  -58.2410 H         1 UNK         0.0600 
    234 H234       -2.8286  -24.9674  -58.1233 H         1 UNK         0.0600 
    235 H235       -2.6018  -23.1053  -53.8329 H         1 UNK         0.3000 
    236 H236        0.2593  -22.4608  -53.5254 H         1 UNK         0.0600 
    237 H237       -2.0531  -22.6555  -51.5211 H         1 UNK         0.0600 
    238 H238       -0.8064  -23.8609  -51.8068 H         1 UNK         0.0600 
    239 H239       -0.3807  -22.3035  -51.1121 H         1 UNK         0.0600 
    240 H240        0.2711  -20.6350  -54.9335 H         1 UNK         0.3000 
    241 H241        0.4811  -18.4925  -55.3085 H         1 UNK         0.0600 
    242 H242       -3.2897  -18.5823  -56.2067 H         1 UNK         0.3800 
    243 H243       -2.2951  -19.9292  -55.7070 H         1 UNK         0.3800 
    244 H244        0.6084  -18.4565  -52.5655 H         1 UNK         0.0800 
    245 H245       -0.7569  -17.4132  -52.7809 H         1 UNK         0.0800 
    246 H246       -0.2027  -14.7151  -53.0588 H         1 UNK         0.0800 
    247 H247        1.4292  -14.3079  -52.5830 H         1 UNK         0.0800 
@<TRIPOS>BOND
     1    1    2 1    
     2    1  127 1    
     3    1  128 1    
     4    1  129 1    
     5    2    3 2    
     6    2    4 am   BACKBONE|DICT|INTERRES
     7    4    5 1    
     8    4  130 1    
     9    5    6 1    
    10    5   65 1    
    11    5  131 1    
    12    6    7 1    
    13    6  132 1    
    14    6  133 1    
    15    7    8 1    
    16    8    9 1    
    17    8  134 1    
    18    8  135 1    
    19    9   10 ar   
    20    9   14 ar   
    21   10   11 ar   
    22   10  136 1    
    23   11   12 ar   
    24   11  126 1    
    25   12   13 ar   
    26   12  137 1    
    27   13   14 ar   
    28   13   15 1    
    29   14  138 1    
    30   15   16 1    
    31   15  139 1    
    32   15  140 1    
    33   16   17 1    
    34   17   18 1    
    35   17  141 1    
    36   17  142 1    
    37   18   19 1    
    38   18   67 1    
    39   18  143 1    
    40   19   20 am   BACKBONE|DICT|INTERRES
    41   19  144 1    
    42   20   21 2    
    43   20   22 1    
    44   22   23 1    
    45   22   24 1    
    46   22  145 1    
    47   23  146 1    
    48   23  147 1    
    49   23  148 1    
    50   24   25 am   BACKBONE|DICT|INTERRES
    51   24  149 1    
    52   25   26 2    
    53   25   27 1    
    54   27   28 1    
    55   27   29 1    
    56   27  150 1    
    57   28  151 1    
    58   28  152 1    
    59   28  153 1    
    60   29   30 am   BACKBONE|DICT|INTERRES
    61   29  154 1    
    62   30   31 2    
    63   30   32 1    
    64   32   33 1    
    65   32   34 1    
    66   32  155 1    
    67   33  156 1    
    68   33  157 1    
    69   33  158 1    
    70   34   35 am   BACKBONE|DICT|INTERRES
    71   34  159 1    
    72   35   36 2    
    73   35   37 1    
    74   37   38 1    
    75   37   39 1    
    76   37  160 1    
    77   38  161 1    
    78   38  162 1    
    79   38  163 1    
    80   39   40 am   BACKBONE|DICT|INTERRES
    81   39  164 1    
    82   40   41 2    
    83   40   42 1    
    84   42   43 1    
    85   42   44 1    
    86   42  165 1    
    87   43  166 1    
    88   43  167 1    
    89   43  168 1    
    90   44   45 am   BACKBONE|DICT|INTERRES
    91   44  169 1    
    92   45   46 2    
    93   45   47 1    
    94   47   48 1    
    95   47   49 1    
    96   47  170 1    
    97   48  171 1    
    98   48  172 1    
    99   48  173 1    
   100   49   50 am   BACKBONE|DICT|INTERRES
   101   49  174 1    
   102   50   51 2    
   103   50   52 1    
   104   52   53 1    
   105   52   54 1    
   106   52  175 1    
   107   53  176 1    
   108   53  177 1    
   109   53  178 1    
   110   54   55 am   BACKBONE|DICT|INTERRES
   111   54  179 1    
   112   55   56 2    
   113   55   57 1    
   114   57   58 1    
   115   57   59 1    
   116   57  180 1    
   117   58  181 1    
   118   58  182 1    
   119   58  183 1    
   120   59   60 am   BACKBONE|DICT|INTERRES
   121   59  184 1    
   122   60   61 2    
   123   60   62 1    
   124   62   63 1    
   125   62   64 1    
   126   62  185 1    
   127   63  186 1    
   128   63  187 1    
   129   63  188 1    
   130   64   65 am   BACKBONE|DICT|INTERRES
   131   64  189 1    
   132   65   66 2    
   133   67   68 2    
   134   67   69 am   BACKBONE|DICT|INTERRES
   135   69   70 1    
   136   69  190 1    
   137   70   71 1    
   138   70   72 1    
   139   70  191 1    
   140   71  192 1    
   141   71  193 1    
   142   71  194 1    
   143   72   73 2    
   144   72   74 am   BACKBONE|DICT|INTERRES
   145   74   75 1    
   146   74  195 1    
   147   75   76 1    
   148   75   77 1    
   149   75  196 1    
   150   76  197 1    
   151   76  198 1    
   152   76  199 1    
   153   77   78 2    
   154   77   79 am   BACKBONE|DICT|INTERRES
   155   79   80 1    
   156   79  200 1    
   157   80   81 1    
   158   80   82 1    
   159   80  201 1    
   160   81  202 1    
   161   81  203 1    
   162   81  204 1    
   163   82   83 2    
   164   82   84 am   BACKBONE|DICT|INTERRES
   165   84   85 1    
   166   84  205 1    
   167   85   86 1    
   168   85   87 1    
   169   85  206 1    
   170   86  207 1    
   171   86  208 1    
   172   86  209 1    
   173   87   88 2    
   174   87   89 am   BACKBONE|DICT|INTERRES
   175   89   90 1    
   176   89  210 1    
   177   90   91 1    
   178   90   92 1    
   179   90  211 1    
   180   91  212 1    
   181   91  213 1    
   182   91  214 1    
   183   92   93 2    
   184   92   94 am   BACKBONE|DICT|INTERRES
   185   94   95 1    
   186   94  215 1    
   187   95   96 1    
   188   95   97 1    
   189   95  216 1    
   190   96  217 1    
   191   96  218 1    
   192   96  219 1    
   193   97   98 2    
   194   97   99 am   BACKBONE|DICT|INTERRES
   195   99  100 1    
   196   99  220 1    
   197  100  101 1    
   198  100  102 1    
   199  100  221 1    
   200  101  222 1    
   201  101  223 1    
   202  101  224 1    
   203  102  103 2    
   204  102  104 am   BACKBONE|DICT|INTERRES
   205  104  105 1    
   206  104  225 1    
   207  105  106 1    
   208  105  107 1    
   209  105  226 1    
   210  106  227 1    
   211  106  228 1    
   212  106  229 1    
   213  107  108 2    
   214  107  109 am   BACKBONE|DICT|INTERRES
   215  109  110 1    
   216  109  230 1    
   217  110  111 1    
   218  110  112 1    
   219  110  231 1    
   220  111  232 1    
   221  111  233 1    
   222  111  234 1    
   223  112  113 2    
   224  112  114 am   BACKBONE|DICT|INTERRES
   225  114  115 1    
   226  114  235 1    
   227  115  116 1    
   228  115  117 1    
   229  115  236 1    
   230  116  237 1    
   231  116  238 1    
   232  116  239 1    
   233  117  118 2    
   234  117  119 am   BACKBONE|DICT|INTERRES
   235  119  120 1    
   236  119  240 1    
   237  120  121 1    
   238  120  124 1    
   239  120  241 1    
   240  121  122 am   BACKBONE|DICT|INTERRES
   241  121  123 2    
   242  122  242 1    
   243  122  243 1    
   244  124  125 1    
   245  124  244 1    
   246  124  245 1    
   247  125  126 1    
   248  126  246 1    
   249  126  247 1    
@<TRIPOS>SUBSTRUCTURE
     1 UNK         1 GROUP             0       ****    0 ROOT    
