@<TRIPOS>MOLECULE
3R540
247   249    1
SMALL
USER_CHARGES


@<TRIPOS>ATOM
      1 CA          3.0604  -15.8940  -52.3179 C.3       0 UNK        -0.1800 
      2 C           3.8287  -15.5386  -51.0543 C.2       0 UNK         0.5000 
      3 O           4.5121  -14.5161  -51.0104 O.2       0 UNK        -0.5000 
      4 N           3.7050  -16.3786  -50.0208 N.am      1 UNK        -0.5000 
      5 CA          4.3884  -16.2433  -48.7247 C.3       1 UNK         0.1400 
      6 C6          4.6543  -17.6127  -48.0361 C.3       23 UNK        -0.0398 
      7 S7          5.2831  -18.9161  -49.1530 S.3       23 UNK        -0.2404 
      8 C8          3.8714  -20.0693  -49.2103 C.3       23 UNK        -0.0205 
      9 C9          2.6750  -19.4865  -49.9488 C.ar      23 UNK        -0.0193 
     10 C10         2.5621  -19.6360  -51.3320 C.ar      23 UNK        -0.1150 
     11 C11         1.4612  -19.1134  -52.0151 C.ar      23 UNK        -0.0193 
     12 C12         0.4668  -18.4362  -51.3024 C.ar      23 UNK        -0.1150 
     13 C13         0.5637  -18.2730  -49.9164 C.ar      23 UNK        -0.0193 
     14 C14         1.6770  -18.8018  -49.2508 C.ar      23 UNK        -0.1150 
     15 C15        -0.5246  -17.4813  -49.1872 C.3       23 UNK        -0.0205 
     16 S16        -0.6735  -17.8071  -47.3937 S.3       23 UNK        -0.2404 
     17 C17        -1.5580  -19.4032  -47.3715 C.3       23 UNK        -0.0398 
     18 CA         -0.6209  -20.6321  -47.4359 C.3       11 UNK         0.1400 
     19 N           0.3621  -20.6735  -46.3501 N.am      11 UNK        -0.5000 
     20 C           1.3911  -21.5307  -46.2945 C.2       10 UNK         0.5000 
     21 O           1.6574  -22.3377  -47.1834 O.2       10 UNK        -0.5000 
     22 CA          2.2292  -21.5263  -45.0067 C.3       10 UNK         0.1400 
     23 CB          3.3054  -20.4291  -45.0478 C.3       10 UNK        -0.1800 
     24 N           1.3832  -21.3582  -43.8252 N.am      10 UNK        -0.5000 
     25 C           0.5781  -22.3120  -43.3348 C.2       9 UNK         0.5000 
     26 O           0.5091  -23.4499  -43.7991 O.2       9 UNK        -0.5000 
     27 CA         -0.3253  -21.9222  -42.1487 C.3       9 UNK         0.1400 
     28 CB          0.4204  -22.1059  -40.8188 C.3       9 UNK        -0.1800 
     29 N          -0.8226  -20.5485  -42.2370 N.am      9 UNK        -0.5000 
     30 C          -1.6810  -20.1121  -43.1691 C.2       8 UNK         0.5000 
     31 O          -2.1791  -20.8351  -44.0309 O.2       8 UNK        -0.5000 
     32 CA         -1.9908  -18.6033  -43.1798 C.3       8 UNK         0.1400 
     33 CB         -3.1946  -18.2942  -42.2793 C.3       8 UNK        -0.1800 
     34 N          -0.8563  -17.7518  -42.8023 N.am      8 UNK        -0.5000 
     35 C           0.3280  -17.7406  -43.4347 C.2       7 UNK         0.5000 
     36 O           0.6160  -18.5315  -44.3319 O.2       7 UNK        -0.5000 
     37 CA          1.3710  -16.6872  -43.0242 C.3       7 UNK         0.1400 
     38 CB          1.6340  -15.7324  -44.1936 C.3       7 UNK        -0.1800 
     39 N           0.9736  -15.9013  -41.8572 N.am      7 UNK        -0.5000 
     40 C           1.2489  -16.2351  -40.5888 C.2       6 UNK         0.5000 
     41 O           1.8725  -17.2483  -40.2710 O.2       6 UNK        -0.5000 
     42 CA          0.7293  -15.2912  -39.4847 C.3       6 UNK         0.1400 
     43 CB          1.8303  -14.3085  -39.0583 C.3       6 UNK        -0.1800 
     44 N          -0.4592  -14.5305  -39.8755 N.am      6 UNK        -0.5000 
     45 C          -1.6517  -15.0680  -40.1668 C.2       5 UNK         0.5000 
     46 O          -1.8875  -16.2731  -40.0892 O.2       5 UNK        -0.5000 
     47 CA         -2.7547  -14.1148  -40.6676 C.3       5 UNK         0.1400 
     48 CB         -3.7310  -13.7813  -39.5296 C.3       5 UNK        -0.1800 
     49 N          -2.2603  -12.8638  -41.2534 N.am      5 UNK        -0.5000 
     50 C          -1.4808  -12.7650  -42.3392 C.2       4 UNK         0.5000 
     51 O          -1.0481  -13.7450  -42.9529 O.2       4 UNK        -0.5000 
     52 CA         -1.1435  -11.3372  -42.8265 C.3       4 UNK         0.1400 
     53 CB         -1.0688  -10.2955  -41.6868 C.3       4 UNK        -0.1800 
     54 N           0.0717  -11.3036  -43.6475 N.am      4 UNK        -0.5000 
     55 C           1.3189  -11.6114  -43.2614 C.2       3 UNK         0.5000 
     56 O           1.6348  -11.9013  -42.1061 O.2       3 UNK        -0.5000 
     57 CA          2.3572  -11.6686  -44.3928 C.3       3 UNK         0.1400 
     58 CB          3.7674  -12.0623  -43.9060 C.3       3 UNK        -0.1800 
     59 N           1.8701  -12.6240  -45.3828 N.am      3 UNK        -0.5000 
     60 C           2.2655  -12.7251  -46.6544 C.2       2 UNK         0.5000 
     61 O           3.0834  -11.9739  -47.1904 O.2       2 UNK        -0.5000 
     62 CA          1.5992  -13.8521  -47.4687 C.3       2 UNK         0.1400 
     63 CB          0.5604  -13.2691  -48.4393 C.3       2 UNK        -0.1800 
     64 N           2.5393  -14.6824  -48.2225 N.am      2 UNK        -0.5000 
     65 C           3.6343  -15.3022  -47.7541 C.2       1 UNK         0.5000 
     66 O           4.0356  -15.1994  -46.5944 O.2       1 UNK        -0.5000 
     67 C          -1.4223  -21.9435  -47.5261 C.2       11 UNK         0.5000 
     68 O          -1.5300  -22.5003  -48.6160 O.2       11 UNK        -0.5000 
     69 N          -1.9068  -22.4478  -46.3816 N.am      12 UNK        -0.5000 
     70 CA         -2.6198  -23.7235  -46.2705 C.3       12 UNK         0.1400 
     71 CB         -3.1464  -23.8883  -44.8371 C.3       12 UNK        -0.1800 
     72 C          -1.7700  -24.9443  -46.6760 C.2       12 UNK         0.5000 
     73 O          -2.3135  -25.9095  -47.2142 O.2       12 UNK        -0.5000 
     74 N          -0.4551  -24.8803  -46.4230 N.am      13 UNK        -0.5000 
     75 CA          0.5144  -25.8790  -46.8698 C.3       13 UNK         0.1400 
     76 CB          1.8187  -25.7242  -46.0728 C.3       13 UNK        -0.1800 
     77 C           0.7814  -25.7986  -48.3852 C.2       13 UNK         0.5000 
     78 O           0.9553  -26.8392  -49.0207 O.2       13 UNK        -0.5000 
     79 N           0.8068  -24.5764  -48.9366 N.am      14 UNK        -0.5000 
     80 CA          1.0075  -24.3075  -50.3604 C.3       14 UNK         0.1400 
     81 CB          1.3148  -22.8179  -50.5742 C.3       14 UNK        -0.1800 
     82 C          -0.1811  -24.7586  -51.2281 C.2       14 UNK         0.5000 
     83 O           0.0408  -25.3743  -52.2722 O.2       14 UNK        -0.5000 
     84 N          -1.4117  -24.4797  -50.7796 N.am      15 UNK        -0.5000 
     85 CA         -2.6426  -24.9191  -51.4289 C.3       15 UNK         0.1400 
     86 CB         -3.0000  -23.9771  -52.5930 C.3       15 UNK        -0.1800 
     87 C          -3.7814  -24.9814  -50.4038 C.2       15 UNK         0.5000 
     88 O          -3.8904  -24.1038  -49.5485 O.2       15 UNK        -0.5000 
     89 N          -4.6507  -25.9907  -50.5366 N.am      16 UNK        -0.5000 
     90 CA         -5.7950  -26.2202  -49.6469 C.3       16 UNK         0.1400 
     91 CB         -6.3724  -27.6152  -49.9330 C.3       16 UNK        -0.1800 
     92 C          -6.9014  -25.1488  -49.7509 C.2       16 UNK         0.5000 
     93 O          -7.7041  -25.0193  -48.8258 O.2       16 UNK        -0.5000 
     94 N          -6.9238  -24.4077  -50.8653 N.am      17 UNK        -0.5000 
     95 CA         -7.8714  -23.3357  -51.1588 C.3       17 UNK         0.1400 
     96 CB         -8.8706  -23.8230  -52.2244 C.3       17 UNK        -0.1800 
     97 C          -7.1150  -22.0679  -51.5906 C.2       17 UNK         0.5000 
     98 O          -7.5138  -21.4122  -52.5543 O.2       17 UNK        -0.5000 
     99 N          -6.0283  -21.7350  -50.8771 N.am      18 UNK        -0.5000 
    100 CA        -5.1068  -20.6195  -51.1523 C.3       18 UNK         0.1400 
    101 CB        -3.9290  -20.6912  -50.1708 C.3       18 UNK        -0.1800 
    102 C         -5.7213  -19.1998  -51.1588 C.2       18 UNK         0.5000 
    103 O         -5.0275  -18.2431  -51.5032 O.2       18 UNK        -0.5000 
    104 N         -7.0051  -19.0736  -50.7989 N.am      19 UNK        -0.5000 
    105 CA        -7.8113  -17.8712  -51.0120 C.3       19 UNK         0.1400 
    106 CB        -9.1183  -18.0018  -50.2151 C.3       19 UNK        -0.1800 
    107 C         -8.1129  -17.6121  -52.5050 C.2       19 UNK         0.5000 
    108 O         -8.3221  -16.4581  -52.8814 O.2       19 UNK        -0.5000 
    109 N         -8.1299  -18.6776  -53.3187 N.am      20 UNK        -0.5000 
    110 CA        -8.3449  -18.6364  -54.7657 C.3       20 UNK         0.1400 
    111 CB        -9.6594  -19.3603  -55.0985 C.3       20 UNK        -0.1800 
    112 C         -7.1702  -19.2730  -55.5291 C.2       20 UNK         0.5000 
    113 O         -6.7811  -18.7581  -56.5787 O.2       20 UNK        -0.5000 
    114 N         -6.6253  -20.3760  -54.9993 N.am      21 UNK        -0.5000 
    115 CA        -5.4609  -21.0813  -55.5330 C.3       21 UNK         0.1400 
    116 CB        -5.4571  -22.5107  -54.9662 C.3       21 UNK        -0.1800 
    117 C         -4.1416  -20.3559  -55.2004 C.2       21 UNK         0.5000 
    118 O         -4.1286  -19.4154  -54.4051 O.2       21 UNK        -0.5000 
    119 N         -3.0454  -20.8279  -55.8062 N.am      22 UNK        -0.5000 
    120 CA        -1.6788  -20.2906  -55.6598 C.3       22 UNK         0.1400 
    121 C         -1.4353  -18.9269  -56.3833 C.2       22 UNK         0.5000 
    122 N         -2.3541  -18.4372  -57.2074 N.am      22 UNK        -0.7600 
    123 O         -0.3830  -18.3142  -56.2350 O.2       22 UNK        -0.5000 
    124 C124       -1.1748  -20.3125  -54.1815 C.3       23 UNK        -0.0398 
    125 S125        0.5782  -20.8041  -54.0355 S.3       23 UNK        -0.2404 
    126 C126        1.3776  -19.2485  -53.5273 C.3       23 UNK        -0.0205 
    127 H127        1.9964  -15.9947  -52.1042 H         1 UNK         0.0600 
    128 H128        3.4227  -16.8357  -52.7303 H         1 UNK         0.0600 
    129 H129        3.1820  -15.1211  -53.0769 H         1 UNK         0.0600 
    130 H130        3.1402  -17.2120  -50.1246 H         1 UNK         0.3000 
    131 H131        5.3622  -15.7836  -48.9057 H         1 UNK         0.0600 
    132 H132        5.3975  -17.4819  -47.2477 H         1 UNK         0.0800 
    133 H133        3.7647  -17.9770  -47.5231 H         1 UNK         0.0800 
    134 H134        4.1924  -20.9880  -49.7033 H         1 UNK         0.0800 
    135 H135        3.5873  -20.3583  -48.1985 H         1 UNK         0.0800 
    136 H136        3.3340  -20.1592  -51.8789 H         1 UNK         0.1150 
    137 H137       -0.3786  -18.0202  -51.8322 H         1 UNK         0.1150 
    138 H138        1.7680  -18.6904  -48.1811 H         1 UNK         0.1150 
    139 H139       -0.3055  -16.4219  -49.3180 H         1 UNK         0.0800 
    140 H140       -1.4930  -17.6525  -49.6599 H         1 UNK         0.0800 
    141 H141       -2.2654  -19.4153  -48.2000 H         1 UNK         0.0800 
    142 H142       -2.1608  -19.4364  -46.4632 H         1 UNK         0.0800 
    143 H143       -0.0627  -20.5720  -48.3694 H         1 UNK         0.0600 
    144 H144        0.2521  -19.9938  -45.6033 H         1 UNK         0.3000 
    145 H145        2.7359  -22.4908  -44.9303 H         1 UNK         0.0600 
    146 H146        3.8645  -20.3888  -44.1130 H         1 UNK         0.0600 
    147 H147        2.8806  -19.4416  -45.2278 H         1 UNK         0.0600 
    148 H148        4.0239  -20.6232  -45.8444 H         1 UNK         0.0600 
    149 H149        1.3125  -20.4205  -43.4539 H         1 UNK         0.3000 
    150 H150       -1.1858  -22.5946  -42.1529 H         1 UNK         0.0600 
    151 H151        0.7885  -23.1276  -40.7158 H         1 UNK         0.0600 
    152 H152       -0.2343  -21.9103  -39.9693 H         1 UNK         0.0600 
    153 H153        1.2793  -21.4378  -40.7421 H         1 UNK         0.0600 
    154 H154       -0.4538  -19.8821  -41.5743 H         1 UNK         0.3000 
    155 H155       -2.2609  -18.3376  -44.2036 H         1 UNK         0.0600 
    156 H156       -4.0647  -18.8821  -42.5746 H         1 UNK         0.0600 
    157 H157       -3.4766  -17.2431  -42.3432 H         1 UNK         0.0600 
    158 H158       -2.9835  -18.5232  -41.2341 H         1 UNK         0.0600 
    159 H159       -1.0118  -17.0979  -42.0464 H         1 UNK         0.3000 
    160 H160        2.3008  -17.2189  -42.8116 H         1 UNK         0.0600 
    161 H161        0.7372  -15.1709  -44.4546 H         1 UNK         0.0600 
    162 H162        1.9506  -16.2789  -45.0832 H         1 UNK         0.0600 
    163 H163        2.4268  -15.0257  -43.9509 H         1 UNK         0.0600 
    164 H164        0.4277  -15.0666  -42.0398 H         1 UNK         0.3000 
    165 H165        0.4656  -15.9075  -38.6227 H         1 UNK         0.0600 
    166 H166        1.5038  -13.6861  -38.2250 H         1 UNK         0.0600 
    167 H167        2.7257  -14.8406  -38.7341 H         1 UNK         0.0600 
    168 H168        2.1190  -13.6489  -39.8780 H         1 UNK         0.0600 
    169 H169       -0.3441  -13.5333  -39.9832 H         1 UNK         0.3000 
    170 H170       -3.3068  -14.6459  -41.4458 H         1 UNK         0.0600 
    171 H171       -3.2418  -13.2212  -38.7317 H         1 UNK         0.0600 
    172 H172       -4.5718  -13.1888  -39.8908 H         1 UNK         0.0600 
    173 H173       -4.1428  -14.6900  -39.0882 H         1 UNK         0.0600 
    174 H174       -2.5665  -12.0124  -40.8052 H         1 UNK         0.3000 
    175 H175       -1.9599  -11.0447  -43.4881 H         1 UNK         0.0600 
    176 H176       -0.3704  -10.5945  -40.9043 H         1 UNK         0.0600 
    177 H177       -0.7467   -9.3250  -42.0646 H         1 UNK         0.0600 
    178 H178       -2.0426  -10.1440  -41.2205 H         1 UNK         0.0600 
    179 H179       -0.0803  -11.1157  -44.6285 H         1 UNK         0.3000 
    180 H180        2.4057  -10.6758  -44.8446 H         1 UNK         0.0600 
    181 H181        4.4856  -12.0661  -44.7258 H         1 UNK         0.0600 
    182 H182        3.7748  -13.0538  -43.4525 H         1 UNK         0.0600 
    183 H183        4.1331  -11.3560  -43.1599 H         1 UNK         0.0600 
    184 H184        1.1695  -13.2649  -45.0355 H         1 UNK         0.3000 
    185 H185        1.0755  -14.5200  -46.7834 H         1 UNK         0.0600 
    186 H186        0.0120  -14.0562  -48.9559 H         1 UNK         0.0600 
    187 H187       -0.1729  -12.6606  -47.9085 H         1 UNK         0.0600 
    188 H188        1.0285  -12.6353  -49.1937 H         1 UNK         0.0600 
    189 H189        2.3224  -14.8223  -49.1973 H         1 UNK         0.3000 
    190 H190       -1.8127  -21.9088  -45.5241 H         1 UNK         0.3000 
    191 H191       -3.4778  -23.6812  -46.9437 H         1 UNK         0.0600 
    192 H192       -3.8243  -23.0773  -44.5705 H         1 UNK         0.0600 
    193 H193       -2.3334  -23.8984  -44.1103 H         1 UNK         0.0600 
    194 H194       -3.6984  -24.8226  -44.7277 H         1 UNK         0.0600 
    195 H195       -0.0911  -24.0775  -45.9262 H         1 UNK         0.3000 
    196 H196        0.1086  -26.8701  -46.6558 H         1 UNK         0.0600 
    197 H197        1.6415  -25.8317  -45.0026 H         1 UNK         0.0600 
    198 H198        2.2827  -24.7522  -46.2384 H         1 UNK         0.0600 
    199 H199        2.5437  -26.4863  -46.3612 H         1 UNK         0.0600 
    200 H200        0.7005  -23.7667  -48.3355 H         1 UNK         0.3000 
    201 H201        1.8843  -24.8736  -50.6815 H         1 UNK         0.0600 
    202 H202        2.1771  -22.5072  -49.9855 H         1 UNK         0.0600 
    203 H203        0.4754  -22.1804  -50.2977 H         1 UNK         0.0600 
    204 H204        1.5448  -22.6146  -51.6205 H         1 UNK         0.0600 
    205 H205       -1.5326  -23.9451  -49.9199 H         1 UNK         0.3000 
    206 H206       -2.4892  -25.9259  -51.8234 H         1 UNK         0.0600 
    207 H207       -3.1679  -22.9563  -52.2500 H         1 UNK         0.0600 
    208 H208       -2.2091  -23.9493  -53.3426 H         1 UNK         0.0600 
    209 H209       -3.9073  -24.3130  -53.0950 H         1 UNK         0.0600 
    210 H210       -4.5121  -26.6689  -51.2720 H         1 UNK         0.3000 
    211 H211       -5.4277  -26.2072  -48.6183 H         1 UNK         0.0600 
    212 H212       -6.7396  -27.6964  -50.9568 H         1 UNK         0.0600 
    213 H213       -7.2069  -27.8379  -49.2666 H         1 UNK         0.0600 
    214 H214       -5.6226  -28.3919  -49.7810 H         1 UNK         0.0600 
    215 H215       -6.2114  -24.5759  -51.5606 H         1 UNK         0.3000 
    216 H216       -8.4336  -23.0655  -50.2629 H         1 UNK         0.0600 
    217 H217       -9.6216  -23.0612  -52.4378 H         1 UNK         0.0600 
    218 H218       -9.4009  -24.7139  -51.8878 H         1 UNK         0.0600 
    219 H219       -8.3702  -24.0652  -53.1629 H         1 UNK         0.0600 
    220 H220       -5.7641  -22.3395  -50.1103 H         1 UNK         0.3000 
    221 H221       -4.7082  -20.7803  -52.1544 H         1 UNK         0.0600 
    222 H222       -4.2621  -20.6139  -49.1355 H         1 UNK         0.0600 
    223 H223       -3.3852  -21.6273  -50.2805 H         1 UNK         0.0600 
    224 H224       -3.2123  -19.8898  -50.3544 H         1 UNK         0.0600 
    225 H225       -7.4992  -19.9057  -50.5145 H         1 UNK         0.3000 
    226 H226       -7.2588  -17.0110  -50.6283 H         1 UNK         0.0600 
    227 H227       -8.9208  -18.1250  -49.1501 H         1 UNK         0.0600 
    228 H228       -9.7354  -17.1095  -50.3292 H         1 UNK         0.0600 
    229 H229       -9.7101  -18.8550  -50.5492 H         1 UNK         0.0600 
    230 H230       -7.9340  -19.5915  -52.9222 H         1 UNK         0.3000 
    231 H231       -8.4290  -17.6038  -55.1105 H         1 UNK         0.0600 
    232 H232       -9.8464  -19.3584  -56.1731 H         1 UNK         0.0600 
    233 H233      -10.5081  -18.8720  -54.6194 H         1 UNK         0.0600 
    234 H234       -9.6413  -20.3998  -54.7679 H         1 UNK         0.0600 
    235 H235       -6.9970  -20.7404  -54.1262 H         1 UNK         0.3000 
    236 H236       -5.5556  -21.1382  -56.6194 H         1 UNK         0.0600 
    237 H237       -5.2962  -22.5109  -53.8891 H         1 UNK         0.0600 
    238 H238       -6.4024  -23.0171  -55.1626 H         1 UNK         0.0600 
    239 H239       -4.6682  -23.1150  -55.4150 H         1 UNK         0.0600 
    240 H240       -3.1384  -21.5998  -56.4513 H         1 UNK         0.3000 
    241 H241       -1.0707  -20.9990  -56.2233 H         1 UNK         0.0600 
    242 H242       -3.2264  -18.9192  -57.3530 H         1 UNK         0.3800 
    243 H243       -2.1787  -17.5640  -57.6793 H         1 UNK         0.3800 
    244 H244       -1.7370  -21.0472  -53.6035 H         1 UNK         0.0800 
    245 H245       -1.3559  -19.3580  -53.6854 H         1 UNK         0.0800 
    246 H246        0.8572  -18.3906  -53.9532 H         1 UNK         0.0800 
    247 H247        2.3830  -19.2236  -53.9499 H         1 UNK         0.0800 
@<TRIPOS>BOND
     1    1    2 1    
     2    1  127 1    
     3    1  128 1    
     4    1  129 1    
     5    2    3 2    
     6    2    4 am   BACKBONE|DICT|INTERRES
     7    4    5 1    
     8    4  130 1    
     9    5    6 1    
    10    5   65 1    
    11    5  131 1    
    12    6    7 1    
    13    6  132 1    
    14    6  133 1    
    15    7    8 1    
    16    8    9 1    
    17    8  134 1    
    18    8  135 1    
    19    9   10 ar   
    20    9   14 ar   
    21   10   11 ar   
    22   10  136 1    
    23   11   12 ar   
    24   11  126 1    
    25   12   13 ar   
    26   12  137 1    
    27   13   14 ar   
    28   13   15 1    
    29   14  138 1    
    30   15   16 1    
    31   15  139 1    
    32   15  140 1    
    33   16   17 1    
    34   17   18 1    
    35   17  141 1    
    36   17  142 1    
    37   18   19 1    
    38   18   67 1    
    39   18  143 1    
    40   19   20 am   BACKBONE|DICT|INTERRES
    41   19  144 1    
    42   20   21 2    
    43   20   22 1    
    44   22   23 1    
    45   22   24 1    
    46   22  145 1    
    47   23  146 1    
    48   23  147 1    
    49   23  148 1    
    50   24   25 am   BACKBONE|DICT|INTERRES
    51   24  149 1    
    52   25   26 2    
    53   25   27 1    
    54   27   28 1    
    55   27   29 1    
    56   27  150 1    
    57   28  151 1    
    58   28  152 1    
    59   28  153 1    
    60   29   30 am   BACKBONE|DICT|INTERRES
    61   29  154 1    
    62   30   31 2    
    63   30   32 1    
    64   32   33 1    
    65   32   34 1    
    66   32  155 1    
    67   33  156 1    
    68   33  157 1    
    69   33  158 1    
    70   34   35 am   BACKBONE|DICT|INTERRES
    71   34  159 1    
    72   35   36 2    
    73   35   37 1    
    74   37   38 1    
    75   37   39 1    
    76   37  160 1    
    77   38  161 1    
    78   38  162 1    
    79   38  163 1    
    80   39   40 am   BACKBONE|DICT|INTERRES
    81   39  164 1    
    82   40   41 2    
    83   40   42 1    
    84   42   43 1    
    85   42   44 1    
    86   42  165 1    
    87   43  166 1    
    88   43  167 1    
    89   43  168 1    
    90   44   45 am   BACKBONE|DICT|INTERRES
    91   44  169 1    
    92   45   46 2    
    93   45   47 1    
    94   47   48 1    
    95   47   49 1    
    96   47  170 1    
    97   48  171 1    
    98   48  172 1    
    99   48  173 1    
   100   49   50 am   BACKBONE|DICT|INTERRES
   101   49  174 1    
   102   50   51 2    
   103   50   52 1    
   104   52   53 1    
   105   52   54 1    
   106   52  175 1    
   107   53  176 1    
   108   53  177 1    
   109   53  178 1    
   110   54   55 am   BACKBONE|DICT|INTERRES
   111   54  179 1    
   112   55   56 2    
   113   55   57 1    
   114   57   58 1    
   115   57   59 1    
   116   57  180 1    
   117   58  181 1    
   118   58  182 1    
   119   58  183 1    
   120   59   60 am   BACKBONE|DICT|INTERRES
   121   59  184 1    
   122   60   61 2    
   123   60   62 1    
   124   62   63 1    
   125   62   64 1    
   126   62  185 1    
   127   63  186 1    
   128   63  187 1    
   129   63  188 1    
   130   64   65 am   BACKBONE|DICT|INTERRES
   131   64  189 1    
   132   65   66 2    
   133   67   68 2    
   134   67   69 am   BACKBONE|DICT|INTERRES
   135   69   70 1    
   136   69  190 1    
   137   70   71 1    
   138   70   72 1    
   139   70  191 1    
   140   71  192 1    
   141   71  193 1    
   142   71  194 1    
   143   72   73 2    
   144   72   74 am   BACKBONE|DICT|INTERRES
   145   74   75 1    
   146   74  195 1    
   147   75   76 1    
   148   75   77 1    
   149   75  196 1    
   150   76  197 1    
   151   76  198 1    
   152   76  199 1    
   153   77   78 2    
   154   77   79 am   BACKBONE|DICT|INTERRES
   155   79   80 1    
   156   79  200 1    
   157   80   81 1    
   158   80   82 1    
   159   80  201 1    
   160   81  202 1    
   161   81  203 1    
   162   81  204 1    
   163   82   83 2    
   164   82   84 am   BACKBONE|DICT|INTERRES
   165   84   85 1    
   166   84  205 1    
   167   85   86 1    
   168   85   87 1    
   169   85  206 1    
   170   86  207 1    
   171   86  208 1    
   172   86  209 1    
   173   87   88 2    
   174   87   89 am   BACKBONE|DICT|INTERRES
   175   89   90 1    
   176   89  210 1    
   177   90   91 1    
   178   90   92 1    
   179   90  211 1    
   180   91  212 1    
   181   91  213 1    
   182   91  214 1    
   183   92   93 2    
   184   92   94 am   BACKBONE|DICT|INTERRES
   185   94   95 1    
   186   94  215 1    
   187   95   96 1    
   188   95   97 1    
   189   95  216 1    
   190   96  217 1    
   191   96  218 1    
   192   96  219 1    
   193   97   98 2    
   194   97   99 am   BACKBONE|DICT|INTERRES
   195   99  100 1    
   196   99  220 1    
   197  100  101 1    
   198  100  102 1    
   199  100  221 1    
   200  101  222 1    
   201  101  223 1    
   202  101  224 1    
   203  102  103 2    
   204  102  104 am   BACKBONE|DICT|INTERRES
   205  104  105 1    
   206  104  225 1    
   207  105  106 1    
   208  105  107 1    
   209  105  226 1    
   210  106  227 1    
   211  106  228 1    
   212  106  229 1    
   213  107  108 2    
   214  107  109 am   BACKBONE|DICT|INTERRES
   215  109  110 1    
   216  109  230 1    
   217  110  111 1    
   218  110  112 1    
   219  110  231 1    
   220  111  232 1    
   221  111  233 1    
   222  111  234 1    
   223  112  113 2    
   224  112  114 am   BACKBONE|DICT|INTERRES
   225  114  115 1    
   226  114  235 1    
   227  115  116 1    
   228  115  117 1    
   229  115  236 1    
   230  116  237 1    
   231  116  238 1    
   232  116  239 1    
   233  117  118 2    
   234  117  119 am   BACKBONE|DICT|INTERRES
   235  119  120 1    
   236  119  240 1    
   237  120  121 1    
   238  120  124 1    
   239  120  241 1    
   240  121  122 am   BACKBONE|DICT|INTERRES
   241  121  123 2    
   242  122  242 1    
   243  122  243 1    
   244  124  125 1    
   245  124  244 1    
   246  124  245 1    
   247  125  126 1    
   248  126  246 1    
   249  126  247 1    
@<TRIPOS>SUBSTRUCTURE
     1 UNK         1 GROUP             0       ****    0 ROOT    
