@<TRIPOS>MOLECULE
3R540
247   249    1
SMALL
USER_CHARGES


@<TRIPOS>ATOM
      1 CA         -4.8990  -13.3241  -43.3691 C.3       0 UNK        -0.1800 
      2 C          -4.5420  -12.4405  -44.5561 C.2       0 UNK         0.5000 
      3 O          -5.1313  -11.3738  -44.7285 O.2       0 UNK        -0.5000 
      4 N          -3.5730  -12.8790  -45.3694 N.am      1 UNK        -0.5000 
      5 CA         -3.1283  -12.2014  -46.5983 C.3       1 UNK         0.1400 
      6 C6         -2.5348  -13.1945  -47.6325 C.3       23 UNK        -0.0398 
      7 S7         -3.6652  -14.5780  -48.0119 S.3       23 UNK        -0.2404 
      8 C8         -2.7988  -15.9542  -47.1994 C.3       23 UNK        -0.0205 
      9 C9         -3.7023  -17.1619  -47.0392 C.ar      23 UNK        -0.0193 
     10 C10        -3.8564  -18.0636  -48.0911 C.ar      23 UNK        -0.1150 
     11 C11        -4.7038  -19.1667  -47.9649 C.ar      23 UNK        -0.0193 
     12 C12        -5.3841  -19.3765  -46.7611 C.ar      23 UNK        -0.1150 
     13 C13        -5.1981  -18.5060  -45.6815 C.ar      23 UNK        -0.0193 
     14 C14        -4.3695  -17.3904  -45.8340 C.ar      23 UNK        -0.1150 
     15 C15        -5.8649  -18.7734  -44.3374 C.3       23 UNK        -0.0205 
     16 S16        -5.2892  -20.3107  -43.5318 S.3       23 UNK        -0.2404 
     17 C17        -3.4749  -20.2618  -43.7594 C.3       23 UNK        -0.0398 
     18 CA         -3.0293  -21.2425  -44.8756 C.3       11 UNK         0.1400 
     19 N          -1.8970  -20.7401  -45.6534 N.am      11 UNK        -0.5000 
     20 C          -1.5656  -21.1940  -46.8711 C.2       10 UNK         0.5000 
     21 O          -2.2103  -22.0445  -47.4891 O.2       10 UNK        -0.5000 
     22 CA         -0.2692  -20.6342  -47.4862 C.3       10 UNK         0.1400 
     23 CB         -0.5381  -19.3110  -48.2165 C.3       10 UNK        -0.1800 
     24 N           0.7985  -20.4466  -46.4996 N.am      10 UNK        -0.5000 
     25 C           1.3609  -21.4459  -45.8037 C.2       9 UNK         0.5000 
     26 O           1.0509  -22.6281  -45.9396 O.2       9 UNK        -0.5000 
     27 CA          2.4170  -21.0691  -44.7509 C.3       9 UNK         0.1400 
     28 CB          3.7770  -20.8149  -45.4168 C.3       9 UNK        -0.1800 
     29 N           2.0349  -19.9159  -43.9350 N.am      9 UNK        -0.5000 
     30 C           0.9568  -19.8654  -43.1379 C.2       8 UNK         0.5000 
     31 O           0.1620  -20.7937  -42.9981 O.2       8 UNK        -0.5000 
     32 CA          0.6840  -18.5321  -42.4202 C.3       8 UNK         0.1400 
     33 CB          1.6245  -18.3438  -41.2207 C.3       8 UNK        -0.1800 
     34 N           0.7981  -17.3875  -43.3209 N.am      8 UNK        -0.5000 
     35 C           0.0412  -17.2010  -44.4112 C.2       7 UNK         0.5000 
     36 O          -0.8830  -17.9420  -44.7482 O.2       7 UNK        -0.5000 
     37 CA          0.4256  -16.0108  -45.3026 C.3       7 UNK         0.1400 
     38 CB         -0.1206  -14.6914  -44.7306 C.3       7 UNK        -0.1800 
     39 N           1.8742  -15.9243  -45.4919 N.am      7 UNK        -0.5000 
     40 C           2.5910  -16.8127  -46.1971 C.2       6 UNK         0.5000 
     41 O           2.0949  -17.7593  -46.8078 O.2       6 UNK        -0.5000 
     42 CA          4.1207  -16.6454  -46.1783 C.3       6 UNK         0.1400 
     43 CB          4.5864  -15.7083  -47.3007 C.3       6 UNK        -0.1800 
     44 N           4.6102  -16.1563  -44.8885 N.am      6 UNK        -0.5000 
     45 C           4.6390  -16.9052  -43.7763 C.2       5 UNK         0.5000 
     46 O           4.2729  -18.0788  -43.7385 O.2       5 UNK        -0.5000 
     47 CA          5.1111  -16.2267  -42.4774 C.3       5 UNK         0.1400 
     48 CB          6.6352  -16.3453  -42.3312 C.3       5 UNK        -0.1800 
     49 N           4.7242  -14.8193  -42.3764 N.am      5 UNK        -0.5000 
     50 C           3.4645  -14.3640  -42.3821 C.2       4 UNK         0.5000 
     51 O           2.4787  -15.0965  -42.4830 O.2       4 UNK        -0.5000 
     52 CA          3.2607  -12.8380  -42.2875 C.3       4 UNK         0.1400 
     53 CB          4.5398  -12.0510  -41.9223 C.3       4 UNK        -0.1800 
     54 N           2.6597  -12.2843  -43.5053 N.am      4 UNK        -0.5000 
     55 C           3.1223  -12.3756  -44.7625 C.2       3 UNK         0.5000 
     56 O           4.1245  -13.0216  -45.0728 O.2       3 UNK        -0.5000 
     57 CA          2.3277  -11.6319  -45.8584 C.3       3 UNK         0.1400 
     58 CB          2.1841  -12.4756  -47.1374 C.3       3 UNK        -0.1800 
     59 N           0.9920  -11.2352  -45.4024 N.am      3 UNK        -0.5000 
     60 C           0.6348  -10.0075  -45.0029 C.2       2 UNK         0.5000 
     61 O           1.4114   -9.0522  -44.9644 O.2       2 UNK        -0.5000 
     62 CA         -0.8262   -9.8340  -44.5305 C.3       2 UNK         0.1400 
     63 CB         -1.3707   -8.4116  -44.7804 C.3       2 UNK        -0.1800 
     64 N          -1.7480  -10.8560  -45.0495 N.am      2 UNK        -0.5000 
     65 C          -2.1387  -11.0438  -46.3216 C.2       1 UNK         0.5000 
     66 O          -1.7376  -10.3616  -47.2648 O.2       1 UNK        -0.5000 
     67 C          -2.7646  -22.6634  -44.3368 C.2       11 UNK         0.5000 
     68 O          -3.6293  -23.5301  -44.4678 O.2       11 UNK        -0.5000 
     69 N          -1.5629  -22.8983  -43.7874 N.am      12 UNK        -0.5000 
     70 CA         -1.1125  -24.1957  -43.2704 C.3       12 UNK         0.1400 
     71 CB          0.2453  -24.0285  -42.5727 C.3       12 UNK        -0.1800 
     72 C          -1.0333  -25.2919  -44.3499 C.2       12 UNK         0.5000 
     73 O          -1.3027  -26.4565  -44.0546 O.2       12 UNK        -0.5000 
     74 N          -0.7112  -24.8933  -45.5877 N.am      13 UNK        -0.5000 
     75 CA         -0.7369  -25.7360  -46.7833 C.3       13 UNK         0.1400 
     76 CB          0.0273  -25.0252  -47.9129 C.3       13 UNK        -0.1800 
     77 C          -2.1579  -26.1080  -47.2536 C.2       13 UNK         0.5000 
     78 O          -2.2803  -26.9376  -48.1530 O.2       13 UNK        -0.5000 
     79 N          -3.2000  -25.4855  -46.6788 N.am      14 UNK        -0.5000 
     80 CA         -4.6248  -25.7055  -46.9555 C.3       14 UNK         0.1400 
     81 CB         -5.0610  -27.0980  -46.4547 C.3       14 UNK        -0.1800 
     82 C          -5.0037  -25.4497  -48.4298 C.2       14 UNK         0.5000 
     83 O          -5.8627  -26.1419  -48.9787 O.2       14 UNK        -0.5000 
     84 N          -4.3330  -24.4614  -49.0404 N.am      15 UNK        -0.5000 
     85 CA         -4.4539  -24.0419  -50.4389 C.3       15 UNK         0.1400 
     86 CB         -5.8675  -23.4997  -50.7370 C.3       15 UNK        -0.1800 
     87 C          -4.0078  -25.1104  -51.4630 C.2       15 UNK         0.5000 
     88 O          -4.4591  -25.0710  -52.6082 O.2       15 UNK        -0.5000 
     89 N          -3.1124  -26.0308  -51.0672 N.am      16 UNK        -0.5000 
     90 CA         -2.6133  -27.1290  -51.9087 C.3       16 UNK         0.1400 
     91 CB         -1.7196  -28.0565  -51.0724 C.3       16 UNK        -0.1800 
     92 C          -1.8699  -26.6849  -53.1858 C.2       16 UNK         0.5000 
     93 O          -1.8630  -27.4294  -54.1667 O.2       16 UNK        -0.5000 
     94 N          -1.2856  -25.4781  -53.1681 N.am      17 UNK        -0.5000 
     95 CA         -0.6426  -24.8483  -54.3265 C.3       17 UNK         0.1400 
     96 CB          0.4546  -23.8892  -53.8363 C.3       17 UNK        -0.1800 
     97 C          -1.6423  -24.1283  -55.2605 C.2       17 UNK         0.5000 
     98 O          -1.2119  -23.5087  -56.2345 O.2       17 UNK        -0.5000 
     99 N          -2.9473  -24.2086  -54.9558 N.am      18 UNK        -0.5000 
    100 CA        -4.0717  -23.6316  -55.6914 C.3       18 UNK         0.1400 
    101 CB        -4.2387  -24.3212  -57.0646 C.3       18 UNK        -0.1800 
    102 C         -3.9690  -22.0967  -55.7513 C.2       18 UNK         0.5000 
    103 O         -3.9014  -21.4587  -54.6962 O.2       18 UNK        -0.5000 
    104 N         -3.9551  -21.5245  -56.9622 N.am      19 UNK        -0.5000 
    105 CA        -3.8908  -20.0853  -57.2336 C.3       19 UNK         0.1400 
    106 CB        -4.0167  -19.8604  -58.7480 C.3       19 UNK        -0.1800 
    107 C         -2.6271  -19.3898  -56.6907 C.2       19 UNK         0.5000 
    108 O         -2.6686  -18.1871  -56.4300 O.2       19 UNK        -0.5000 
    109 N         -1.5375  -20.1503  -56.5110 N.am      20 UNK        -0.5000 
    110 CA        -0.2926  -19.6699  -55.9106 C.3       20 UNK         0.1400 
    111 CB         0.8477  -20.6317  -56.2744 C.3       20 UNK        -0.1800 
    112 C         -0.3900  -19.4887  -54.3822 C.2       20 UNK         0.5000 
    113 O          0.4097  -18.7387  -53.8212 O.2       20 UNK        -0.5000 
    114 N         -1.3542  -20.1634  -53.7392 N.am      21 UNK        -0.5000 
    115 CA        -1.6530  -20.0210  -52.3177 C.3       21 UNK         0.1400 
    116 CB        -1.9852  -21.3963  -51.7151 C.3       21 UNK        -0.1800 
    117 C         -2.7922  -19.0070  -52.1263 C.2       21 UNK         0.5000 
    118 O         -2.5537  -17.9350  -51.5709 O.2       21 UNK        -0.5000 
    119 N         -3.9973  -19.3499  -52.6001 N.am      22 UNK        -0.5000 
    120 CA        -5.1997  -18.4982  -52.5266 C.3       22 UNK         0.1400 
    121 C         -6.3394  -18.8804  -53.5152 C.2       22 UNK         0.5000 
    122 N         -6.2076  -19.9079  -54.3434 N.am      22 UNK        -0.7600 
    123 O         -7.3680  -18.2104  -53.5544 O.2       22 UNK        -0.5000 
    124 C124       -5.7235  -18.2750  -51.0772 C.3       23 UNK        -0.0398 
    125 S125       -6.2530  -19.7935  -50.2022 S.3       23 UNK        -0.2404 
    126 C126       -4.8394  -20.1557  -49.1114 C.3       23 UNK        -0.0205 
    127 H127       -4.2955  -14.2319  -43.3420 H         1 UNK         0.0600 
    128 H128       -5.9478  -13.6161  -43.4219 H         1 UNK         0.0600 
    129 H129       -4.7412  -12.7824  -42.4365 H         1 UNK         0.0600 
    130 H130       -3.1464  -13.7730  -45.1830 H         1 UNK         0.3000 
    131 H131       -4.0044  -11.7437  -47.0630 H         1 UNK         0.0600 
    132 H132       -2.3296  -12.6790  -48.5726 H         1 UNK         0.0800 
    133 H133       -1.5747  -13.5861  -47.2947 H         1 UNK         0.0800 
    134 H134       -1.9172  -16.2204  -47.7841 H         1 UNK         0.0800 
    135 H135       -2.4455  -15.6388  -46.2197 H         1 UNK         0.0800 
    136 H136       -3.3119  -17.8998  -49.0097 H         1 UNK         0.1150 
    137 H137       -6.0264  -20.2387  -46.6496 H         1 UNK         0.1150 
    138 H138       -4.2295  -16.7070  -45.0086 H         1 UNK         0.1150 
    139 H139       -6.9446  -18.8323  -44.4805 H         1 UNK         0.0800 
    140 H140       -5.6943  -17.9411  -43.6528 H         1 UNK         0.0800 
    141 H141       -2.9851  -20.4805  -42.8087 H         1 UNK         0.0800 
    142 H142       -3.1791  -19.2406  -44.0000 H         1 UNK         0.0800 
    143 H143       -3.8523  -21.3392  -45.5862 H         1 UNK         0.0600 
    144 H144       -1.3344  -20.0100  -45.2312 H         1 UNK         0.3000 
    145 H145        0.0832  -21.3598  -48.2222 H         1 UNK         0.0600 
    146 H146        0.3554  -18.9539  -48.7286 H         1 UNK         0.0600 
    147 H147       -0.8612  -18.5320  -47.5255 H         1 UNK         0.0600 
    148 H148       -1.3174  -19.4312  -48.9698 H         1 UNK         0.0600 
    149 H149        1.1337  -19.4982  -46.3639 H         1 UNK         0.3000 
    150 H150        2.5290  -21.9212  -44.0779 H         1 UNK         0.0600 
    151 H151        4.0817  -21.6695  -46.0222 H         1 UNK         0.0600 
    152 H152        4.5562  -20.6517  -44.6723 H         1 UNK         0.0600 
    153 H153        3.7484  -19.9430  -46.0702 H         1 UNK         0.0600 
    154 H154        2.6672  -19.1209  -43.9574 H         1 UNK         0.3000 
    155 H155       -0.3420  -18.5585  -42.0472 H         1 UNK         0.0600 
    156 H156        1.5204  -19.1660  -40.5118 H         1 UNK         0.0600 
    157 H157        1.4005  -17.4208  -40.6855 H         1 UNK         0.0600 
    158 H158        2.6695  -18.3059  -41.5276 H         1 UNK         0.0600 
    159 H159        1.5099  -16.6975  -43.0996 H         1 UNK         0.3000 
    160 H160       -0.0301  -16.1739  -46.2803 H         1 UNK         0.0600 
    161 H161        0.4089  -14.3836  -43.8302 H         1 UNK         0.0600 
    162 H162       -1.1730  -14.7822  -44.4620 H         1 UNK         0.0600 
    163 H163       -0.0403  -13.8875  -45.4583 H         1 UNK         0.0600 
    164 H164        2.3686  -15.2235  -44.9590 H         1 UNK         0.3000 
    165 H165        4.5623  -17.6270  -46.3620 H         1 UNK         0.0600 
    166 H166        5.6741  -15.6468  -47.3364 H         1 UNK         0.0600 
    167 H167        4.2483  -16.0666  -48.2739 H         1 UNK         0.0600 
    168 H168        4.1990  -14.6995  -47.1701 H         1 UNK         0.0600 
    169 H169        4.8730  -15.1796  -44.8356 H         1 UNK         0.3000 
    170 H170        4.6468  -16.7564  -41.6433 H         1 UNK         0.0600 
    171 H171        7.1588  -15.8048  -43.1208 H         1 UNK         0.0600 
    172 H172        6.9719  -15.9502  -41.3725 H         1 UNK         0.0600 
    173 H173        6.9521  -17.3879  -42.3808 H         1 UNK         0.0600 
    174 H174        5.4751  -14.1472  -42.3179 H         1 UNK         0.3000 
    175 H175        2.5383  -12.6815  -41.4852 H         1 UNK         0.0600 
    176 H176        5.3059  -12.1234  -42.6951 H         1 UNK         0.0600 
    177 H177        4.3157  -10.9932  -41.7841 H         1 UNK         0.0600 
    178 H178        4.9710  -12.4088  -40.9864 H         1 UNK         0.0600 
    179 H179        1.8117  -11.7558  -43.3656 H         1 UNK         0.3000 
    180 H180        2.9084  -10.7440  -46.1160 H         1 UNK         0.0600 
    181 H181        1.5601  -11.9699  -47.8746 H         1 UNK         0.0600 
    182 H182        1.7437  -13.4523  -46.9403 H         1 UNK         0.0600 
    183 H183        3.1556  -12.6400  -47.6036 H         1 UNK         0.0600 
    184 H184        0.2870  -11.9556  -45.3907 H         1 UNK         0.3000 
    185 H185       -0.8020   -9.9813  -43.4499 H         1 UNK         0.0600 
    186 H186       -2.4008   -8.3178  -44.4365 H         1 UNK         0.0600 
    187 H187       -0.7824   -7.6671  -44.2428 H         1 UNK         0.0600 
    188 H188       -1.3435   -8.1449  -45.8371 H         1 UNK         0.0600 
    189 H189       -2.1515  -11.4689  -44.3551 H         1 UNK         0.3000 
    190 H190       -0.9093  -22.1246  -43.6824 H         1 UNK         0.3000 
    191 H191       -1.8397  -24.5226  -42.5245 H         1 UNK         0.0600 
    192 H192        0.1820  -23.3148  -41.7512 H         1 UNK         0.0600 
    193 H193        1.0102  -23.6766  -43.2650 H         1 UNK         0.0600 
    194 H194        0.5902  -24.9751  -42.1549 H         1 UNK         0.0600 
    195 H195       -0.4092  -23.9328  -45.7217 H         1 UNK         0.3000 
    196 H196       -0.2181  -26.6690  -46.5548 H         1 UNK         0.0600 
    197 H197        1.0611  -24.8313  -47.6270 H         1 UNK         0.0600 
    198 H198       -0.4332  -24.0712  -48.1712 H         1 UNK         0.0600 
    199 H199        0.0526  -25.6341  -48.8176 H         1 UNK         0.0600 
    200 H200       -3.0104  -24.8025  -45.9535 H         1 UNK         0.3000 
    201 H201       -5.1670  -24.9608  -46.3714 H         1 UNK         0.0600 
    202 H202       -4.7892  -27.2422  -45.4090 H         1 UNK         0.0600 
    203 H203       -4.6011  -27.8990  -47.0345 H         1 UNK         0.0600 
    204 H204       -6.1422  -27.2200  -46.5276 H         1 UNK         0.0600 
    205 H205       -3.6455  -23.9593  -48.4923 H         1 UNK         0.3000 
    206 H206       -3.7597  -23.2112  -50.5456 H         1 UNK         0.0600 
    207 H207       -6.6005  -24.3030  -50.8163 H         1 UNK         0.0600 
    208 H208       -6.2074  -22.8191  -49.9578 H         1 UNK         0.0600 
    209 H209       -5.8832  -22.9494  -51.6788 H         1 UNK         0.0600 
    210 H210       -2.8194  -26.0442  -50.0975 H         1 UNK         0.3000 
    211 H211       -3.4812  -27.7058  -52.2345 H         1 UNK         0.0600 
    212 H212       -0.8868  -27.5150  -50.6222 H         1 UNK         0.0600 
    213 H213       -1.3003  -28.8576  -51.6827 H         1 UNK         0.0600 
    214 H214       -2.2876  -28.5308  -50.2721 H         1 UNK         0.0600 
    215 H215       -1.3356  -24.9328  -52.3206 H         1 UNK         0.3000 
    216 H216       -0.1558  -25.6254  -54.9194 H         1 UNK         0.0600 
    217 H217        0.0396  -22.9719  -53.4226 H         1 UNK         0.0600 
    218 H218        1.1102  -23.6047  -54.6594 H         1 UNK         0.0600 
    219 H219        1.0822  -24.3532  -53.0753 H         1 UNK         0.0600 
    220 H220       -3.2146  -24.6920  -54.1047 H         1 UNK         0.3000 
    221 H221       -4.9649  -23.8486  -55.1042 H         1 UNK         0.0600 
    222 H222       -3.3865  -24.1498  -57.7231 H         1 UNK         0.0600 
    223 H223       -4.3458  -25.3993  -56.9436 H         1 UNK         0.0600 
    224 H224       -5.1351  -23.9696  -57.5770 H         1 UNK         0.0600 
    225 H225       -3.9940  -22.1281  -57.7707 H         1 UNK         0.3000 
    226 H226       -4.7494  -19.6172  -56.7494 H         1 UNK         0.0600 
    227 H227       -4.9541  -20.2642  -59.1309 H         1 UNK         0.0600 
    228 H228       -4.0014  -18.7965  -58.9886 H         1 UNK         0.0600 
    229 H229       -3.1985  -20.3323  -59.2936 H         1 UNK         0.0600 
    230 H230       -1.5844  -21.1356  -56.7373 H         1 UNK         0.3000 
    231 H231       -0.0563  -18.6940  -56.3402 H         1 UNK         0.0600 
    232 H232        0.9618  -20.7187  -57.3550 H         1 UNK         0.0600 
    233 H233        0.6732  -21.6292  -55.8746 H         1 UNK         0.0600 
    234 H234        1.7994  -20.2799  -55.8741 H         1 UNK         0.0600 
    235 H235       -2.0128  -20.7077  -54.2835 H         1 UNK         0.3000 
    236 H236       -0.7796  -19.6395  -51.7841 H         1 UNK         0.0600 
    237 H237       -2.8025  -21.8888  -52.2420 H         1 UNK         0.0600 
    238 H238       -1.1206  -22.0560  -51.7478 H         1 UNK         0.0600 
    239 H239       -2.2601  -21.3076  -50.6650 H         1 UNK         0.0600 
    240 H240       -4.1022  -20.2324  -53.0845 H         1 UNK         0.3000 
    241 H241       -4.8811  -17.5195  -52.8902 H         1 UNK         0.0600 
    242 H242       -5.3648  -20.4713  -54.3842 H         1 UNK         0.3800 
    243 H243       -6.9725  -20.1193  -54.9638 H         1 UNK         0.3800 
    244 H244       -4.9716  -17.7514  -50.4943 H         1 UNK         0.0800 
    245 H245       -6.5740  -17.5917  -51.0880 H         1 UNK         0.0800 
    246 H246       -3.9245  -20.1687  -49.6983 H         1 UNK         0.0800 
    247 H247       -4.9495  -21.1626  -48.7069 H         1 UNK         0.0800 
@<TRIPOS>BOND
     1    1    2 1    
     2    1  127 1    
     3    1  128 1    
     4    1  129 1    
     5    2    3 2    
     6    2    4 am   BACKBONE|DICT|INTERRES
     7    4    5 1    
     8    4  130 1    
     9    5    6 1    
    10    5   65 1    
    11    5  131 1    
    12    6    7 1    
    13    6  132 1    
    14    6  133 1    
    15    7    8 1    
    16    8    9 1    
    17    8  134 1    
    18    8  135 1    
    19    9   10 ar   
    20    9   14 ar   
    21   10   11 ar   
    22   10  136 1    
    23   11   12 ar   
    24   11  126 1    
    25   12   13 ar   
    26   12  137 1    
    27   13   14 ar   
    28   13   15 1    
    29   14  138 1    
    30   15   16 1    
    31   15  139 1    
    32   15  140 1    
    33   16   17 1    
    34   17   18 1    
    35   17  141 1    
    36   17  142 1    
    37   18   19 1    
    38   18   67 1    
    39   18  143 1    
    40   19   20 am   BACKBONE|DICT|INTERRES
    41   19  144 1    
    42   20   21 2    
    43   20   22 1    
    44   22   23 1    
    45   22   24 1    
    46   22  145 1    
    47   23  146 1    
    48   23  147 1    
    49   23  148 1    
    50   24   25 am   BACKBONE|DICT|INTERRES
    51   24  149 1    
    52   25   26 2    
    53   25   27 1    
    54   27   28 1    
    55   27   29 1    
    56   27  150 1    
    57   28  151 1    
    58   28  152 1    
    59   28  153 1    
    60   29   30 am   BACKBONE|DICT|INTERRES
    61   29  154 1    
    62   30   31 2    
    63   30   32 1    
    64   32   33 1    
    65   32   34 1    
    66   32  155 1    
    67   33  156 1    
    68   33  157 1    
    69   33  158 1    
    70   34   35 am   BACKBONE|DICT|INTERRES
    71   34  159 1    
    72   35   36 2    
    73   35   37 1    
    74   37   38 1    
    75   37   39 1    
    76   37  160 1    
    77   38  161 1    
    78   38  162 1    
    79   38  163 1    
    80   39   40 am   BACKBONE|DICT|INTERRES
    81   39  164 1    
    82   40   41 2    
    83   40   42 1    
    84   42   43 1    
    85   42   44 1    
    86   42  165 1    
    87   43  166 1    
    88   43  167 1    
    89   43  168 1    
    90   44   45 am   BACKBONE|DICT|INTERRES
    91   44  169 1    
    92   45   46 2    
    93   45   47 1    
    94   47   48 1    
    95   47   49 1    
    96   47  170 1    
    97   48  171 1    
    98   48  172 1    
    99   48  173 1    
   100   49   50 am   BACKBONE|DICT|INTERRES
   101   49  174 1    
   102   50   51 2    
   103   50   52 1    
   104   52   53 1    
   105   52   54 1    
   106   52  175 1    
   107   53  176 1    
   108   53  177 1    
   109   53  178 1    
   110   54   55 am   BACKBONE|DICT|INTERRES
   111   54  179 1    
   112   55   56 2    
   113   55   57 1    
   114   57   58 1    
   115   57   59 1    
   116   57  180 1    
   117   58  181 1    
   118   58  182 1    
   119   58  183 1    
   120   59   60 am   BACKBONE|DICT|INTERRES
   121   59  184 1    
   122   60   61 2    
   123   60   62 1    
   124   62   63 1    
   125   62   64 1    
   126   62  185 1    
   127   63  186 1    
   128   63  187 1    
   129   63  188 1    
   130   64   65 am   BACKBONE|DICT|INTERRES
   131   64  189 1    
   132   65   66 2    
   133   67   68 2    
   134   67   69 am   BACKBONE|DICT|INTERRES
   135   69   70 1    
   136   69  190 1    
   137   70   71 1    
   138   70   72 1    
   139   70  191 1    
   140   71  192 1    
   141   71  193 1    
   142   71  194 1    
   143   72   73 2    
   144   72   74 am   BACKBONE|DICT|INTERRES
   145   74   75 1    
   146   74  195 1    
   147   75   76 1    
   148   75   77 1    
   149   75  196 1    
   150   76  197 1    
   151   76  198 1    
   152   76  199 1    
   153   77   78 2    
   154   77   79 am   BACKBONE|DICT|INTERRES
   155   79   80 1    
   156   79  200 1    
   157   80   81 1    
   158   80   82 1    
   159   80  201 1    
   160   81  202 1    
   161   81  203 1    
   162   81  204 1    
   163   82   83 2    
   164   82   84 am   BACKBONE|DICT|INTERRES
   165   84   85 1    
   166   84  205 1    
   167   85   86 1    
   168   85   87 1    
   169   85  206 1    
   170   86  207 1    
   171   86  208 1    
   172   86  209 1    
   173   87   88 2    
   174   87   89 am   BACKBONE|DICT|INTERRES
   175   89   90 1    
   176   89  210 1    
   177   90   91 1    
   178   90   92 1    
   179   90  211 1    
   180   91  212 1    
   181   91  213 1    
   182   91  214 1    
   183   92   93 2    
   184   92   94 am   BACKBONE|DICT|INTERRES
   185   94   95 1    
   186   94  215 1    
   187   95   96 1    
   188   95   97 1    
   189   95  216 1    
   190   96  217 1    
   191   96  218 1    
   192   96  219 1    
   193   97   98 2    
   194   97   99 am   BACKBONE|DICT|INTERRES
   195   99  100 1    
   196   99  220 1    
   197  100  101 1    
   198  100  102 1    
   199  100  221 1    
   200  101  222 1    
   201  101  223 1    
   202  101  224 1    
   203  102  103 2    
   204  102  104 am   BACKBONE|DICT|INTERRES
   205  104  105 1    
   206  104  225 1    
   207  105  106 1    
   208  105  107 1    
   209  105  226 1    
   210  106  227 1    
   211  106  228 1    
   212  106  229 1    
   213  107  108 2    
   214  107  109 am   BACKBONE|DICT|INTERRES
   215  109  110 1    
   216  109  230 1    
   217  110  111 1    
   218  110  112 1    
   219  110  231 1    
   220  111  232 1    
   221  111  233 1    
   222  111  234 1    
   223  112  113 2    
   224  112  114 am   BACKBONE|DICT|INTERRES
   225  114  115 1    
   226  114  235 1    
   227  115  116 1    
   228  115  117 1    
   229  115  236 1    
   230  116  237 1    
   231  116  238 1    
   232  116  239 1    
   233  117  118 2    
   234  117  119 am   BACKBONE|DICT|INTERRES
   235  119  120 1    
   236  119  240 1    
   237  120  121 1    
   238  120  124 1    
   239  120  241 1    
   240  121  122 am   BACKBONE|DICT|INTERRES
   241  121  123 2    
   242  122  242 1    
   243  122  243 1    
   244  124  125 1    
   245  124  244 1    
   246  124  245 1    
   247  125  126 1    
   248  126  246 1    
   249  126  247 1    
@<TRIPOS>SUBSTRUCTURE
     1 UNK         1 GROUP             0       ****    0 ROOT    
