@<TRIPOS>MOLECULE
3R540
247   249    1
SMALL
USER_CHARGES


@<TRIPOS>ATOM
      1 CA         -6.8641  -14.8348  -46.7049 C.3       0 UNK        -0.1800 
      2 C          -5.3815  -15.1505  -46.5819 C.2       0 UNK         0.5000 
      3 O          -4.6396  -14.9765  -47.5462 O.2       0 UNK        -0.5000 
      4 N          -4.9414  -15.5962  -45.3984 N.am      1 UNK        -0.5000 
      5 CA         -3.5627  -16.0144  -45.1051 C.3       1 UNK         0.1400 
      6 C6         -3.4242  -16.6049  -43.6795 C.3       23 UNK        -0.0398 
      7 S7         -4.5786  -17.9804  -43.3597 S.3       23 UNK        -0.2404 
      8 C8         -3.5072  -19.4328  -43.5951 C.3       23 UNK        -0.0205 
      9 C9         -3.0977  -19.6152  -45.0491 C.ar      23 UNK        -0.0193 
     10 C10        -4.0404  -20.0354  -45.9913 C.ar      23 UNK        -0.1150 
     11 C11        -3.6928  -20.2002  -47.3351 C.ar      23 UNK        -0.0193 
     12 C12        -2.3744  -19.9318  -47.7259 C.ar      23 UNK        -0.1150 
     13 C13        -1.4209  -19.5098  -46.7970 C.ar      23 UNK        -0.0193 
     14 C14        -1.7844  -19.3649  -45.4555 C.ar      23 UNK        -0.1150 
     15 C15        -0.0134  -19.1694  -47.2616 C.3       23 UNK        -0.0205 
     16 S16         0.9045  -20.6250  -47.8563 S.3       23 UNK        -0.2404 
     17 C17         1.4365  -21.3534  -46.2777 C.3       23 UNK        -0.0398 
     18 CA          1.1172  -22.8590  -46.1353 C.3       11 UNK         0.1400 
     19 N           1.8358  -23.4286  -44.9938 N.am      11 UNK        -0.5000 
     20 C           1.9822  -24.7355  -44.7406 C.2       10 UNK         0.5000 
     21 O           1.5696  -25.6273  -45.4795 O.2       10 UNK        -0.5000 
     22 CA          2.6668  -25.0998  -43.4097 C.3       10 UNK         0.1400 
     23 CB          4.1937  -25.1159  -43.5741 C.3       10 UNK        -0.1800 
     24 N           2.3052  -24.1795  -42.3285 N.am      10 UNK        -0.5000 
     25 C           1.0763  -24.0811  -41.8005 C.2       9 UNK         0.5000 
     26 O           0.1387  -24.8072  -42.1254 O.2       9 UNK        -0.5000 
     27 CA          0.8433  -22.9480  -40.7825 C.3       9 UNK         0.1400 
     28 CB          1.1674  -23.4251  -39.3593 C.3       9 UNK        -0.1800 
     29 N           1.6242  -21.7443  -41.0838 N.am      9 UNK        -0.5000 
     30 C           1.4505  -20.9833  -42.1724 C.2       8 UNK         0.5000 
     31 O           0.5879  -21.2023  -43.0256 O.2       8 UNK        -0.5000 
     32 CA          2.4766  -19.8556  -42.3782 C.3       8 UNK         0.1400 
     33 CB          3.7541  -20.4161  -43.0243 C.3       8 UNK        -0.1800 
     34 N           1.9761  -18.7684  -43.2183 N.am      8 UNK        -0.5000 
     35 C           1.0962  -17.8382  -42.8296 C.2       7 UNK         0.5000 
     36 O           0.5352  -17.8640  -41.7331 O.2       7 UNK        -0.5000 
     37 CA          0.7797  -16.6791  -43.8077 C.3       7 UNK         0.1400 
     38 CB          0.8114  -15.3115  -43.0967 C.3       7 UNK        -0.1800 
     39 N           1.5706  -16.6122  -45.0460 N.am      7 UNK        -0.5000 
     40 C           2.9008  -16.5035  -45.1850 C.2       6 UNK         0.5000 
     41 O           3.7016  -16.5350  -44.2512 O.2       6 UNK        -0.5000 
     42 CA          3.4230  -16.3244  -46.6222 C.3       6 UNK         0.1400 
     43 CB          3.5851  -17.6785  -47.3287 C.3       6 UNK        -0.1800 
     44 N           2.5807  -15.4450  -47.4360 N.am      6 UNK        -0.5000 
     45 C           2.4725  -14.1248  -47.2466 C.2       5 UNK         0.5000 
     46 O           3.0299  -13.5218  -46.3285 O.2       5 UNK        -0.5000 
     47 CA          1.6326  -13.3255  -48.2564 C.3       5 UNK         0.1400 
     48 CB          2.4347  -13.0348  -49.5393 C.3       5 UNK        -0.1800 
     49 N           0.3130  -13.8831  -48.5687 N.am      5 UNK        -0.5000 
     50 C          -0.0187  -14.9814  -49.2638 C.2       4 UNK         0.5000 
     51 O           0.8002  -15.8222  -49.6365 O.2       4 UNK        -0.5000 
     52 CA         -1.5136  -15.1694  -49.6193 C.3       4 UNK         0.1400 
     53 CB         -2.0533  -16.5176  -49.1196 C.3       4 UNK        -0.1800 
     54 N          -2.3762  -14.1068  -49.1014 N.am      4 UNK        -0.5000 
     55 C          -2.4888  -12.8663  -49.5953 C.2       3 UNK         0.5000 
     56 O          -1.9494  -12.4919  -50.6360 O.2       3 UNK        -0.5000 
     57 CA         -3.2817  -11.8600  -48.7383 C.3       3 UNK         0.1400 
     58 CB         -4.7611  -11.8171  -49.1466 C.3       3 UNK        -0.1800 
     59 N          -3.1794  -12.1529  -47.3053 N.am      3 UNK        -0.5000 
     60 C          -2.0706  -11.9746  -46.5724 C.2       2 UNK         0.5000 
     61 O          -1.0299  -11.4958  -47.0213 O.2       2 UNK        -0.5000 
     62 CA         -2.1178  -12.4421  -45.1067 C.3       2 UNK         0.1400 
     63 CB         -2.6694  -11.3309  -44.2014 C.3       2 UNK        -0.1800 
     64 N          -2.9215  -13.6520  -44.9311 N.am      2 UNK        -0.5000 
     65 C          -2.5369  -14.8794  -45.3102 C.2       1 UNK         0.5000 
     66 O          -1.4443  -15.1284  -45.8201 O.2       1 UNK        -0.5000 
     67 C          -0.3956  -23.1462  -46.0281 C.2       11 UNK         0.5000 
     68 O          -1.0054  -23.5813  -47.0058 O.2       11 UNK        -0.5000 
     69 N          -0.9505  -22.9748  -44.8189 N.am      12 UNK        -0.5000 
     70 CA         -2.3323  -23.3127  -44.4776 C.3       12 UNK         0.1400 
     71 CB         -2.6238  -22.8631  -43.0373 C.3       12 UNK        -0.1800 
     72 C          -2.6364  -24.8142  -44.6457 C.2       12 UNK         0.5000 
     73 O          -3.6878  -25.1626  -45.1825 O.2       12 UNK        -0.5000 
     74 N          -1.7023  -25.6693  -44.2035 N.am      13 UNK        -0.5000 
     75 CA         -1.7715  -27.1255  -44.3298 C.3       13 UNK         0.1400 
     76 CB         -0.6791  -27.7699  -43.4631 C.3       13 UNK        -0.1800 
     77 C          -1.6660  -27.6076  -45.7883 C.2       13 UNK         0.5000 
     78 O          -2.3970  -28.5205  -46.1751 O.2       13 UNK        -0.5000 
     79 N          -0.7769  -26.9815  -46.5739 N.am      14 UNK        -0.5000 
     80 CA         -0.6264  -27.2214  -48.0116 C.3       14 UNK         0.1400 
     81 CB          0.6466  -26.5262  -48.5185 C.3       14 UNK        -0.1800 
     82 C          -1.8514  -26.7566  -48.8211 C.2       14 UNK         0.5000 
     83 O          -2.2036  -27.4011  -49.8097 O.2       14 UNK        -0.5000 
     84 N          -2.4754  -25.6592  -48.3690 N.am      15 UNK        -0.5000 
     85 CA         -3.6778  -25.0239  -48.9113 C.3       15 UNK         0.1400 
     86 CB         -4.9040  -25.9481  -48.7630 C.3       15 UNK        -0.1800 
     87 C          -3.4833  -24.4892  -50.3444 C.2       15 UNK         0.5000 
     88 O          -4.4155  -24.5209  -51.1505 O.2       15 UNK        -0.5000 
     89 N          -2.2770  -23.9842  -50.6242 N.am      16 UNK        -0.5000 
     90 CA         -1.9096  -23.2958  -51.8536 C.3       16 UNK         0.1400 
     91 CB         -1.6848  -24.3017  -52.9973 C.3       16 UNK        -0.1800 
     92 C          -0.6399  -22.4819  -51.5818 C.2       16 UNK         0.5000 
     93 O           0.3065  -23.0188  -51.0018 O.2       16 UNK        -0.5000 
     94 N          -0.6355  -21.2215  -52.0253 N.am      17 UNK        -0.5000 
     95 CA          0.5071  -20.3079  -51.9594 C.3       17 UNK         0.1400 
     96 CB          0.0746  -19.0598  -51.1763 C.3       17 UNK        -0.1800 
     97 C           0.9859  -19.8948  -53.3640 C.2       17 UNK         0.5000 
     98 O           1.9871  -19.1858  -53.4697 O.2       17 UNK        -0.5000 
     99 N           0.2424  -20.3041  -54.4060 N.am      18 UNK        -0.5000 
    100 CA         0.3181  -19.8300  -55.7932 C.3       18 UNK         0.1400 
    101 CB         1.6655  -20.2028  -56.4471 C.3       18 UNK        -0.1800 
    102 C         -0.0280  -18.3280  -55.9074 C.2       18 UNK         0.5000 
    103 O          0.5526  -17.6143  -56.7277 O.2       18 UNK        -0.5000 
    104 N         -0.9701  -17.8829  -55.0676 N.am      19 UNK        -0.5000 
    105 CA        -1.4801  -16.5187  -54.9912 C.3       19 UNK         0.1400 
    106 CB        -1.3688  -16.0508  -53.5286 C.3       19 UNK        -0.1800 
    107 C         -2.9482  -16.4951  -55.4426 C.2       19 UNK         0.5000 
    108 O         -3.5870  -17.5452  -55.5337 O.2       19 UNK        -0.5000 
    109 N         -3.4887  -15.2898  -55.6599 N.am      20 UNK        -0.5000 
    110 CA        -4.9107  -15.0764  -55.9537 C.3       20 UNK         0.1400 
    111 CB        -5.1244  -13.6161  -56.3804 C.3       20 UNK        -0.1800 
    112 C         -5.8294  -15.4337  -54.7658 C.2       20 UNK         0.5000 
    113 O         -6.9720  -15.8408  -54.9776 O.2       20 UNK        -0.5000 
    114 N         -5.3046  -15.2839  -53.5421 N.am      21 UNK        -0.5000 
    115 CA        -5.9919  -15.5956  -52.2902 C.3       21 UNK         0.1400 
    116 CB        -5.3842  -14.7304  -51.1773 C.3       21 UNK        -0.1800 
    117 C         -5.9130  -17.0832  -51.8979 C.2       21 UNK         0.5000 
    118 O         -6.7165  -17.5212  -51.0737 O.2       21 UNK        -0.5000 
    119 N         -4.9514  -17.8303  -52.4562 N.am      22 UNK        -0.5000 
    120 CA        -4.6870  -19.2297  -52.1104 C.3       22 UNK         0.1400 
    121 C         -3.8653  -19.9066  -53.2367 C.2       22 UNK         0.5000 
    122 N         -4.4807  -20.7531  -54.0488 N.am      22 UNK        -0.7600 
    123 O         -2.6596  -19.6955  -53.3599 O.2       22 UNK        -0.5000 
    124 C124       -4.0065  -19.3660  -50.7205 C.3       23 UNK        -0.0398 
    125 S125       -4.2375  -21.0291  -50.0116 S.3       23 UNK        -0.2404 
    126 C126       -4.7819  -20.6594  -48.3082 C.3       23 UNK        -0.0205 
    127 H127       -7.4002  -15.0358  -45.7772 H         1 UNK         0.0600 
    128 H128       -7.3090  -15.4401  -47.4946 H         1 UNK         0.0600 
    129 H129       -7.0032  -13.7844  -46.9603 H         1 UNK         0.0600 
    130 H130       -5.6026  -15.7354  -44.6474 H         1 UNK         0.3000 
    131 H131       -3.3121  -16.7984  -45.8226 H         1 UNK         0.0600 
    132 H132       -3.6151  -15.8355  -42.9292 H         1 UNK         0.0800 
    133 H133       -2.4079  -16.9525  -43.4973 H         1 UNK         0.0800 
    134 H134       -2.6328  -19.3562  -42.9465 H         1 UNK         0.0800 
    135 H135       -4.0573  -20.3154  -43.2679 H         1 UNK         0.0800 
    136 H136       -5.0556  -20.2289  -45.6738 H         1 UNK         0.1150 
    137 H137       -2.0677  -20.0475  -48.7531 H         1 UNK         0.1150 
    138 H138       -1.0503  -19.0498  -44.7290 H         1 UNK         0.1150 
    139 H139       -0.0667  -18.4341  -48.0634 H         1 UNK         0.0800 
    140 H140        0.5484  -18.6933  -46.4600 H         1 UNK         0.0800 
    141 H141        1.0081  -20.7878  -45.4520 H         1 UNK         0.0800 
    142 H142        2.5145  -21.2008  -46.2170 H         1 UNK         0.0800 
    143 H143        1.4823  -23.3653  -47.0317 H         1 UNK         0.0600 
    144 H144        2.1598  -22.7744  -44.2991 H         1 UNK         0.3000 
    145 H145        2.3415  -26.1036  -43.1289 H         1 UNK         0.0600 
    146 H146        4.6853  -25.4408  -42.6570 H         1 UNK         0.0600 
    147 H147        4.4931  -25.8061  -44.3640 H         1 UNK         0.0600 
    148 H148        4.5834  -24.1307  -43.8336 H         1 UNK         0.0600 
    149 H149        3.0271  -23.5599  -41.9925 H         1 UNK         0.3000 
    150 H150       -0.2151  -22.6817  -40.8209 H         1 UNK         0.0600 
    151 H151        2.2211  -23.6849  -39.2501 H         1 UNK         0.0600 
    152 H152        0.5827  -24.3094  -39.1021 H         1 UNK         0.0600 
    153 H153        0.9322  -22.6566  -38.6227 H         1 UNK         0.0600 
    154 H154        2.3575  -21.5089  -40.4303 H         1 UNK         0.3000 
    155 H155        2.7341  -19.4413  -41.4010 H         1 UNK         0.0600 
    156 H156        3.5598  -20.8351  -44.0115 H         1 UNK         0.0600 
    157 H157        4.1948  -21.2046  -42.4131 H         1 UNK         0.0600 
    158 H158        4.5100  -19.6381  -43.1365 H         1 UNK         0.0600 
    159 H159        2.4029  -18.6640  -44.1252 H         1 UNK         0.3000 
    160 H160       -0.2426  -16.8526  -44.1364 H         1 UNK         0.0600 
    161 H161        1.8042  -15.0847  -42.7070 H         1 UNK         0.0600 
    162 H162        0.1140  -15.2833  -42.2588 H         1 UNK         0.0600 
    163 H163        0.5278  -14.5086  -43.7774 H         1 UNK         0.0600 
    164 H164        1.0205  -16.5233  -45.8888 H         1 UNK         0.3000 
    165 H165        4.4131  -15.8689  -46.5502 H         1 UNK         0.0600 
    166 H166        4.1141  -17.5640  -48.2749 H         1 UNK         0.0600 
    167 H167        4.1591  -18.3775  -46.7188 H         1 UNK         0.0600 
    168 H168        2.6234  -18.1397  -47.5446 H         1 UNK         0.0600 
    169 H169        2.0879  -15.8493  -48.2282 H         1 UNK         0.3000 
    170 H170        1.4291  -12.3625  -47.7862 H         1 UNK         0.0600 
    171 H171        3.3685  -12.5219  -49.3057 H         1 UNK         0.0600 
    172 H172        2.6920  -13.9478  -50.0769 H         1 UNK         0.0600 
    173 H173        1.8725  -12.3930  -50.2177 H         1 UNK         0.0600 
    174 H174       -0.4540  -13.3018  -48.2579 H         1 UNK         0.3000 
    175 H175       -1.5841  -15.1625  -50.7080 H         1 UNK         0.0600 
    176 H176       -1.9482  -16.6202  -48.0397 H         1 UNK         0.0600 
    177 H177       -3.1091  -16.6350  -49.3633 H         1 UNK         0.0600 
    178 H178       -1.5225  -17.3455  -49.5846 H         1 UNK         0.0600 
    179 H179       -2.9401  -14.3479  -48.2915 H         1 UNK         0.3000 
    180 H180       -2.8554  -10.8703  -48.9161 H         1 UNK         0.0600 
    181 H181       -5.2588  -12.7700  -48.9682 H         1 UNK         0.0600 
    182 H182       -4.8658  -11.5818  -50.2063 H         1 UNK         0.0600 
    183 H183       -5.3002  -11.0501  -48.5903 H         1 UNK         0.0600 
    184 H184       -3.9778  -12.5976  -46.8773 H         1 UNK         0.3000 
    185 H185       -1.0939  -12.6588  -44.7939 H         1 UNK         0.0600 
    186 H186       -2.0761  -10.4204  -44.2963 H         1 UNK         0.0600 
    187 H187       -3.7003  -11.0787  -44.4528 H         1 UNK         0.0600 
    188 H188       -2.6418  -11.6273  -43.1527 H         1 UNK         0.0600 
    189 H189       -3.8401  -13.5364  -44.5284 H         1 UNK         0.3000 
    190 H190       -0.3881  -22.5624  -44.0814 H         1 UNK         0.3000 
    191 H191       -2.9808  -22.7528  -45.1546 H         1 UNK         0.0600 
    192 H192       -2.2635  -21.8520  -42.8540 H         1 UNK         0.0600 
    193 H193       -3.6958  -22.8764  -42.8383 H         1 UNK         0.0600 
    194 H194       -2.1503  -23.5135  -42.3025 H         1 UNK         0.0600 
    195 H195       -0.9029  -25.2955  -43.7008 H         1 UNK         0.3000 
    196 H196       -2.7411  -27.4472  -43.9441 H         1 UNK         0.0600 
    197 H197       -0.7284  -28.8581  -43.5177 H         1 UNK         0.0600 
    198 H198       -0.7919  -27.4913  -42.4152 H         1 UNK         0.0600 
    199 H199        0.3187  -27.4699  -43.7834 H         1 UNK         0.0600 
    200 H200       -0.1565  -26.2914  -46.1617 H         1 UNK         0.3000 
    201 H201       -0.5127  -28.2964  -48.1658 H         1 UNK         0.0600 
    202 H202        0.7878  -26.6985  -49.5863 H         1 UNK         0.0600 
    203 H203        1.5322  -26.9043  -48.0078 H         1 UNK         0.0600 
    204 H204        0.6058  -25.4474  -48.3635 H         1 UNK         0.0600 
    205 H205       -2.0412  -25.1588  -47.5990 H         1 UNK         0.3000 
    206 H206       -3.8546  -24.1460  -48.2876 H         1 UNK         0.0600 
    207 H207       -5.0122  -26.2933  -47.7345 H         1 UNK         0.0600 
    208 H208       -5.8227  -25.4232  -49.0268 H         1 UNK         0.0600 
    209 H209       -4.8316  -26.8252  -49.4066 H         1 UNK         0.0600 
    210 H210       -1.5631  -23.9844  -49.9059 H         1 UNK         0.3000 
    211 H211       -2.7167  -22.6153  -52.1319 H         1 UNK         0.0600 
    212 H212       -0.9161  -25.0322  -52.7421 H         1 UNK         0.0600 
    213 H213       -1.3673  -23.7923  -53.9078 H         1 UNK         0.0600 
    214 H214       -2.5982  -24.8471  -53.2341 H         1 UNK         0.0600 
    215 H215       -1.4684  -20.8349  -52.4623 H         1 UNK         0.3000 
    216 H216        1.3497  -20.7712  -51.4423 H         1 UNK         0.0600 
    217 H217        0.9214  -18.3996  -50.9844 H         1 UNK         0.0600 
    218 H218       -0.3489  -19.3362  -50.2141 H         1 UNK         0.0600 
    219 H219       -0.6765  -18.4836  -51.7171 H         1 UNK         0.0600 
    220 H220       -0.5596  -20.8793  -54.1951 H         1 UNK         0.3000 
    221 H221       -0.4654  -20.3598  -56.3367 H         1 UNK         0.0600 
    222 H222        2.4969  -19.6431  -56.0183 H         1 UNK         0.0600 
    223 H223        1.8797  -21.2651  -56.3307 H         1 UNK         0.0600 
    224 H224        1.6498  -19.9908  -57.5167 H         1 UNK         0.0600 
    225 H225       -1.4636  -18.5581  -54.4908 H         1 UNK         0.3000 
    226 H226       -0.9042  -15.8477  -55.6316 H         1 UNK         0.0600 
    227 H227       -0.3392  -16.1111  -53.1744 H         1 UNK         0.0600 
    228 H228       -1.6866  -15.0135  -53.4170 H         1 UNK         0.0600 
    229 H229       -1.9833  -16.6583  -52.8624 H         1 UNK         0.0600 
    230 H230       -2.9127  -14.4639  -55.5796 H         1 UNK         0.3000 
    231 H231       -5.1873  -15.7210  -56.7909 H         1 UNK         0.0600 
    232 H232       -4.8476  -12.9196  -55.5880 H         1 UNK         0.0600 
    233 H233       -6.1703  -13.4313  -56.6291 H         1 UNK         0.0600 
    234 H234       -4.5341  -13.3727  -57.2640 H         1 UNK         0.0600 
    235 H235       -4.3650  -14.9251  -53.4660 H         1 UNK         0.3000 
    236 H236       -7.0479  -15.3339  -52.3866 H         1 UNK         0.0600 
    237 H237       -5.4849  -13.6700  -51.4069 H         1 UNK         0.0600 
    238 H238       -5.8828  -14.9068  -50.2231 H         1 UNK         0.0600 
    239 H239       -4.3251  -14.9465  -51.0365 H         1 UNK         0.0600 
    240 H240       -4.3721  -17.4439  -53.1885 H         1 UNK         0.3000 
    241 H241       -5.6566  -19.7306  -52.0631 H         1 UNK         0.0600 
    242 H242       -3.9582  -21.1881  -54.7915 H         1 UNK         0.3800 
    243 H243       -5.4669  -20.9432  -53.9640 H         1 UNK         0.3800 
    244 H244       -2.9422  -19.1363  -50.7742 H         1 UNK         0.0800 
    245 H245       -4.4251  -18.6431  -50.0201 H         1 UNK         0.0800 
    246 H246       -5.5751  -19.9110  -48.3397 H         1 UNK         0.0800 
    247 H247       -5.2344  -21.5675  -47.9075 H         1 UNK         0.0800 
@<TRIPOS>BOND
     1    1    2 1    
     2    1  127 1    
     3    1  128 1    
     4    1  129 1    
     5    2    3 2    
     6    2    4 am   BACKBONE|DICT|INTERRES
     7    4    5 1    
     8    4  130 1    
     9    5    6 1    
    10    5   65 1    
    11    5  131 1    
    12    6    7 1    
    13    6  132 1    
    14    6  133 1    
    15    7    8 1    
    16    8    9 1    
    17    8  134 1    
    18    8  135 1    
    19    9   10 ar   
    20    9   14 ar   
    21   10   11 ar   
    22   10  136 1    
    23   11   12 ar   
    24   11  126 1    
    25   12   13 ar   
    26   12  137 1    
    27   13   14 ar   
    28   13   15 1    
    29   14  138 1    
    30   15   16 1    
    31   15  139 1    
    32   15  140 1    
    33   16   17 1    
    34   17   18 1    
    35   17  141 1    
    36   17  142 1    
    37   18   19 1    
    38   18   67 1    
    39   18  143 1    
    40   19   20 am   BACKBONE|DICT|INTERRES
    41   19  144 1    
    42   20   21 2    
    43   20   22 1    
    44   22   23 1    
    45   22   24 1    
    46   22  145 1    
    47   23  146 1    
    48   23  147 1    
    49   23  148 1    
    50   24   25 am   BACKBONE|DICT|INTERRES
    51   24  149 1    
    52   25   26 2    
    53   25   27 1    
    54   27   28 1    
    55   27   29 1    
    56   27  150 1    
    57   28  151 1    
    58   28  152 1    
    59   28  153 1    
    60   29   30 am   BACKBONE|DICT|INTERRES
    61   29  154 1    
    62   30   31 2    
    63   30   32 1    
    64   32   33 1    
    65   32   34 1    
    66   32  155 1    
    67   33  156 1    
    68   33  157 1    
    69   33  158 1    
    70   34   35 am   BACKBONE|DICT|INTERRES
    71   34  159 1    
    72   35   36 2    
    73   35   37 1    
    74   37   38 1    
    75   37   39 1    
    76   37  160 1    
    77   38  161 1    
    78   38  162 1    
    79   38  163 1    
    80   39   40 am   BACKBONE|DICT|INTERRES
    81   39  164 1    
    82   40   41 2    
    83   40   42 1    
    84   42   43 1    
    85   42   44 1    
    86   42  165 1    
    87   43  166 1    
    88   43  167 1    
    89   43  168 1    
    90   44   45 am   BACKBONE|DICT|INTERRES
    91   44  169 1    
    92   45   46 2    
    93   45   47 1    
    94   47   48 1    
    95   47   49 1    
    96   47  170 1    
    97   48  171 1    
    98   48  172 1    
    99   48  173 1    
   100   49   50 am   BACKBONE|DICT|INTERRES
   101   49  174 1    
   102   50   51 2    
   103   50   52 1    
   104   52   53 1    
   105   52   54 1    
   106   52  175 1    
   107   53  176 1    
   108   53  177 1    
   109   53  178 1    
   110   54   55 am   BACKBONE|DICT|INTERRES
   111   54  179 1    
   112   55   56 2    
   113   55   57 1    
   114   57   58 1    
   115   57   59 1    
   116   57  180 1    
   117   58  181 1    
   118   58  182 1    
   119   58  183 1    
   120   59   60 am   BACKBONE|DICT|INTERRES
   121   59  184 1    
   122   60   61 2    
   123   60   62 1    
   124   62   63 1    
   125   62   64 1    
   126   62  185 1    
   127   63  186 1    
   128   63  187 1    
   129   63  188 1    
   130   64   65 am   BACKBONE|DICT|INTERRES
   131   64  189 1    
   132   65   66 2    
   133   67   68 2    
   134   67   69 am   BACKBONE|DICT|INTERRES
   135   69   70 1    
   136   69  190 1    
   137   70   71 1    
   138   70   72 1    
   139   70  191 1    
   140   71  192 1    
   141   71  193 1    
   142   71  194 1    
   143   72   73 2    
   144   72   74 am   BACKBONE|DICT|INTERRES
   145   74   75 1    
   146   74  195 1    
   147   75   76 1    
   148   75   77 1    
   149   75  196 1    
   150   76  197 1    
   151   76  198 1    
   152   76  199 1    
   153   77   78 2    
   154   77   79 am   BACKBONE|DICT|INTERRES
   155   79   80 1    
   156   79  200 1    
   157   80   81 1    
   158   80   82 1    
   159   80  201 1    
   160   81  202 1    
   161   81  203 1    
   162   81  204 1    
   163   82   83 2    
   164   82   84 am   BACKBONE|DICT|INTERRES
   165   84   85 1    
   166   84  205 1    
   167   85   86 1    
   168   85   87 1    
   169   85  206 1    
   170   86  207 1    
   171   86  208 1    
   172   86  209 1    
   173   87   88 2    
   174   87   89 am   BACKBONE|DICT|INTERRES
   175   89   90 1    
   176   89  210 1    
   177   90   91 1    
   178   90   92 1    
   179   90  211 1    
   180   91  212 1    
   181   91  213 1    
   182   91  214 1    
   183   92   93 2    
   184   92   94 am   BACKBONE|DICT|INTERRES
   185   94   95 1    
   186   94  215 1    
   187   95   96 1    
   188   95   97 1    
   189   95  216 1    
   190   96  217 1    
   191   96  218 1    
   192   96  219 1    
   193   97   98 2    
   194   97   99 am   BACKBONE|DICT|INTERRES
   195   99  100 1    
   196   99  220 1    
   197  100  101 1    
   198  100  102 1    
   199  100  221 1    
   200  101  222 1    
   201  101  223 1    
   202  101  224 1    
   203  102  103 2    
   204  102  104 am   BACKBONE|DICT|INTERRES
   205  104  105 1    
   206  104  225 1    
   207  105  106 1    
   208  105  107 1    
   209  105  226 1    
   210  106  227 1    
   211  106  228 1    
   212  106  229 1    
   213  107  108 2    
   214  107  109 am   BACKBONE|DICT|INTERRES
   215  109  110 1    
   216  109  230 1    
   217  110  111 1    
   218  110  112 1    
   219  110  231 1    
   220  111  232 1    
   221  111  233 1    
   222  111  234 1    
   223  112  113 2    
   224  112  114 am   BACKBONE|DICT|INTERRES
   225  114  115 1    
   226  114  235 1    
   227  115  116 1    
   228  115  117 1    
   229  115  236 1    
   230  116  237 1    
   231  116  238 1    
   232  116  239 1    
   233  117  118 2    
   234  117  119 am   BACKBONE|DICT|INTERRES
   235  119  120 1    
   236  119  240 1    
   237  120  121 1    
   238  120  124 1    
   239  120  241 1    
   240  121  122 am   BACKBONE|DICT|INTERRES
   241  121  123 2    
   242  122  242 1    
   243  122  243 1    
   244  124  125 1    
   245  124  244 1    
   246  124  245 1    
   247  125  126 1    
   248  126  246 1    
   249  126  247 1    
@<TRIPOS>SUBSTRUCTURE
     1 UNK         1 GROUP             0       ****    0 ROOT    
