@<TRIPOS>MOLECULE
3R540
247   249    1
SMALL
USER_CHARGES


@<TRIPOS>ATOM
      1 CA         -1.8766  -12.8609  -47.4173 C.3       0 UNK        -0.1800 
      2 C          -0.4317  -12.7150  -47.8722 C.2       0 UNK         0.5000 
      3 O          -0.0924  -11.7333  -48.5338 O.2       0 UNK        -0.5000 
      4 N           0.4252  -13.6757  -47.5069 N.am      1 UNK        -0.5000 
      5 CA          1.8604  -13.6802  -47.7945 C.3       1 UNK         0.1400 
      6 C6          2.4610  -15.0889  -47.5828 C.3       23 UNK        -0.0398 
      7 S7          4.2278  -15.2151  -48.0281 S.3       23 UNK        -0.2404 
      8 C8          4.1523  -15.5282  -49.8207 C.3       23 UNK        -0.0205 
      9 C9          3.4358  -16.8273  -50.1565 C.ar      23 UNK        -0.0193 
     10 C10         2.2212  -16.8030  -50.8476 C.ar      23 UNK        -0.1150 
     11 C11         1.5622  -17.9939  -51.1621 C.ar      23 UNK        -0.0193 
     12 C12         2.1240  -19.2150  -50.7798 C.ar      23 UNK        -0.1150 
     13 C13         3.3344  -19.2515  -50.0820 C.ar      23 UNK        -0.0193 
     14 C14         3.9887  -18.0543  -49.7794 C.ar      23 UNK        -0.1150 
     15 C15         3.9405  -20.5795  -49.6562 C.3       23 UNK        -0.0205 
     16 S16         3.2957  -21.1209  -48.0425 S.3       23 UNK        -0.2404 
     17 C17         1.6581  -21.7721  -48.5121 C.3       23 UNK        -0.0398 
     18 CA          1.1665  -22.8567  -47.5270 C.3       11 UNK         0.1400 
     19 N           0.9038  -22.3190  -46.1899 N.am      11 UNK        -0.5000 
     20 C           0.9122  -23.0486  -45.0664 C.2       10 UNK         0.5000 
     21 O           1.2363  -24.2355  -45.0259 O.2       10 UNK        -0.5000 
     22 CA          0.4482  -22.3489  -43.7731 C.3       10 UNK         0.1400 
     23 CB          1.6346  -21.6867  -43.0571 C.3       10 UNK        -0.1800 
     24 N          -0.6021  -21.3544  -44.0019 N.am      10 UNK        -0.5000 
     25 C          -1.8230  -21.6365  -44.4781 C.2       9 UNK         0.5000 
     26 O          -2.2114  -22.7802  -44.7122 O.2       9 UNK        -0.5000 
     27 CA         -2.7493  -20.4466  -44.7900 C.3       9 UNK         0.1400 
     28 CB         -3.5809  -20.0736  -43.5550 C.3       9 UNK        -0.1800 
     29 N          -2.0384  -19.2668  -45.2857 N.am      9 UNK        -0.5000 
     30 C          -1.3206  -19.2205  -46.4180 C.2       8 UNK         0.5000 
     31 O          -1.1589  -20.1869  -47.1644 O.2       8 UNK        -0.5000 
     32 CA         -0.6106  -17.8891  -46.7301 C.3       8 UNK         0.1400 
     33 CB         -1.5917  -16.8482  -47.2866 C.3       8 UNK        -0.1800 
     34 N           0.0683  -17.3446  -45.5531 N.am      8 UNK        -0.5000 
     35 C           1.1346  -17.9164  -44.9749 C.2       7 UNK         0.5000 
     36 O           1.7209  -18.8934  -45.4382 O.2       7 UNK        -0.5000 
     37 CA          1.5869  -17.3344  -43.6237 C.3       7 UNK         0.1400 
     38 CB          2.5684  -16.1696  -43.8129 C.3       7 UNK        -0.1800 
     39 N           0.4562  -16.8923  -42.8071 N.am      7 UNK        -0.5000 
     40 C          -0.3990  -17.7257  -42.1981 C.2       6 UNK         0.5000 
     41 O          -0.3078  -18.9517  -42.2488 O.2       6 UNK        -0.5000 
     42 CA         -1.5702  -17.0829  -41.4314 C.3       6 UNK         0.1400 
     43 CB         -1.1439  -16.7239  -40.0003 C.3       6 UNK        -0.1800 
     44 N          -2.1009  -15.8886  -42.0910 N.am      6 UNK        -0.5000 
     45 C          -2.7009  -15.8816  -43.2900 C.2       5 UNK         0.5000 
     46 O          -2.8899  -16.8920  -43.9634 O.2       5 UNK        -0.5000 
     47 CA         -3.1081  -14.5096  -43.8571 C.3       5 UNK         0.1400 
     48 CB         -4.5343  -14.1441  -43.4224 C.3       5 UNK        -0.1800 
     49 N          -2.1891  -13.4362  -43.4702 N.am      5 UNK        -0.5000 
     50 C          -0.8982  -13.3814  -43.8204 C.2       4 UNK         0.5000 
     51 O          -0.3533  -14.2160  -44.5488 O.2       4 UNK        -0.5000 
     52 CA         -0.0911  -12.2059  -43.2504 C.3       4 UNK         0.1400 
     53 CB          1.2029  -12.6842  -42.5729 C.3       4 UNK        -0.1800 
     54 N           0.2249  -11.2682  -44.3235 N.am      4 UNK        -0.5000 
     55 C          -0.5461  -10.2225  -44.6576 C.2       3 UNK         0.5000 
     56 O          -1.5776   -9.9341  -44.0488 O.2       3 UNK        -0.5000 
     57 CA         -0.1508   -9.3698  -45.8844 C.3       3 UNK         0.1400 
     58 CB         -0.1894   -7.8572  -45.5828 C.3       3 UNK        -0.1800 
     59 N           1.1090   -9.7622  -46.5241 N.am      3 UNK        -0.5000 
     60 C           2.3641   -9.6137  -46.0705 C.2       2 UNK         0.5000 
     61 O           2.6568   -9.0314  -45.0255 O.2       2 UNK        -0.5000 
     62 CA          3.4669  -10.2759  -46.9313 C.3       2 UNK         0.1400 
     63 CB          4.7822  -10.5051  -46.1575 C.3       2 UNK        -0.1800 
     64 N           3.0073  -11.5219  -47.5632 N.am      2 UNK        -0.5000 
     65 C           2.5299  -12.6007  -46.9239 C.2       1 UNK         0.5000 
     66 O           2.5169  -12.7222  -45.6993 O.2       1 UNK        -0.5000 
     67 C          -0.0769  -23.5849  -48.0766 C.2       11 UNK         0.5000 
     68 O           0.0644  -24.6512  -48.6768 O.2       11 UNK        -0.5000 
     69 N          -1.2720  -23.0215  -47.8374 N.am      12 UNK        -0.5000 
     70 CA         -2.5655  -23.5874  -48.2352 C.3       12 UNK         0.1400 
     71 CB         -3.6962  -22.6257  -47.8439 C.3       12 UNK        -0.1800 
     72 C          -2.8455  -24.9722  -47.6241 C.2       12 UNK         0.5000 
     73 O          -3.4697  -25.8044  -48.2787 O.2       12 UNK        -0.5000 
     74 N          -2.3579  -25.2007  -46.3964 N.am      13 UNK        -0.5000 
     75 CA         -2.5175  -26.4240  -45.6041 C.3       13 UNK         0.1400 
     76 CB         -1.8120  -26.2300  -44.2528 C.3       13 UNK        -0.1800 
     77 C          -2.0336  -27.7258  -46.2789 C.2       13 UNK         0.5000 
     78 O          -2.4551  -28.8051  -45.8607 O.2       13 UNK        -0.5000 
     79 N          -1.1806  -27.6165  -47.3082 N.am      14 UNK        -0.5000 
     80 CA         -0.7373  -28.7331  -48.1453 C.3       14 UNK         0.1400 
     81 CB          0.3915  -28.2458  -49.0666 C.3       14 UNK        -0.1800 
     82 C          -1.8755  -29.3639  -48.9765 C.2       14 UNK         0.5000 
     83 O          -1.8590  -30.5767  -49.1870 O.2       14 UNK        -0.5000 
     84 N          -2.8292  -28.5276  -49.4104 N.am      15 UNK        -0.5000 
     85 CA         -4.0380  -28.8083  -50.1951 C.3       15 UNK         0.1400 
     86 CB         -3.8131  -29.8181  -51.3433 C.3       15 UNK        -0.1800 
     87 C          -4.5253  -27.4735  -50.7763 C.2       15 UNK         0.5000 
     88 O          -5.6772  -27.0903  -50.5709 O.2       15 UNK        -0.5000 
     89 N          -3.5986  -26.7820  -51.4474 N.am      16 UNK        -0.5000 
     90 CA         -3.6766  -25.4280  -51.9791 C.3       16 UNK         0.1400 
     91 CB         -4.7379  -25.3134  -53.0904 C.3       16 UNK        -0.1800 
     92 C          -2.2831  -25.0965  -52.5315 C.2       16 UNK         0.5000 
     93 O          -1.5667  -26.0084  -52.9562 O.2       16 UNK        -0.5000 
     94 N          -1.9296  -23.8101  -52.5270 N.am      17 UNK        -0.5000 
     95 CA         -0.6807  -23.2871  -53.0757 C.3       17 UNK         0.1400 
     96 CB          0.1235  -22.6078  -51.9565 C.3       17 UNK        -0.1800 
     97 C          -0.9406  -22.3246  -54.2467 C.2       17 UNK         0.5000 
     98 O          -0.2008  -22.3774  -55.2299 O.2       17 UNK        -0.5000 
     99 N          -1.9804  -21.4810  -54.1474 N.am      18 UNK        -0.5000 
    100 CA        -2.3414  -20.5068  -55.1885 C.3       18 UNK         0.1400 
    101 CB        -1.3725  -19.3047  -55.1646 C.3       18 UNK        -0.1800 
    102 C         -3.8140  -20.0488  -55.1328 C.2       18 UNK         0.5000 
    103 O         -4.1624  -19.0950  -55.8303 O.2       18 UNK        -0.5000 
    104 N         -4.6492  -20.7257  -54.3283 N.am      19 UNK        -0.5000 
    105 CA        -6.0634  -20.4265  -54.0513 C.3       19 UNK         0.1400 
    106 CB        -6.9092  -20.4585  -55.3429 C.3       19 UNK        -0.1800 
    107 C         -6.2753  -19.1269  -53.2397 C.2       19 UNK         0.5000 
    108 O         -5.3131  -18.4340  -52.8995 O.2       19 UNK        -0.5000 
    109 N         -7.5404  -18.8568  -52.8819 N.am      20 UNK        -0.5000 
    110 CA        -7.9834  -17.8169  -51.9435 C.3       20 UNK         0.1400 
    111 CB        -7.7248  -16.4024  -52.5115 C.3       20 UNK        -0.1800 
    112 C         -7.3837  -18.0689  -50.5431 C.2       20 UNK         0.5000 
    113 O         -7.5832  -19.1586  -50.0013 O.2       20 UNK        -0.5000 
    114 N         -6.6268  -17.1062  -49.9957 N.am      21 UNK        -0.5000 
    115 CA        -5.8673  -17.2567  -48.7473 C.3       21 UNK         0.1400 
    116 CB        -5.2444  -15.9052  -48.3620 C.3       21 UNK        -0.1800 
    117 C         -4.7772  -18.3453  -48.8322 C.2       21 UNK         0.5000 
    118 O         -4.4739  -18.9813  -47.8246 O.2       21 UNK        -0.5000 
    119 N         -4.2453  -18.5540  -50.0417 N.am      22 UNK        -0.5000 
    120 CA        -3.3119  -19.6255  -50.4075 C.3       22 UNK         0.1400 
    121 C         -4.0430  -20.9127  -50.9012 C.2       22 UNK         0.5000 
    122 N         -5.3183  -21.1276  -50.6026 N.am      22 UNK        -0.7600 
    123 O         -3.4543  -21.7349  -51.5990 O.2       22 UNK        -0.5000 
    124 C124       -2.2724  -19.1238  -51.4421 C.3       23 UNK        -0.0398 
    125 S125       -1.1640  -17.8400  -50.7787 S.3       23 UNK        -0.2404 
    126 C126        0.2479  -17.9636  -51.9209 C.3       23 UNK        -0.0205 
    127 H127       -2.0528  -13.8247  -46.9415 H         1 UNK         0.0600 
    128 H128       -2.5498  -12.7780  -48.2704 H         1 UNK         0.0600 
    129 H129       -2.1289  -12.0775  -46.7031 H         1 UNK         0.0600 
    130 H130        0.1133  -14.3735  -46.8449 H         1 UNK         0.3000 
    131 H131        1.9905  -13.4189  -48.8469 H         1 UNK         0.0600 
    132 H132        2.3582  -15.3899  -46.5420 H         1 UNK         0.0800 
    133 H133        1.8922  -15.8257  -48.1502 H         1 UNK         0.0800 
    134 H134        3.6747  -14.6802  -50.3137 H         1 UNK         0.0800 
    135 H135        5.1695  -15.5739  -50.2121 H         1 UNK         0.0800 
    136 H136        1.7847  -15.8582  -51.1402 H         1 UNK         0.1150 
    137 H137        1.6140  -20.1363  -51.0195 H         1 UNK         0.1150 
    138 H138        4.9247  -18.0744  -49.2387 H         1 UNK         0.1150 
    139 H139        3.7590  -21.3434  -50.4137 H         1 UNK         0.0800 
    140 H140        5.0248  -20.4830  -49.5820 H         1 UNK         0.0800 
    141 H141        0.9519  -20.9429  -48.5743 H         1 UNK         0.0800 
    142 H142        1.7359  -22.1899  -49.5163 H         1 UNK         0.0800 
    143 H143        1.9569  -23.6065  -47.4459 H         1 UNK         0.0600 
    144 H144        0.6264  -21.3473  -46.1413 H         1 UNK         0.3000 
    145 H145        0.0386  -23.1166  -43.1134 H         1 UNK         0.0600 
    146 H146        1.3287  -21.2520  -42.1054 H         1 UNK         0.0600 
    147 H147        2.4181  -22.4151  -42.8450 H         1 UNK         0.0600 
    148 H148        2.0780  -20.8946  -43.6606 H         1 UNK         0.0600 
    149 H149       -0.3848  -20.3944  -43.7593 H         1 UNK         0.3000 
    150 H150       -3.4396  -20.7559  -45.5754 H         1 UNK         0.0600 
    151 H151       -4.1510  -20.9310  -43.1953 H         1 UNK         0.0600 
    152 H152       -4.2949  -19.2825  -43.7845 H         1 UNK         0.0600 
    153 H153       -2.9503  -19.7316  -42.7350 H         1 UNK         0.0600 
    154 H154       -2.1710  -18.4093  -44.7555 H         1 UNK         0.3000 
    155 H155        0.1387  -18.0893  -47.4999 H         1 UNK         0.0600 
    156 H156       -1.0616  -15.9904  -47.6950 H         1 UNK         0.0600 
    157 H157       -2.2882  -16.4927  -46.5284 H         1 UNK         0.0600 
    158 H158       -2.1837  -17.2688  -48.0975 H         1 UNK         0.0600 
    159 H159       -0.3581  -16.5489  -45.0976 H         1 UNK         0.3000 
    160 H160        2.1104  -18.1276  -43.0850 H         1 UNK         0.0600 
    161 H161        2.0888  -15.3119  -44.2825 H         1 UNK         0.0600 
    162 H162        3.4105  -16.4632  -44.4411 H         1 UNK         0.0600 
    163 H163        2.9753  -15.8393  -42.8571 H         1 UNK         0.0600 
    164 H164        0.2893  -15.8980  -42.7605 H         1 UNK         0.3000 
    165 H165       -2.3740  -17.8191  -41.3723 H         1 UNK         0.0600 
    166 H166       -0.3589  -15.9666  -39.9904 H         1 UNK         0.0600 
    167 H167       -1.9858  -16.3432  -39.4218 H         1 UNK         0.0600 
    168 H168       -0.7612  -17.6006  -39.4760 H         1 UNK         0.0600 
    169 H169       -1.9884  -15.0113  -41.6052 H         1 UNK         0.3000 
    170 H170       -3.0962  -14.5892  -44.9453 H         1 UNK         0.0600 
    171 H171       -5.2426  -14.9194  -43.7181 H         1 UNK         0.0600 
    172 H172       -4.6090  -14.0258  -42.3408 H         1 UNK         0.0600 
    173 H173       -4.8613  -13.2134  -43.8864 H         1 UNK         0.0600 
    174 H174       -2.5727  -12.6982  -42.8967 H         1 UNK         0.3000 
    175 H175       -0.6850  -11.7065  -42.4818 H         1 UNK         0.0600 
    176 H176        1.7552  -11.8456  -42.1488 H         1 UNK         0.0600 
    177 H177        0.9842  -13.3755  -41.7583 H         1 UNK         0.0600 
    178 H178        1.8657  -13.1983  -43.2665 H         1 UNK         0.0600 
    179 H179        1.0383  -11.4990  -44.8836 H         1 UNK         0.3000 
    180 H180       -0.9211   -9.5652  -46.6317 H         1 UNK         0.0600 
    181 H181        0.0872   -7.2716  -46.4595 H         1 UNK         0.0600 
    182 H182       -1.1919   -7.5440  -45.2892 H         1 UNK         0.0600 
    183 H183        0.4833   -7.5855  -44.7692 H         1 UNK         0.0600 
    184 H184        0.9870  -10.2913  -47.3810 H         1 UNK         0.3000 
    185 H185        3.6786   -9.5778  -47.7423 H         1 UNK         0.0600 
    186 H186        5.5342  -10.9770  -46.7899 H         1 UNK         0.0600 
    187 H187        5.1996   -9.5599  -45.8085 H         1 UNK         0.0600 
    188 H188        4.6348  -11.1387  -45.2825 H         1 UNK         0.0600 
    189 H189        2.9469  -11.4974  -48.5719 H         1 UNK         0.3000 
    190 H190       -1.2948  -22.1137  -47.3816 H         1 UNK         0.3000 
    191 H191       -2.5535  -23.6862  -49.3223 H         1 UNK         0.0600 
    192 H192       -4.6163  -22.8806  -48.3705 H         1 UNK         0.0600 
    193 H193       -3.4541  -21.5926  -48.0837 H         1 UNK         0.0600 
    194 H194       -3.9168  -22.6726  -46.7781 H         1 UNK         0.0600 
    195 H195       -1.9287  -24.4165  -45.9165 H         1 UNK         0.3000 
    196 H196       -3.5860  -26.5440  -45.4160 H         1 UNK         0.0600 
    197 H197       -1.9371  -27.1051  -43.6138 H         1 UNK         0.0600 
    198 H198       -2.2192  -25.3753  -43.7123 H         1 UNK         0.0600 
    199 H199       -0.7415  -26.0670  -44.3810 H         1 UNK         0.0600 
    200 H200       -0.8775  -26.6918  -47.5844 H         1 UNK         0.3000 
    201 H201       -0.3344  -29.5078  -47.4896 H         1 UNK         0.0600 
    202 H202        1.2348  -27.8652  -48.4901 H         1 UNK         0.0600 
    203 H203        0.0534  -27.4481  -49.7299 H         1 UNK         0.0600 
    204 H204        0.7646  -29.0580  -49.6918 H         1 UNK         0.0600 
    205 H205       -2.7696  -27.5594  -49.1068 H         1 UNK         0.3000 
    206 H206       -4.8046  -29.1923  -49.5202 H         1 UNK         0.0600 
    207 H207       -3.6935  -30.8333  -50.9666 H         1 UNK         0.0600 
    208 H208       -4.6682  -29.8381  -52.0204 H         1 UNK         0.0600 
    209 H209       -2.9315  -29.5716  -51.9360 H         1 UNK         0.0600 
    210 H210       -2.6873  -27.2027  -51.5854 H         1 UNK         0.3000 
    211 H211       -3.9159  -24.7431  -51.1633 H         1 UNK         0.0600 
    212 H212       -4.5528  -26.0254  -53.8956 H         1 UNK         0.0600 
    213 H213       -4.7376  -24.3142  -53.5277 H         1 UNK         0.0600 
    214 H214       -5.7424  -25.4929  -52.7083 H         1 UNK         0.0600 
    215 H215       -2.5740  -23.1194  -52.1440 H         1 UNK         0.3000 
    216 H216       -0.0661  -24.0983  -53.4716 H         1 UNK         0.0600 
    217 H217       -0.4618  -21.8582  -51.4260 H         1 UNK         0.0600 
    218 H218        1.0158  -22.1210  -52.3520 H         1 UNK         0.0600 
    219 H219        0.4532  -23.3459  -51.2258 H         1 UNK         0.0600 
    220 H220       -2.5346  -21.4812  -53.2988 H         1 UNK         0.3000 
    221 H221       -2.2353  -21.0003  -56.1568 H         1 UNK         0.0600 
    222 H222       -1.5001  -18.7026  -54.2671 H         1 UNK         0.0600 
    223 H223       -0.3303  -19.6193  -55.2133 H         1 UNK         0.0600 
    224 H224       -1.5437  -18.6485  -56.0187 H         1 UNK         0.0600 
    225 H225       -4.2718  -21.4898  -53.7884 H         1 UNK         0.3000 
    226 H226       -6.4089  -21.2415  -53.4139 H         1 UNK         0.0600 
    227 H227       -6.6947  -21.3498  -55.9327 H         1 UNK         0.0600 
    228 H228       -7.9756  -20.4748  -55.1173 H         1 UNK         0.0600 
    229 H229       -6.7268  -19.5877  -55.9729 H         1 UNK         0.0600 
    230 H230       -8.2625  -19.5001  -53.1732 H         1 UNK         0.3000 
    231 H231       -9.0626  -17.9351  -51.8366 H         1 UNK         0.0600 
    232 H232       -8.1463  -15.6353  -51.8609 H         1 UNK         0.0600 
    233 H233       -8.1968  -16.2860  -53.4871 H         1 UNK         0.0600 
    234 H234       -6.6630  -16.1876  -52.6349 H         1 UNK         0.0600 
    235 H235       -6.4983  -16.2440  -50.5051 H         1 UNK         0.3000 
    236 H236       -6.5663  -17.5496  -47.9612 H         1 UNK         0.0600 
    237 H237       -4.5342  -15.5595  -49.1143 H         1 UNK         0.0600 
    238 H238       -6.0085  -15.1372  -48.2408 H         1 UNK         0.0600 
    239 H239       -4.7077  -15.9800  -47.4151 H         1 UNK         0.0600 
    240 H240       -4.6084  -18.0258  -50.8253 H         1 UNK         0.3000 
    241 H241       -2.7564  -19.9280  -49.5191 H         1 UNK         0.0600 
    242 H242       -5.8591  -20.4486  -50.0830 H         1 UNK         0.3800 
    243 H243       -5.7616  -21.9746  -50.9156 H         1 UNK         0.3800 
    244 H244       -1.6470  -19.9484  -51.7779 H         1 UNK         0.0800 
    245 H245       -2.7723  -18.7313  -52.3272 H         1 UNK         0.0800 
    246 H246        0.1746  -18.8553  -52.5439 H         1 UNK         0.0800 
    247 H247        0.2258  -17.1151  -52.6063 H         1 UNK         0.0800 
@<TRIPOS>BOND
     1    1    2 1    
     2    1  127 1    
     3    1  128 1    
     4    1  129 1    
     5    2    3 2    
     6    2    4 am   BACKBONE|DICT|INTERRES
     7    4    5 1    
     8    4  130 1    
     9    5    6 1    
    10    5   65 1    
    11    5  131 1    
    12    6    7 1    
    13    6  132 1    
    14    6  133 1    
    15    7    8 1    
    16    8    9 1    
    17    8  134 1    
    18    8  135 1    
    19    9   10 ar   
    20    9   14 ar   
    21   10   11 ar   
    22   10  136 1    
    23   11   12 ar   
    24   11  126 1    
    25   12   13 ar   
    26   12  137 1    
    27   13   14 ar   
    28   13   15 1    
    29   14  138 1    
    30   15   16 1    
    31   15  139 1    
    32   15  140 1    
    33   16   17 1    
    34   17   18 1    
    35   17  141 1    
    36   17  142 1    
    37   18   19 1    
    38   18   67 1    
    39   18  143 1    
    40   19   20 am   BACKBONE|DICT|INTERRES
    41   19  144 1    
    42   20   21 2    
    43   20   22 1    
    44   22   23 1    
    45   22   24 1    
    46   22  145 1    
    47   23  146 1    
    48   23  147 1    
    49   23  148 1    
    50   24   25 am   BACKBONE|DICT|INTERRES
    51   24  149 1    
    52   25   26 2    
    53   25   27 1    
    54   27   28 1    
    55   27   29 1    
    56   27  150 1    
    57   28  151 1    
    58   28  152 1    
    59   28  153 1    
    60   29   30 am   BACKBONE|DICT|INTERRES
    61   29  154 1    
    62   30   31 2    
    63   30   32 1    
    64   32   33 1    
    65   32   34 1    
    66   32  155 1    
    67   33  156 1    
    68   33  157 1    
    69   33  158 1    
    70   34   35 am   BACKBONE|DICT|INTERRES
    71   34  159 1    
    72   35   36 2    
    73   35   37 1    
    74   37   38 1    
    75   37   39 1    
    76   37  160 1    
    77   38  161 1    
    78   38  162 1    
    79   38  163 1    
    80   39   40 am   BACKBONE|DICT|INTERRES
    81   39  164 1    
    82   40   41 2    
    83   40   42 1    
    84   42   43 1    
    85   42   44 1    
    86   42  165 1    
    87   43  166 1    
    88   43  167 1    
    89   43  168 1    
    90   44   45 am   BACKBONE|DICT|INTERRES
    91   44  169 1    
    92   45   46 2    
    93   45   47 1    
    94   47   48 1    
    95   47   49 1    
    96   47  170 1    
    97   48  171 1    
    98   48  172 1    
    99   48  173 1    
   100   49   50 am   BACKBONE|DICT|INTERRES
   101   49  174 1    
   102   50   51 2    
   103   50   52 1    
   104   52   53 1    
   105   52   54 1    
   106   52  175 1    
   107   53  176 1    
   108   53  177 1    
   109   53  178 1    
   110   54   55 am   BACKBONE|DICT|INTERRES
   111   54  179 1    
   112   55   56 2    
   113   55   57 1    
   114   57   58 1    
   115   57   59 1    
   116   57  180 1    
   117   58  181 1    
   118   58  182 1    
   119   58  183 1    
   120   59   60 am   BACKBONE|DICT|INTERRES
   121   59  184 1    
   122   60   61 2    
   123   60   62 1    
   124   62   63 1    
   125   62   64 1    
   126   62  185 1    
   127   63  186 1    
   128   63  187 1    
   129   63  188 1    
   130   64   65 am   BACKBONE|DICT|INTERRES
   131   64  189 1    
   132   65   66 2    
   133   67   68 2    
   134   67   69 am   BACKBONE|DICT|INTERRES
   135   69   70 1    
   136   69  190 1    
   137   70   71 1    
   138   70   72 1    
   139   70  191 1    
   140   71  192 1    
   141   71  193 1    
   142   71  194 1    
   143   72   73 2    
   144   72   74 am   BACKBONE|DICT|INTERRES
   145   74   75 1    
   146   74  195 1    
   147   75   76 1    
   148   75   77 1    
   149   75  196 1    
   150   76  197 1    
   151   76  198 1    
   152   76  199 1    
   153   77   78 2    
   154   77   79 am   BACKBONE|DICT|INTERRES
   155   79   80 1    
   156   79  200 1    
   157   80   81 1    
   158   80   82 1    
   159   80  201 1    
   160   81  202 1    
   161   81  203 1    
   162   81  204 1    
   163   82   83 2    
   164   82   84 am   BACKBONE|DICT|INTERRES
   165   84   85 1    
   166   84  205 1    
   167   85   86 1    
   168   85   87 1    
   169   85  206 1    
   170   86  207 1    
   171   86  208 1    
   172   86  209 1    
   173   87   88 2    
   174   87   89 am   BACKBONE|DICT|INTERRES
   175   89   90 1    
   176   89  210 1    
   177   90   91 1    
   178   90   92 1    
   179   90  211 1    
   180   91  212 1    
   181   91  213 1    
   182   91  214 1    
   183   92   93 2    
   184   92   94 am   BACKBONE|DICT|INTERRES
   185   94   95 1    
   186   94  215 1    
   187   95   96 1    
   188   95   97 1    
   189   95  216 1    
   190   96  217 1    
   191   96  218 1    
   192   96  219 1    
   193   97   98 2    
   194   97   99 am   BACKBONE|DICT|INTERRES
   195   99  100 1    
   196   99  220 1    
   197  100  101 1    
   198  100  102 1    
   199  100  221 1    
   200  101  222 1    
   201  101  223 1    
   202  101  224 1    
   203  102  103 2    
   204  102  104 am   BACKBONE|DICT|INTERRES
   205  104  105 1    
   206  104  225 1    
   207  105  106 1    
   208  105  107 1    
   209  105  226 1    
   210  106  227 1    
   211  106  228 1    
   212  106  229 1    
   213  107  108 2    
   214  107  109 am   BACKBONE|DICT|INTERRES
   215  109  110 1    
   216  109  230 1    
   217  110  111 1    
   218  110  112 1    
   219  110  231 1    
   220  111  232 1    
   221  111  233 1    
   222  111  234 1    
   223  112  113 2    
   224  112  114 am   BACKBONE|DICT|INTERRES
   225  114  115 1    
   226  114  235 1    
   227  115  116 1    
   228  115  117 1    
   229  115  236 1    
   230  116  237 1    
   231  116  238 1    
   232  116  239 1    
   233  117  118 2    
   234  117  119 am   BACKBONE|DICT|INTERRES
   235  119  120 1    
   236  119  240 1    
   237  120  121 1    
   238  120  124 1    
   239  120  241 1    
   240  121  122 am   BACKBONE|DICT|INTERRES
   241  121  123 2    
   242  122  242 1    
   243  122  243 1    
   244  124  125 1    
   245  124  244 1    
   246  124  245 1    
   247  125  126 1    
   248  126  246 1    
   249  126  247 1    
@<TRIPOS>SUBSTRUCTURE
     1 UNK         1 GROUP             0       ****    0 ROOT    
