@<TRIPOS>MOLECULE
3R540
247   249    1
SMALL
USER_CHARGES


@<TRIPOS>ATOM
      1 CA         -1.5409  -16.7611  -46.7733 C.3       0 UNK        -0.1800 
      2 C          -0.4863  -16.4066  -47.8094 C.2       0 UNK         0.5000 
      3 O          -0.8102  -16.2568  -48.9865 O.2       0 UNK        -0.5000 
      4 N           0.7691  -16.2687  -47.3705 N.am      1 UNK        -0.5000 
      5 CA          1.9034  -15.8777  -48.2125 C.3       1 UNK         0.1400 
      6 C6          3.2220  -16.5786  -47.8069 C.3       23 UNK        -0.0398 
      7 S7          3.0888  -18.3903  -47.9606 S.3       23 UNK        -0.2404 
      8 C8          3.5034  -18.6151  -49.7177 C.3       23 UNK        -0.0205 
      9 C9          2.9438  -19.9220  -50.2559 C.ar      23 UNK        -0.0193 
     10 C10         1.6398  -19.9729  -50.7561 C.ar      23 UNK        -0.1150 
     11 C11         1.1190  -21.1639  -51.2730 C.ar      23 UNK        -0.0193 
     12 C12         1.9115  -22.3167  -51.2696 C.ar      23 UNK        -0.1150 
     13 C13         3.2113  -22.2815  -50.7551 C.ar      23 UNK        -0.0193 
     14 C14         3.7234  -21.0803  -50.2556 C.ar      23 UNK        -0.1150 
     15 C15         4.0786  -23.5297  -50.7463 C.3       23 UNK        -0.0205 
     16 S16         4.1070  -24.3206  -49.1061 S.3       23 UNK        -0.2404 
     17 C17         2.7955  -25.5899  -49.2406 C.3       23 UNK        -0.0398 
     18 CA          1.7119  -25.5296  -48.1336 C.3       11 UNK         0.1400 
     19 N           2.2763  -25.3541  -46.7933 N.am      11 UNK        -0.5000 
     20 C           1.6114  -25.5490  -45.6466 C.2       10 UNK         0.5000 
     21 O           0.4529  -25.9592  -45.5886 O.2       10 UNK        -0.5000 
     22 CA          2.3466  -25.1429  -44.3544 C.3       10 UNK         0.1400 
     23 CB          3.2911  -26.2615  -43.8906 C.3       10 UNK        -0.1800 
     24 N           3.1009  -23.8931  -44.5058 N.am      10 UNK        -0.5000 
     25 C           2.5398  -22.7161  -44.8123 C.2       9 UNK         0.5000 
     26 O           1.3233  -22.5683  -44.9558 O.2       9 UNK        -0.5000 
     27 CA          3.4990  -21.5378  -45.0698 C.3       9 UNK         0.1400 
     28 CB          4.2143  -21.7132  -46.4197 C.3       9 UNK        -0.1800 
     29 N           2.7789  -20.2664  -45.0975 N.am      9 UNK        -0.5000 
     30 C           2.3267  -19.6257  -44.0163 C.2       8 UNK         0.5000 
     31 O           2.5927  -19.9528  -42.8564 O.2       8 UNK        -0.5000 
     32 CA          1.4109  -18.4226  -44.2708 C.3       8 UNK         0.1400 
     33 CB         -0.0640  -18.7983  -44.0427 C.3       8 UNK        -0.1800 
     34 N           1.7900  -17.3679  -43.3427 N.am      8 UNK        -0.5000 
     35 C           1.7862  -16.0595  -43.6045 C.2       7 UNK         0.5000 
     36 O           1.4315  -15.5637  -44.6799 O.2       7 UNK        -0.5000 
     37 CA          2.3055  -15.1527  -42.4855 C.3       7 UNK         0.1400 
     38 CB          3.6782  -14.5679  -42.8735 C.3       7 UNK        -0.1800 
     39 N           1.3255  -14.1000  -42.2399 N.am      7 UNK        -0.5000 
     40 C           1.3421  -13.2564  -41.2007 C.2       6 UNK         0.5000 
     41 O           2.1849  -13.2902  -40.3029 O.2       6 UNK        -0.5000 
     42 CA          0.2300  -12.1996  -41.1463 C.3       6 UNK         0.1400 
     43 CB          0.3590  -11.2047  -42.3118 C.3       6 UNK        -0.1800 
     44 N          -1.0955  -12.8172  -41.1754 N.am      6 UNK        -0.5000 
     45 C          -1.8838  -12.9803  -40.1033 C.2       5 UNK         0.5000 
     46 O          -1.5405  -12.6821  -38.9582 O.2       5 UNK        -0.5000 
     47 CA         -3.3076  -13.5320  -40.3286 C.3       5 UNK         0.1400 
     48 CB         -4.3511  -12.4327  -40.0696 C.3       5 UNK        -0.1800 
     49 N          -3.5172  -14.0527  -41.6798 N.am      5 UNK        -0.5000 
     50 C          -3.3118  -15.3226  -42.0505 C.2       4 UNK         0.5000 
     51 O          -2.9664  -16.2157  -41.2767 O.2       4 UNK        -0.5000 
     52 CA         -3.5007  -15.6449  -43.5482 C.3       4 UNK         0.1400 
     53 CB         -4.9220  -16.1620  -43.8150 C.3       4 UNK        -0.1800 
     54 N          -3.2177  -14.5262  -44.4592 N.am      4 UNK        -0.5000 
     55 C          -2.0378  -13.9011  -44.5418 C.2       3 UNK         0.5000 
     56 O          -1.0937  -14.1320  -43.7807 O.2       3 UNK        -0.5000 
     57 CA         -1.8713  -12.8347  -45.6311 C.3       3 UNK         0.1400 
     58 CB         -2.4141  -11.4788  -45.1395 C.3       3 UNK        -0.1800 
     59 N          -0.4401  -12.7839  -45.8997 N.am      3 UNK        -0.5000 
     60 C           0.2413  -12.0238  -46.7614 C.2       2 UNK         0.5000 
     61 O          -0.2616  -11.1814  -47.5046 O.2       2 UNK        -0.5000 
     62 CA          1.7504  -12.3118  -46.8221 C.3       2 UNK         0.1400 
     63 CB          2.4565  -11.8458  -45.5384 C.3       2 UNK        -0.1800 
     64 N           1.9548  -13.7498  -47.0005 N.am      2 UNK        -0.5000 
     65 C           2.0468  -14.3468  -48.1968 C.2       1 UNK         0.5000 
     66 O           2.1855  -13.7391  -49.2591 O.2       1 UNK        -0.5000 
     67 C           0.6086  -24.5001  -48.4518 C.2       11 UNK         0.5000 
     68 O          -0.3646  -24.8569  -49.1126 O.2       11 UNK        -0.5000 
     69 N           0.7437  -23.2673  -47.9438 N.am      12 UNK        -0.5000 
     70 CA         -0.2440  -22.1972  -48.0972 C.3       12 UNK         0.1400 
     71 CB          0.3719  -20.8639  -47.6512 C.3       12 UNK        -0.1800 
     72 C          -1.5364  -22.4873  -47.3207 C.2       12 UNK         0.5000 
     73 O          -2.6281  -22.2443  -47.8381 O.2       12 UNK        -0.5000 
     74 N          -1.3824  -23.0318  -46.1073 N.am      13 UNK        -0.5000 
     75 CA         -2.4774  -23.5039  -45.2662 C.3       13 UNK         0.1400 
     76 CB         -1.9469  -23.7866  -43.8525 C.3       13 UNK        -0.1800 
     77 C          -3.1705  -24.7447  -45.8588 C.2       13 UNK         0.5000 
     78 O          -4.4003  -24.7936  -45.8836 O.2       13 UNK        -0.5000 
     79 N          -2.3745  -25.7114  -46.3398 N.am      14 UNK        -0.5000 
     80 CA         -2.8516  -26.9635  -46.9300 C.3       14 UNK         0.1400 
     81 CB         -1.6754  -27.9361  -47.1030 C.3       14 UNK        -0.1800 
     82 C          -3.5907  -26.7665  -48.2655 C.2       14 UNK         0.5000 
     83 O          -4.6495  -27.3642  -48.4625 O.2       14 UNK        -0.5000 
     84 N          -3.0302  -25.9351  -49.1553 N.am      15 UNK        -0.5000 
     85 CA         -3.6128  -25.6245  -50.4631 C.3       15 UNK         0.1400 
     86 CB         -2.5236  -25.0478  -51.3813 C.3       15 UNK        -0.1800 
     87 C          -4.7997  -24.6480  -50.3820 C.2       15 UNK         0.5000 
     88 O          -5.6052  -24.6200  -51.3121 O.2       15 UNK        -0.5000 
     89 N          -4.8671  -23.8691  -49.2904 N.am      16 UNK        -0.5000 
     90 CA         -5.7649  -22.7394  -49.0450 C.3       16 UNK         0.1400 
     91 CB         -7.2476  -23.1663  -49.0547 C.3       16 UNK        -0.1800 
     92 C          -5.4572  -21.6043  -50.0358 C.2       16 UNK         0.5000 
     93 O          -6.1291  -21.4733  -51.0583 O.2       16 UNK        -0.5000 
     94 N          -4.4056  -20.8361  -49.7233 N.am      17 UNK        -0.5000 
     95 CA         -3.7635  -19.8076  -50.5516 C.3       17 UNK         0.1400 
     96 CB         -2.7976  -19.0040  -49.6718 C.3       17 UNK        -0.1800 
     97 C          -4.6841  -18.8435  -51.3230 C.2       17 UNK         0.5000 
     98 O          -4.3515  -18.4774  -52.4511 O.2       17 UNK        -0.5000 
     99 N          -5.8178  -18.4643  -50.7193 N.am      18 UNK        -0.5000 
    100 CA        -6.8304  -17.5995  -51.3275 C.3       18 UNK         0.1400 
    101 CB        -7.7853  -17.0999  -50.2327 C.3       18 UNK        -0.1800 
    102 C         -7.6207  -18.2862  -52.4594 C.2       18 UNK         0.5000 
    103 O         -8.0064  -17.6162  -53.4176 O.2       18 UNK        -0.5000 
    104 N         -7.8396  -19.6019  -52.3368 N.am      19 UNK        -0.5000 
    105 CA        -8.5072  -20.4351  -53.3374 C.3       19 UNK         0.1400 
    106 CB        -9.2247  -21.5987  -52.6352 C.3       19 UNK        -0.1800 
    107 C         -7.5050  -20.9626  -54.3774 C.2       19 UNK         0.5000 
    108 O         -7.8397  -21.0402  -55.5599 O.2       19 UNK        -0.5000 
    109 N         -6.2851  -21.2860  -53.9236 N.am      20 UNK        -0.5000 
    110 CA        -5.1571  -21.7041  -54.7605 C.3       20 UNK         0.1400 
    111 CB        -4.0555  -22.2808  -53.8594 C.3       20 UNK        -0.1800 
    112 C         -4.5926  -20.5670  -55.6367 C.2       20 UNK         0.5000 
    113 O         -3.9431  -20.8500  -56.6439 O.2       20 UNK        -0.5000 
    114 N         -4.8593  -19.3151  -55.2362 N.am      21 UNK        -0.5000 
    115 CA        -4.4387  -18.0590  -55.8579 C.3       21 UNK         0.1400 
    116 CB        -5.0465  -17.9038  -57.2680 C.3       21 UNK        -0.1800 
    117 C         -2.9092  -17.8725  -55.8197 C.2       21 UNK         0.5000 
    118 O         -2.3031  -17.4935  -56.8242 O.2       21 UNK        -0.5000 
    119 N         -2.3143  -18.1371  -54.6486 N.am      22 UNK        -0.5000 
    120 CA        -0.8766  -17.9363  -54.3905 C.3       22 UNK         0.1400 
    121 C         -0.4624  -16.4449  -54.2078 C.2       22 UNK         0.5000 
    122 N         -1.3875  -15.5099  -54.0253 N.am      22 UNK        -0.7600 
    123 O          0.7236  -16.1291  -54.2425 O.2       22 UNK        -0.5000 
    124 C124       -0.3630  -18.7855  -53.2011 C.3       23 UNK        -0.0398 
    125 S125       -0.5253  -20.5834  -53.4669 S.3       23 UNK        -0.2404 
    126 C126       -0.3188  -21.2215  -51.7730 C.3       23 UNK        -0.0205 
    127 H127       -1.7323  -17.8340  -46.7815 H         1 UNK         0.0600 
    128 H128       -2.4755  -16.2426  -46.9871 H         1 UNK         0.0600 
    129 H129       -1.2170  -16.4735  -45.7746 H         1 UNK         0.0600 
    130 H130        0.9580  -16.3157  -46.3741 H         1 UNK         0.3000 
    131 H131        1.6932  -16.1612  -49.2460 H         1 UNK         0.0600 
    132 H132        3.4830  -16.3420  -46.7738 H         1 UNK         0.0800 
    133 H133        4.0547  -16.2316  -48.4215 H         1 UNK         0.0800 
    134 H134        3.1066  -17.7869  -50.3062 H         1 UNK         0.0800 
    135 H135        4.5873  -18.5850  -49.8386 H         1 UNK         0.0800 
    136 H136        1.0267  -19.0837  -50.7260 H         1 UNK         0.1150 
    137 H137        1.5111  -23.2447  -51.6529 H         1 UNK         0.1150 
    138 H138        4.7285  -21.0500  -49.8585 H         1 UNK         0.1150 
    139 H139        3.7546  -24.2371  -51.5108 H         1 UNK         0.0800 
    140 H140        5.0999  -23.2537  -51.0126 H         1 UNK         0.0800 
    141 H141        2.3373  -25.5623  -50.2309 H         1 UNK         0.0800 
    142 H142        3.2943  -26.5583  -49.1865 H         1 UNK         0.0800 
    143 H143        1.2164  -26.5025  -48.1358 H         1 UNK         0.0600 
    144 H144        3.2230  -25.0046  -46.7568 H         1 UNK         0.3000 
    145 H145        1.5922  -24.9882  -43.5800 H         1 UNK         0.0600 
    146 H146        3.7525  -26.0162  -42.9339 H         1 UNK         0.0600 
    147 H147        2.7490  -27.1988  -43.7576 H         1 UNK         0.0600 
    148 H148        4.0887  -26.4428  -44.6120 H         1 UNK         0.0600 
    149 H149        4.1039  -23.9529  -44.4044 H         1 UNK         0.3000 
    150 H150        4.2442  -21.5119  -44.2720 H         1 UNK         0.0600 
    151 H151        4.8120  -22.6250  -46.4379 H         1 UNK         0.0600 
    152 H152        4.8918  -20.8822  -46.6172 H         1 UNK         0.0600 
    153 H153        3.5082  -21.7671  -47.2492 H         1 UNK         0.0600 
    154 H154        2.5285  -19.9215  -46.0134 H         1 UNK         0.3000 
    155 H155        1.5455  -18.0826  -45.2988 H         1 UNK         0.0600 
    156 H156       -0.7110  -17.9241  -44.0907 H         1 UNK         0.0600 
    157 H157       -0.2134  -19.2582  -43.0650 H         1 UNK         0.0600 
    158 H158       -0.4114  -19.5076  -44.7936 H         1 UNK         0.0600 
    159 H159        2.1477  -17.7046  -42.4579 H         1 UNK         0.3000 
    160 H160        2.4147  -15.7392  -41.5709 H         1 UNK         0.0600 
    161 H161        3.6177  -13.9560  -43.7730 H         1 UNK         0.0600 
    162 H162        4.3963  -15.3646  -43.0713 H         1 UNK         0.0600 
    163 H163        4.0968  -13.9522  -42.0780 H         1 UNK         0.0600 
    164 H164        0.5513  -14.0711  -42.9005 H         1 UNK         0.3000 
    165 H165        0.3609  -11.6314  -40.2229 H         1 UNK         0.0600 
    166 H166        0.2189  -11.6883  -43.2775 H         1 UNK         0.0600 
    167 H167       -0.3782  -10.4062  -42.2287 H         1 UNK         0.0600 
    168 H168        1.3446  -10.7376  -42.3199 H         1 UNK         0.0600 
    169 H169       -1.3991  -13.1873  -42.0684 H         1 UNK         0.3000 
    170 H170       -3.4686  -14.3279  -39.5983 H         1 UNK         0.0600 
    171 H171       -4.2623  -12.0375  -39.0567 H         1 UNK         0.0600 
    172 H172       -4.2346  -11.5961  -40.7597 H         1 UNK         0.0600 
    173 H173       -5.3650  -12.8185  -40.1772 H         1 UNK         0.0600 
    174 H174       -3.8058  -13.3885  -42.3830 H         1 UNK         0.3000 
    175 H175       -2.8001  -16.4467  -43.7899 H         1 UNK         0.0600 
    176 H176       -5.6713  -15.3915  -43.6295 H         1 UNK         0.0600 
    177 H177       -5.0324  -16.4988  -44.8460 H         1 UNK         0.0600 
    178 H178       -5.1571  -17.0108  -43.1712 H         1 UNK         0.0600 
    179 H179       -3.9572  -14.2706  -45.0978 H         1 UNK         0.3000 
    180 H180       -2.3929  -13.1508  -46.5361 H         1 UNK         0.0600 
    181 H181       -1.8900  -11.1286  -44.2507 H         1 UNK         0.0600 
    182 H182       -3.4724  -11.5512  -44.8865 H         1 UNK         0.0600 
    183 H183       -2.3246  -10.7081  -45.9044 H         1 UNK         0.0600 
    184 H184        0.0700  -13.4496  -45.3313 H         1 UNK         0.3000 
    185 H185        2.1743  -11.7572  -47.6620 H         1 UNK         0.0600 
    186 H186        3.5323  -12.0095  -45.6021 H         1 UNK         0.0600 
    187 H187        2.2984  -10.7797  -45.3711 H         1 UNK         0.0600 
    188 H188        2.0913  -12.3736  -44.6578 H         1 UNK         0.0600 
    189 H189        1.8350  -14.3334  -46.1790 H         1 UNK         0.3000 
    190 H190        1.5468  -23.0652  -47.3690 H         1 UNK         0.3000 
    191 H191       -0.4999  -22.1287  -49.1537 H         1 UNK         0.0600 
    192 H192       -0.2180  -20.0148  -47.9916 H         1 UNK         0.0600 
    193 H193        1.3744  -20.7458  -48.0553 H         1 UNK         0.0600 
    194 H194        0.4412  -20.7904  -46.5685 H         1 UNK         0.0600 
    195 H195       -0.4411  -23.1370  -45.7414 H         1 UNK         0.3000 
    196 H196       -3.2197  -22.7058  -45.1971 H         1 UNK         0.0600 
    197 H197       -2.7501  -24.1166  -43.1927 H         1 UNK         0.0600 
    198 H198       -1.5085  -22.8911  -43.4113 H         1 UNK         0.0600 
    199 H199       -1.1822  -24.5640  -43.8550 H         1 UNK         0.0600 
    200 H200       -1.3690  -25.6179  -46.2297 H         1 UNK         0.3000 
    201 H201       -3.5559  -27.4132  -46.2270 H         1 UNK         0.0600 
    202 H202       -1.1970  -28.1508  -46.1473 H         1 UNK         0.0600 
    203 H203       -0.9176  -27.5341  -47.7752 H         1 UNK         0.0600 
    204 H204       -2.0120  -28.8869  -47.5183 H         1 UNK         0.0600 
    205 H205       -2.1294  -25.5090  -48.9503 H         1 UNK         0.3000 
    206 H206       -3.9753  -26.5523  -50.9109 H         1 UNK         0.0600 
    207 H207       -2.1546  -24.0908  -51.0107 H         1 UNK         0.0600 
    208 H208       -1.6748  -25.7266  -51.4648 H         1 UNK         0.0600 
    209 H209       -2.9071  -24.8835  -52.3887 H         1 UNK         0.0600 
    210 H210       -4.1264  -23.9737  -48.6099 H         1 UNK         0.3000 
    211 H211       -5.5381  -22.3749  -48.0418 H         1 UNK         0.0600 
    212 H212       -7.5758  -23.5134  -50.0344 H         1 UNK         0.0600 
    213 H213       -7.8903  -22.3297  -48.7790 H         1 UNK         0.0600 
    214 H214       -7.4291  -23.9675  -48.3383 H         1 UNK         0.0600 
    215 H215       -3.8862  -21.1016  -48.8918 H         1 UNK         0.3000 
    216 H216       -3.1797  -20.3407  -51.3001 H         1 UNK         0.0600 
    217 H217       -2.2475  -18.2674  -50.2583 H         1 UNK         0.0600 
    218 H218       -2.0664  -19.6547  -49.1981 H         1 UNK         0.0600 
    219 H219       -3.3251  -18.4669  -48.8827 H         1 UNK         0.0600 
    220 H220       -6.0133  -18.8199  -49.7952 H         1 UNK         0.3000 
    221 H221       -6.3238  -16.7328  -51.7577 H         1 UNK         0.0600 
    222 H222       -8.3088  -17.9248  -49.7477 H         1 UNK         0.0600 
    223 H223       -7.2479  -16.5440  -49.4642 H         1 UNK         0.0600 
    224 H224       -8.5401  -16.4310  -50.6484 H         1 UNK         0.0600 
    225 H225       -7.4060  -20.0998  -51.5660 H         1 UNK         0.3000 
    226 H226       -9.2598  -19.8423  -53.8617 H         1 UNK         0.0600 
    227 H227       -9.9546  -21.2329  -51.9130 H         1 UNK         0.0600 
    228 H228       -9.7610  -22.2168  -53.3562 H         1 UNK         0.0600 
    229 H229       -8.5252  -22.2464  -52.1054 H         1 UNK         0.0600 
    230 H230       -6.1267  -21.2628  -52.9193 H         1 UNK         0.3000 
    231 H231       -5.5046  -22.4957  -55.4275 H         1 UNK         0.0600 
    232 H232       -3.2255  -22.6673  -54.4520 H         1 UNK         0.0600 
    233 H233       -4.4337  -23.1020  -53.2518 H         1 UNK         0.0600 
    234 H234       -3.6519  -21.5243  -53.1885 H         1 UNK         0.0600 
    235 H235       -5.3363  -19.2117  -54.3504 H         1 UNK         0.3000 
    236 H236       -4.8547  -17.2643  -55.2369 H         1 UNK         0.0600 
    237 H237       -6.1288  -18.0324  -57.2458 H         1 UNK         0.0600 
    238 H238       -4.8462  -16.9104  -57.6707 H         1 UNK         0.0600 
    239 H239       -4.6368  -18.6288  -57.9716 H         1 UNK         0.0600 
    240 H240       -2.8908  -18.4196  -53.8630 H         1 UNK         0.3000 
    241 H241       -0.3381  -18.2784  -55.2766 H         1 UNK         0.0600 
    242 H242       -2.3639  -15.7530  -53.9868 H         1 UNK         0.3800 
    243 H243       -1.1050  -14.5488  -53.9145 H         1 UNK         0.3800 
    244 H244        0.6953  -18.5833  -53.0286 H         1 UNK         0.0800 
    245 H245       -0.8879  -18.5054  -52.2869 H         1 UNK         0.0800 
    246 H246       -0.6806  -22.2502  -51.7474 H         1 UNK         0.0800 
    247 H247       -0.9536  -20.6624  -51.0898 H         1 UNK         0.0800 
@<TRIPOS>BOND
     1    1    2 1    
     2    1  127 1    
     3    1  128 1    
     4    1  129 1    
     5    2    3 2    
     6    2    4 am   BACKBONE|DICT|INTERRES
     7    4    5 1    
     8    4  130 1    
     9    5    6 1    
    10    5   65 1    
    11    5  131 1    
    12    6    7 1    
    13    6  132 1    
    14    6  133 1    
    15    7    8 1    
    16    8    9 1    
    17    8  134 1    
    18    8  135 1    
    19    9   10 ar   
    20    9   14 ar   
    21   10   11 ar   
    22   10  136 1    
    23   11   12 ar   
    24   11  126 1    
    25   12   13 ar   
    26   12  137 1    
    27   13   14 ar   
    28   13   15 1    
    29   14  138 1    
    30   15   16 1    
    31   15  139 1    
    32   15  140 1    
    33   16   17 1    
    34   17   18 1    
    35   17  141 1    
    36   17  142 1    
    37   18   19 1    
    38   18   67 1    
    39   18  143 1    
    40   19   20 am   BACKBONE|DICT|INTERRES
    41   19  144 1    
    42   20   21 2    
    43   20   22 1    
    44   22   23 1    
    45   22   24 1    
    46   22  145 1    
    47   23  146 1    
    48   23  147 1    
    49   23  148 1    
    50   24   25 am   BACKBONE|DICT|INTERRES
    51   24  149 1    
    52   25   26 2    
    53   25   27 1    
    54   27   28 1    
    55   27   29 1    
    56   27  150 1    
    57   28  151 1    
    58   28  152 1    
    59   28  153 1    
    60   29   30 am   BACKBONE|DICT|INTERRES
    61   29  154 1    
    62   30   31 2    
    63   30   32 1    
    64   32   33 1    
    65   32   34 1    
    66   32  155 1    
    67   33  156 1    
    68   33  157 1    
    69   33  158 1    
    70   34   35 am   BACKBONE|DICT|INTERRES
    71   34  159 1    
    72   35   36 2    
    73   35   37 1    
    74   37   38 1    
    75   37   39 1    
    76   37  160 1    
    77   38  161 1    
    78   38  162 1    
    79   38  163 1    
    80   39   40 am   BACKBONE|DICT|INTERRES
    81   39  164 1    
    82   40   41 2    
    83   40   42 1    
    84   42   43 1    
    85   42   44 1    
    86   42  165 1    
    87   43  166 1    
    88   43  167 1    
    89   43  168 1    
    90   44   45 am   BACKBONE|DICT|INTERRES
    91   44  169 1    
    92   45   46 2    
    93   45   47 1    
    94   47   48 1    
    95   47   49 1    
    96   47  170 1    
    97   48  171 1    
    98   48  172 1    
    99   48  173 1    
   100   49   50 am   BACKBONE|DICT|INTERRES
   101   49  174 1    
   102   50   51 2    
   103   50   52 1    
   104   52   53 1    
   105   52   54 1    
   106   52  175 1    
   107   53  176 1    
   108   53  177 1    
   109   53  178 1    
   110   54   55 am   BACKBONE|DICT|INTERRES
   111   54  179 1    
   112   55   56 2    
   113   55   57 1    
   114   57   58 1    
   115   57   59 1    
   116   57  180 1    
   117   58  181 1    
   118   58  182 1    
   119   58  183 1    
   120   59   60 am   BACKBONE|DICT|INTERRES
   121   59  184 1    
   122   60   61 2    
   123   60   62 1    
   124   62   63 1    
   125   62   64 1    
   126   62  185 1    
   127   63  186 1    
   128   63  187 1    
   129   63  188 1    
   130   64   65 am   BACKBONE|DICT|INTERRES
   131   64  189 1    
   132   65   66 2    
   133   67   68 2    
   134   67   69 am   BACKBONE|DICT|INTERRES
   135   69   70 1    
   136   69  190 1    
   137   70   71 1    
   138   70   72 1    
   139   70  191 1    
   140   71  192 1    
   141   71  193 1    
   142   71  194 1    
   143   72   73 2    
   144   72   74 am   BACKBONE|DICT|INTERRES
   145   74   75 1    
   146   74  195 1    
   147   75   76 1    
   148   75   77 1    
   149   75  196 1    
   150   76  197 1    
   151   76  198 1    
   152   76  199 1    
   153   77   78 2    
   154   77   79 am   BACKBONE|DICT|INTERRES
   155   79   80 1    
   156   79  200 1    
   157   80   81 1    
   158   80   82 1    
   159   80  201 1    
   160   81  202 1    
   161   81  203 1    
   162   81  204 1    
   163   82   83 2    
   164   82   84 am   BACKBONE|DICT|INTERRES
   165   84   85 1    
   166   84  205 1    
   167   85   86 1    
   168   85   87 1    
   169   85  206 1    
   170   86  207 1    
   171   86  208 1    
   172   86  209 1    
   173   87   88 2    
   174   87   89 am   BACKBONE|DICT|INTERRES
   175   89   90 1    
   176   89  210 1    
   177   90   91 1    
   178   90   92 1    
   179   90  211 1    
   180   91  212 1    
   181   91  213 1    
   182   91  214 1    
   183   92   93 2    
   184   92   94 am   BACKBONE|DICT|INTERRES
   185   94   95 1    
   186   94  215 1    
   187   95   96 1    
   188   95   97 1    
   189   95  216 1    
   190   96  217 1    
   191   96  218 1    
   192   96  219 1    
   193   97   98 2    
   194   97   99 am   BACKBONE|DICT|INTERRES
   195   99  100 1    
   196   99  220 1    
   197  100  101 1    
   198  100  102 1    
   199  100  221 1    
   200  101  222 1    
   201  101  223 1    
   202  101  224 1    
   203  102  103 2    
   204  102  104 am   BACKBONE|DICT|INTERRES
   205  104  105 1    
   206  104  225 1    
   207  105  106 1    
   208  105  107 1    
   209  105  226 1    
   210  106  227 1    
   211  106  228 1    
   212  106  229 1    
   213  107  108 2    
   214  107  109 am   BACKBONE|DICT|INTERRES
   215  109  110 1    
   216  109  230 1    
   217  110  111 1    
   218  110  112 1    
   219  110  231 1    
   220  111  232 1    
   221  111  233 1    
   222  111  234 1    
   223  112  113 2    
   224  112  114 am   BACKBONE|DICT|INTERRES
   225  114  115 1    
   226  114  235 1    
   227  115  116 1    
   228  115  117 1    
   229  115  236 1    
   230  116  237 1    
   231  116  238 1    
   232  116  239 1    
   233  117  118 2    
   234  117  119 am   BACKBONE|DICT|INTERRES
   235  119  120 1    
   236  119  240 1    
   237  120  121 1    
   238  120  124 1    
   239  120  241 1    
   240  121  122 am   BACKBONE|DICT|INTERRES
   241  121  123 2    
   242  122  242 1    
   243  122  243 1    
   244  124  125 1    
   245  124  244 1    
   246  124  245 1    
   247  125  126 1    
   248  126  246 1    
   249  126  247 1    
@<TRIPOS>SUBSTRUCTURE
     1 UNK         1 GROUP             0       ****    0 ROOT    
