@<TRIPOS>MOLECULE
3R540
247   249    1
SMALL
USER_CHARGES


@<TRIPOS>ATOM
      1 CA         -0.6695  -17.7346  -47.6688 C.3       0 UNK        -0.1800 
      2 C          -0.9614  -16.5358  -48.5583 C.2       0 UNK         0.5000 
      3 O          -1.7961  -15.6959  -48.2198 O.2       0 UNK        -0.5000 
      4 N          -0.2739  -16.4706  -49.7011 N.am      1 UNK        -0.5000 
      5 CA         -0.3066  -15.3786  -50.6736 C.3       1 UNK         0.1400 
      6 C6          0.2954  -15.8034  -52.0379 C.3       23 UNK        -0.0398 
      7 S7          1.8515  -16.7639  -51.9432 S.3       23 UNK        -0.2404 
      8 C8          1.3397  -18.3588  -52.6647 C.3       23 UNK        -0.0205 
      9 C9          0.6489  -19.2687  -51.6551 C.ar      23 UNK        -0.0193 
     10 C10        -0.7235  -19.1531  -51.4110 C.ar      23 UNK        -0.1150 
     11 C11        -1.3500  -19.9835  -50.4773 C.ar      23 UNK        -0.0193 
     12 C12        -0.6077  -20.9667  -49.8179 C.ar      23 UNK        -0.1150 
     13 C13         0.7596  -21.1056  -50.0658 C.ar      23 UNK        -0.0193 
     14 C14         1.3831  -20.2481  -50.9781 C.ar      23 UNK        -0.1150 
     15 C15         1.5582  -22.2015  -49.3767 C.3       23 UNK        -0.0205 
     16 S16         2.4389  -21.6065  -47.8965 S.3       23 UNK        -0.2404 
     17 C17         1.1607  -21.6688  -46.5933 C.3       23 UNK        -0.0398 
     18 CA          1.1352  -23.0351  -45.8509 C.3       11 UNK         0.1400 
     19 N           0.9673  -22.9020  -44.4000 N.am      11 UNK        -0.5000 
     20 C           1.0422  -23.9107  -43.5167 C.2       10 UNK         0.5000 
     21 O           1.2226  -25.0868  -43.8322 O.2       10 UNK        -0.5000 
     22 CA          0.8714  -23.5494  -42.0324 C.3       10 UNK         0.1400 
     23 CB          2.1816  -22.9968  -41.4497 C.3       10 UNK        -0.1800 
     24 N          -0.1955  -22.5683  -41.8525 N.am      10 UNK        -0.5000 
     25 C          -1.4884  -22.8798  -41.6910 C.2       9 UNK         0.5000 
     26 O          -1.9066  -24.0328  -41.5808 O.2       9 UNK        -0.5000 
     27 CA         -2.4903  -21.7078  -41.6664 C.3       9 UNK         0.1400 
     28 CB         -2.6997  -21.2078  -40.2291 C.3       9 UNK        -0.1800 
     29 N          -2.0939  -20.5780  -42.5088 N.am      9 UNK        -0.5000 
     30 C          -1.9403  -20.6299  -43.8387 C.2       8 UNK         0.5000 
     31 O          -2.1227  -21.6400  -44.5155 O.2       8 UNK        -0.5000 
     32 CA         -1.4443  -19.3484  -44.5261 C.3       8 UNK         0.1400 
     33 CB         -2.6373  -18.4298  -44.8274 C.3       8 UNK        -0.1800 
     34 N          -0.4312  -18.6056  -43.7706 N.am      8 UNK        -0.5000 
     35 C           0.7063  -19.1016  -43.2597 C.2       7 UNK         0.5000 
     36 O           1.0195  -20.2899  -43.3145 O.2       7 UNK        -0.5000 
     37 CA          1.6504  -18.1137  -42.5582 C.3       7 UNK         0.1400 
     38 CB          2.6732  -17.5582  -43.5598 C.3       7 UNK        -0.1800 
     39 N           0.9181  -17.0083  -41.9411 N.am      7 UNK        -0.5000 
     40 C           0.3708  -17.0526  -40.7181 C.2       6 UNK         0.5000 
     41 O           0.4652  -18.0199  -39.9620 O.2       6 UNK        -0.5000 
     42 CA         -0.4239  -15.8122  -40.2639 C.3       6 UNK         0.1400 
     43 CB          0.4993  -14.8139  -39.5489 C.3       6 UNK        -0.1800 
     44 N          -1.0970  -15.1331  -41.3719 N.am      6 UNK        -0.5000 
     45 C          -2.1589  -15.6226  -42.0266 C.2       5 UNK         0.5000 
     46 O          -2.7299  -16.6673  -41.7137 O.2       5 UNK        -0.5000 
     47 CA         -2.6438  -14.8312  -43.2581 C.3       5 UNK         0.1400 
     48 CB         -3.7682  -13.8606  -42.8693 C.3       5 UNK        -0.1800 
     49 N          -1.5880  -14.0853  -43.9511 N.am      5 UNK        -0.5000 
     50 C          -0.4947  -14.6156  -44.5141 C.2       4 UNK         0.5000 
     51 O          -0.2181  -15.8129  -44.4411 O.2       4 UNK        -0.5000 
     52 CA          0.4388  -13.6442  -45.2676 C.3       4 UNK         0.1400 
     53 CB          1.6467  -14.3572  -45.8989 C.3       4 UNK        -0.1800 
     54 N          -0.2708  -12.9035  -46.3116 N.am      4 UNK        -0.5000 
     55 C          -1.0605  -11.8400  -46.1069 C.2       3 UNK         0.5000 
     56 O          -1.2785  -11.3756  -44.9859 O.2       3 UNK        -0.5000 
     57 CA         -1.7573  -11.2221  -47.3374 C.3       3 UNK         0.1400 
     58 CB         -2.0063   -9.7068  -47.1846 C.3       3 UNK        -0.1800 
     59 N          -1.1007  -11.5239  -48.6151 N.am      3 UNK        -0.5000 
     60 C           0.1124  -11.1271  -49.0295 C.2       2 UNK         0.5000 
     61 O           0.8750  -10.4274  -48.3613 O.2       2 UNK        -0.5000 
     62 CA          0.5249  -11.6048  -50.4398 C.3       2 UNK         0.1400 
     63 CB          2.0433  -11.4968  -50.6955 C.3       2 UNK        -0.1800 
     64 N           0.0330  -12.9532  -50.7620 N.am      2 UNK        -0.5000 
     65 C           0.3471  -14.0918  -50.1237 C.2       1 UNK         0.5000 
     66 O           1.1037  -14.1425  -49.1518 O.2       1 UNK        -0.5000 
     67 C           0.0998  -23.9906  -46.4717 C.2       11 UNK         0.5000 
     68 O           0.4894  -24.8847  -47.2204 O.2       11 UNK        -0.5000 
     69 N          -1.1803  -23.8240  -46.1031 N.am      12 UNK        -0.5000 
     70 CA         -2.3236  -24.5952  -46.6055 C.3       12 UNK         0.1400 
     71 CB         -3.6155  -24.0407  -45.9864 C.3       12 UNK        -0.1800 
     72 C          -2.2340  -26.1165  -46.3723 C.2       12 UNK         0.5000 
     73 O          -2.8512  -26.8800  -47.1158 O.2       12 UNK        -0.5000 
     74 N          -1.4709  -26.5334  -45.3535 N.am      13 UNK        -0.5000 
     75 CA         -1.1941  -27.9369  -45.0533 C.3       13 UNK         0.1400 
     76 CB         -0.7852  -28.0566  -43.5769 C.3       13 UNK        -0.1800 
     77 C          -0.1088  -28.5427  -45.9663 C.2       13 UNK         0.5000 
     78 O          -0.0355  -29.7680  -46.0706 O.2       13 UNK        -0.5000 
     79 N           0.7186  -27.6946  -46.5920 N.am      14 UNK        -0.5000 
     80 CA          1.8413  -28.0929  -47.4373 C.3       14 UNK         0.1400 
     81 CB          3.0732  -27.2537  -47.0599 C.3       14 UNK        -0.1800 
     82 C           1.5239  -27.9343  -48.9328 C.2       14 UNK         0.5000 
     83 O           1.8877  -28.8127  -49.7165 O.2       14 UNK        -0.5000 
     84 N           0.8720  -26.8286  -49.3138 N.am      15 UNK        -0.5000 
     85 CA          0.6010  -26.4570  -50.7014 C.3       15 UNK         0.1400 
     86 CB          1.8901  -25.9045  -51.3462 C.3       15 UNK        -0.1800 
     87 C          -0.5360  -25.4258  -50.7753 C.2       15 UNK         0.5000 
     88 O          -1.0114  -24.9437  -49.7487 O.2       15 UNK        -0.5000 
     89 N          -0.9377  -25.0835  -51.9998 N.am      16 UNK        -0.5000 
     90 CA         -1.8714  -24.0097  -52.3150 C.3       16 UNK         0.1400 
     91 CB         -3.3150  -24.5403  -52.2829 C.3       16 UNK        -0.1800 
     92 C          -1.5002  -23.4621  -53.6989 C.2       16 UNK         0.5000 
     93 O          -0.8384  -24.1600  -54.4743 O.2       16 UNK        -0.5000 
     94 N          -1.9282  -22.2314  -53.9863 N.am      17 UNK        -0.5000 
     95 CA         -1.6540  -21.5361  -55.2388 C.3       17 UNK         0.1400 
     96 CB         -0.2773  -20.8438  -55.1611 C.3       17 UNK        -0.1800 
     97 C          -2.8302  -20.5980  -55.5458 C.2       17 UNK         0.5000 
     98 O          -3.9346  -21.0846  -55.7916 O.2       17 UNK        -0.5000 
     99 N          -2.5893  -19.2849  -55.5175 N.am      18 UNK        -0.5000 
    100 CA        -3.5634  -18.2282  -55.7605 C.3       18 UNK         0.1400 
    101 CB        -3.5993  -17.9035  -57.2646 C.3       18 UNK        -0.1800 
    102 C         -3.1730  -16.9960  -54.9310 C.2       18 UNK         0.5000 
    103 O         -2.0462  -16.9355  -54.4338 O.2       18 UNK        -0.5000 
    104 N         -4.1090  -16.0429  -54.8340 N.am      19 UNK        -0.5000 
    105 CA        -4.0495  -14.7612  -54.1202 C.3       19 UNK         0.1400 
    106 CB        -2.7939  -13.9453  -54.4907 C.3       19 UNK        -0.1800 
    107 C         -4.1974  -14.8915  -52.5924 C.2       19 UNK         0.5000 
    108 O         -3.7959  -15.8953  -51.9977 O.2       19 UNK        -0.5000 
    109 N         -4.7803  -13.8415  -51.9932 N.am      20 UNK        -0.5000 
    110 CA        -5.0843  -13.6672  -50.5690 C.3       20 UNK         0.1400 
    111 CB        -3.8043  -13.3173  -49.7870 C.3       20 UNK        -0.1800 
    112 C         -5.8732  -14.8604  -49.9949 C.2       20 UNK         0.5000 
    113 O         -7.0211  -15.0599  -50.3969 O.2       20 UNK        -0.5000 
    114 N         -5.2471  -15.6562  -49.1158 N.am      21 UNK        -0.5000 
    115 CA        -5.8240  -16.8616  -48.5120 C.3       21 UNK         0.1400 
    116 CB        -4.8435  -17.4075  -47.4644 C.3       21 UNK        -0.1800 
    117 C         -6.1952  -17.9636  -49.5279 C.2       21 UNK         0.5000 
    118 O         -7.0561  -18.7916  -49.2287 O.2       21 UNK        -0.5000 
    119 N         -5.5585  -17.9382  -50.7042 N.am      22 UNK        -0.5000 
    120 CA        -5.8373  -18.8106  -51.8522 C.3       22 UNK         0.1400 
    121 C         -6.6335  -18.0789  -52.9751 C.2       22 UNK         0.5000 
    122 N         -7.1546  -16.8749  -52.7631 N.am      22 UNK        -0.7600 
    123 O         -6.8061  -18.6191  -54.0632 O.2       22 UNK        -0.5000 
    124 C124       -4.5321  -19.4664  -52.3791 C.3       23 UNK        -0.0398 
    125 S125       -3.8978  -20.7534  -51.2513 S.3       23 UNK        -0.2404 
    126 C126       -2.8188  -19.7949  -50.1452 C.3       23 UNK        -0.0205 
    127 H127       -1.5671  -18.3393  -47.5497 H         1 UNK         0.0600 
    128 H128       -0.3367  -17.3982  -46.6874 H         1 UNK         0.0600 
    129 H129        0.1105  -18.3711  -48.0881 H         1 UNK         0.0600 
    130 H130        0.4037  -17.1904  -49.9103 H         1 UNK         0.3000 
    131 H131       -1.3564  -15.1466  -50.8528 H         1 UNK         0.0600 
    132 H132       -0.4490  -16.3964  -52.5633 H         1 UNK         0.0800 
    133 H133        0.4633  -14.9425  -52.6870 H         1 UNK         0.0800 
    134 H134        0.6917  -18.1800  -53.5236 H         1 UNK         0.0800 
    135 H135        2.2253  -18.8576  -53.0611 H         1 UNK         0.0800 
    136 H136       -1.3042  -18.4030  -51.9288 H         1 UNK         0.1150 
    137 H137       -1.0950  -21.6244  -49.1115 H         1 UNK         0.1150 
    138 H138        2.4423  -20.3514  -51.1681 H         1 UNK         0.1150 
    139 H139        0.9124  -23.0411  -49.1216 H         1 UNK         0.0800 
    140 H140        2.2946  -22.5980  -50.0770 H         1 UNK         0.0800 
    141 H141        1.4153  -20.8700  -45.8967 H         1 UNK         0.0800 
    142 H142        0.1872  -21.3913  -47.0006 H         1 UNK         0.0800 
    143 H143        2.1108  -23.5105  -45.9759 H         1 UNK         0.0600 
    144 H144        0.8610  -21.9571  -44.0390 H         1 UNK         0.3000 
    145 H145        0.6245  -24.4640  -41.4887 H         1 UNK         0.0600 
    146 H146        2.0757  -22.7729  -40.3882 H         1 UNK         0.0600 
    147 H147        2.9882  -23.7242  -41.5497 H         1 UNK         0.0600 
    148 H148        2.5001  -22.0839  -41.9536 H         1 UNK         0.0600 
    149 H149        0.0578  -21.5988  -41.9996 H         1 UNK         0.3000 
    150 H150       -3.4442  -22.0836  -42.0424 H         1 UNK         0.0600 
    151 H151       -3.0164  -22.0208  -39.5743 H         1 UNK         0.0600 
    152 H152       -3.4712  -20.4386  -40.1873 H         1 UNK         0.0600 
    153 H153       -1.7834  -20.7873  -39.8125 H         1 UNK         0.0600 
    154 H154       -1.9108  -19.7013  -42.0416 H         1 UNK         0.3000 
    155 H155       -0.9855  -19.6418  -45.4711 H         1 UNK         0.0600 
    156 H156       -2.3280  -17.5124  -45.3268 H         1 UNK         0.0600 
    157 H157       -3.1691  -18.1495  -43.9182 H         1 UNK         0.0600 
    158 H158       -3.3522  -18.9322  -45.4792 H         1 UNK         0.0600 
    159 H159       -0.5453  -17.5972  -43.7516 H         1 UNK         0.3000 
    160 H160        2.1971  -18.6604  -41.7868 H         1 UNK         0.0600 
    161 H161        2.1868  -17.0715  -44.4051 H         1 UNK         0.0600 
    162 H162        3.2953  -18.3591  -43.9616 H         1 UNK         0.0600 
    163 H163        3.3381  -16.8342  -43.0887 H         1 UNK         0.0600 
    164 H164        0.7363  -16.2075  -42.5313 H         1 UNK         0.3000 
    165 H165       -1.1823  -16.1454  -39.5521 H         1 UNK         0.0600 
    166 H166        1.2727  -14.4304  -40.2156 H         1 UNK         0.0600 
    167 H167       -0.0631  -13.9640  -39.1619 H         1 UNK         0.0600 
    168 H168        1.0000  -15.2838  -38.7013 H         1 UNK         0.0600 
    169 H169       -0.6979  -14.2615  -41.6877 H         1 UNK         0.3000 
    170 H170       -3.0515  -15.5530  -43.9680 H         1 UNK         0.0600 
    171 H171       -4.5860  -14.3866  -42.3748 H         1 UNK         0.0600 
    172 H172       -3.4132  -13.0875  -42.1867 H         1 UNK         0.0600 
    173 H173       -4.1847  -13.3674  -43.7479 H         1 UNK         0.0600 
    174 H174       -1.7273  -13.0859  -44.0609 H         1 UNK         0.3000 
    175 H175        0.8248  -12.9329  -44.5346 H         1 UNK         0.0600 
    176 H176        2.2735  -13.6581  -46.4530 H         1 UNK         0.0600 
    177 H177        2.2733  -14.8143  -45.1332 H         1 UNK         0.0600 
    178 H178        1.3360  -15.1443  -46.5874 H         1 UNK         0.0600 
    179 H179       -0.1540  -13.2477  -47.2557 H         1 UNK         0.3000 
    180 H180       -2.7351  -11.7012  -47.3827 H         1 UNK         0.0600 
    181 H181       -2.5097   -9.2992  -48.0613 H         1 UNK         0.0600 
    182 H182       -2.6419   -9.4990  -46.3231 H         1 UNK         0.0600 
    183 H183       -1.0773   -9.1542  -47.0428 H         1 UNK         0.0600 
    184 H184       -1.6262  -12.1176  -49.2392 H         1 UNK         0.3000 
    185 H185        0.0310  -10.9274  -51.1379 H         1 UNK         0.0600 
    186 H186        2.2990  -11.8333  -51.7002 H         1 UNK         0.0600 
    187 H187        2.3825  -10.4643  -50.6047 H         1 UNK         0.0600 
    188 H188        2.6189  -12.0918  -49.9859 H         1 UNK         0.0600 
    189 H189       -0.5965  -12.9994  -51.5509 H         1 UNK         0.3000 
    190 H190       -1.4113  -23.0692  -45.4600 H         1 UNK         0.3000 
    191 H191       -2.3794  -24.4340  -47.6818 H         1 UNK         0.0600 
    192 H192       -4.4889  -24.5933  -46.3353 H         1 UNK         0.0600 
    193 H193       -3.7656  -22.9961  -46.2594 H         1 UNK         0.0600 
    194 H194       -3.5972  -24.1045  -44.8975 H         1 UNK         0.0600 
    195 H195       -0.9770  -25.8444  -44.8028 H         1 UNK         0.3000 
    196 H196       -2.1087  -28.5161  -45.1975 H         1 UNK         0.0600 
    197 H197       -0.6312  -29.0998  -43.2983 H         1 UNK         0.0600 
    198 H198       -1.5560  -27.6549  -42.9188 H         1 UNK         0.0600 
    199 H199        0.1433  -27.5232  -43.3712 H         1 UNK         0.0600 
    200 H200        0.5575  -26.6958  -46.5101 H         1 UNK         0.3000 
    201 H201        2.0919  -29.1411  -47.2616 H         1 UNK         0.0600 
    202 H202        3.3404  -27.3972  -46.0128 H         1 UNK         0.0600 
    203 H203        2.9027  -26.1879  -47.2170 H         1 UNK         0.0600 
    204 H204        3.9385  -27.5393  -47.6593 H         1 UNK         0.0600 
    205 H205        0.5740  -26.1432  -48.6205 H         1 UNK         0.3000 
    206 H206        0.2717  -27.3428  -51.2484 H         1 UNK         0.0600 
    207 H207        2.6879  -26.6471  -51.3436 H         1 UNK         0.0600 
    208 H208        1.7295  -25.6179  -52.3859 H         1 UNK         0.0600 
    209 H209        2.2540  -25.0247  -50.8149 H         1 UNK         0.0600 
    210 H210       -0.4797  -25.4731  -52.8149 H         1 UNK         0.3000 
    211 H211       -1.7606  -23.2018  -51.5878 H         1 UNK         0.0600 
    212 H212       -3.4602  -25.3516  -52.9971 H         1 UNK         0.0600 
    213 H213       -4.0279  -23.7523  -52.5283 H         1 UNK         0.0600 
    214 H214       -3.5746  -24.9142  -51.2923 H         1 UNK         0.0600 
    215 H215       -2.5028  -21.7341  -53.3185 H         1 UNK         0.3000 
    216 H216       -1.6258  -22.2574  -56.0584 H         1 UNK         0.0600 
    217 H217       -0.0604  -20.2814  -56.0701 H         1 UNK         0.0600 
    218 H218        0.5220  -21.5751  -55.0402 H         1 UNK         0.0600 
    219 H219       -0.2244  -20.1603  -54.3159 H         1 UNK         0.0600 
    220 H220       -1.6795  -18.9444  -55.2329 H         1 UNK         0.3000 
    221 H221       -4.5515  -18.5578  -55.4374 H         1 UNK         0.0600 
    222 H222       -2.6291  -17.5566  -57.6225 H         1 UNK         0.0600 
    223 H223       -3.8780  -18.7795  -57.8506 H         1 UNK         0.0600 
    224 H224       -4.3294  -17.1239  -57.4840 H         1 UNK         0.0600 
    225 H225       -5.0011  -16.2304  -55.2695 H         1 UNK         0.3000 
    226 H226       -4.9162  -14.2044  -54.4801 H         1 UNK         0.0600 
    227 H227       -2.6725  -13.8744  -55.5716 H         1 UNK         0.0600 
    228 H228       -2.8641  -12.9276  -54.1053 H         1 UNK         0.0600 
    229 H229       -1.8842  -14.3814  -54.0774 H         1 UNK         0.0600 
    230 H230       -5.0972  -13.0846  -52.5826 H         1 UNK         0.3000 
    231 H231       -5.7523  -12.8075  -50.4980 H         1 UNK         0.0600 
    232 H232       -4.0221  -13.1641  -48.7297 H         1 UNK         0.0600 
    233 H233       -3.3644  -12.3960  -50.1673 H         1 UNK         0.0600 
    234 H234       -3.0560  -14.1018  -49.8628 H         1 UNK         0.0600 
    235 H235       -4.2870  -15.4501  -48.8728 H         1 UNK         0.3000 
    236 H236       -6.7429  -16.5677  -48.0009 H         1 UNK         0.0600 
    237 H237       -4.6207  -16.6615  -46.7012 H         1 UNK         0.0600 
    238 H238       -5.2604  -18.2784  -46.9571 H         1 UNK         0.0600 
    239 H239       -3.9016  -17.7120  -47.9202 H         1 UNK         0.0600 
    240 H240       -4.8922  -17.1935  -50.8846 H         1 UNK         0.3000 
    241 H241       -6.5007  -19.6186  -51.5393 H         1 UNK         0.0600 
    242 H242       -7.0710  -16.4108  -51.8653 H         1 UNK         0.3800 
    243 H243       -7.6935  -16.4405  -53.4948 H         1 UNK         0.3800 
    244 H244       -4.7138  -19.9643  -53.3315 H         1 UNK         0.0800 
    245 H245       -3.7612  -18.7175  -52.5647 H         1 UNK         0.0800 
    246 H246       -3.0099  -20.1091  -49.1180 H         1 UNK         0.0800 
    247 H247       -3.0652  -18.7338  -50.1818 H         1 UNK         0.0800 
@<TRIPOS>BOND
     1    1    2 1    
     2    1  127 1    
     3    1  128 1    
     4    1  129 1    
     5    2    3 2    
     6    2    4 am   BACKBONE|DICT|INTERRES
     7    4    5 1    
     8    4  130 1    
     9    5    6 1    
    10    5   65 1    
    11    5  131 1    
    12    6    7 1    
    13    6  132 1    
    14    6  133 1    
    15    7    8 1    
    16    8    9 1    
    17    8  134 1    
    18    8  135 1    
    19    9   10 ar   
    20    9   14 ar   
    21   10   11 ar   
    22   10  136 1    
    23   11   12 ar   
    24   11  126 1    
    25   12   13 ar   
    26   12  137 1    
    27   13   14 ar   
    28   13   15 1    
    29   14  138 1    
    30   15   16 1    
    31   15  139 1    
    32   15  140 1    
    33   16   17 1    
    34   17   18 1    
    35   17  141 1    
    36   17  142 1    
    37   18   19 1    
    38   18   67 1    
    39   18  143 1    
    40   19   20 am   BACKBONE|DICT|INTERRES
    41   19  144 1    
    42   20   21 2    
    43   20   22 1    
    44   22   23 1    
    45   22   24 1    
    46   22  145 1    
    47   23  146 1    
    48   23  147 1    
    49   23  148 1    
    50   24   25 am   BACKBONE|DICT|INTERRES
    51   24  149 1    
    52   25   26 2    
    53   25   27 1    
    54   27   28 1    
    55   27   29 1    
    56   27  150 1    
    57   28  151 1    
    58   28  152 1    
    59   28  153 1    
    60   29   30 am   BACKBONE|DICT|INTERRES
    61   29  154 1    
    62   30   31 2    
    63   30   32 1    
    64   32   33 1    
    65   32   34 1    
    66   32  155 1    
    67   33  156 1    
    68   33  157 1    
    69   33  158 1    
    70   34   35 am   BACKBONE|DICT|INTERRES
    71   34  159 1    
    72   35   36 2    
    73   35   37 1    
    74   37   38 1    
    75   37   39 1    
    76   37  160 1    
    77   38  161 1    
    78   38  162 1    
    79   38  163 1    
    80   39   40 am   BACKBONE|DICT|INTERRES
    81   39  164 1    
    82   40   41 2    
    83   40   42 1    
    84   42   43 1    
    85   42   44 1    
    86   42  165 1    
    87   43  166 1    
    88   43  167 1    
    89   43  168 1    
    90   44   45 am   BACKBONE|DICT|INTERRES
    91   44  169 1    
    92   45   46 2    
    93   45   47 1    
    94   47   48 1    
    95   47   49 1    
    96   47  170 1    
    97   48  171 1    
    98   48  172 1    
    99   48  173 1    
   100   49   50 am   BACKBONE|DICT|INTERRES
   101   49  174 1    
   102   50   51 2    
   103   50   52 1    
   104   52   53 1    
   105   52   54 1    
   106   52  175 1    
   107   53  176 1    
   108   53  177 1    
   109   53  178 1    
   110   54   55 am   BACKBONE|DICT|INTERRES
   111   54  179 1    
   112   55   56 2    
   113   55   57 1    
   114   57   58 1    
   115   57   59 1    
   116   57  180 1    
   117   58  181 1    
   118   58  182 1    
   119   58  183 1    
   120   59   60 am   BACKBONE|DICT|INTERRES
   121   59  184 1    
   122   60   61 2    
   123   60   62 1    
   124   62   63 1    
   125   62   64 1    
   126   62  185 1    
   127   63  186 1    
   128   63  187 1    
   129   63  188 1    
   130   64   65 am   BACKBONE|DICT|INTERRES
   131   64  189 1    
   132   65   66 2    
   133   67   68 2    
   134   67   69 am   BACKBONE|DICT|INTERRES
   135   69   70 1    
   136   69  190 1    
   137   70   71 1    
   138   70   72 1    
   139   70  191 1    
   140   71  192 1    
   141   71  193 1    
   142   71  194 1    
   143   72   73 2    
   144   72   74 am   BACKBONE|DICT|INTERRES
   145   74   75 1    
   146   74  195 1    
   147   75   76 1    
   148   75   77 1    
   149   75  196 1    
   150   76  197 1    
   151   76  198 1    
   152   76  199 1    
   153   77   78 2    
   154   77   79 am   BACKBONE|DICT|INTERRES
   155   79   80 1    
   156   79  200 1    
   157   80   81 1    
   158   80   82 1    
   159   80  201 1    
   160   81  202 1    
   161   81  203 1    
   162   81  204 1    
   163   82   83 2    
   164   82   84 am   BACKBONE|DICT|INTERRES
   165   84   85 1    
   166   84  205 1    
   167   85   86 1    
   168   85   87 1    
   169   85  206 1    
   170   86  207 1    
   171   86  208 1    
   172   86  209 1    
   173   87   88 2    
   174   87   89 am   BACKBONE|DICT|INTERRES
   175   89   90 1    
   176   89  210 1    
   177   90   91 1    
   178   90   92 1    
   179   90  211 1    
   180   91  212 1    
   181   91  213 1    
   182   91  214 1    
   183   92   93 2    
   184   92   94 am   BACKBONE|DICT|INTERRES
   185   94   95 1    
   186   94  215 1    
   187   95   96 1    
   188   95   97 1    
   189   95  216 1    
   190   96  217 1    
   191   96  218 1    
   192   96  219 1    
   193   97   98 2    
   194   97   99 am   BACKBONE|DICT|INTERRES
   195   99  100 1    
   196   99  220 1    
   197  100  101 1    
   198  100  102 1    
   199  100  221 1    
   200  101  222 1    
   201  101  223 1    
   202  101  224 1    
   203  102  103 2    
   204  102  104 am   BACKBONE|DICT|INTERRES
   205  104  105 1    
   206  104  225 1    
   207  105  106 1    
   208  105  107 1    
   209  105  226 1    
   210  106  227 1    
   211  106  228 1    
   212  106  229 1    
   213  107  108 2    
   214  107  109 am   BACKBONE|DICT|INTERRES
   215  109  110 1    
   216  109  230 1    
   217  110  111 1    
   218  110  112 1    
   219  110  231 1    
   220  111  232 1    
   221  111  233 1    
   222  111  234 1    
   223  112  113 2    
   224  112  114 am   BACKBONE|DICT|INTERRES
   225  114  115 1    
   226  114  235 1    
   227  115  116 1    
   228  115  117 1    
   229  115  236 1    
   230  116  237 1    
   231  116  238 1    
   232  116  239 1    
   233  117  118 2    
   234  117  119 am   BACKBONE|DICT|INTERRES
   235  119  120 1    
   236  119  240 1    
   237  120  121 1    
   238  120  124 1    
   239  120  241 1    
   240  121  122 am   BACKBONE|DICT|INTERRES
   241  121  123 2    
   242  122  242 1    
   243  122  243 1    
   244  124  125 1    
   245  124  244 1    
   246  124  245 1    
   247  125  126 1    
   248  126  246 1    
   249  126  247 1    
@<TRIPOS>SUBSTRUCTURE
     1 UNK         1 GROUP             0       ****    0 ROOT    
