@<TRIPOS>MOLECULE
3R540
247   249    1
SMALL
USER_CHARGES


@<TRIPOS>ATOM
      1 CA         -3.2399  -13.5858  -51.4574 C.3       0 UNK        -0.1800 
      2 C          -1.7902  -13.4148  -51.0276 C.2       0 UNK         0.5000 
      3 O          -1.1916  -12.3711  -51.2900 O.2       0 UNK        -0.5000 
      4 N          -1.2212  -14.4439  -50.3905 N.am      1 UNK        -0.5000 
      5 CA          0.1632  -14.4799  -49.9097 C.3       1 UNK         0.1400 
      6 C6          0.6290  -15.9103  -49.5378 C.3       23 UNK        -0.0398 
      7 S7          0.3055  -17.1531  -50.8344 S.3       23 UNK        -0.2404 
      8 C8         -0.9086  -18.2299  -50.0147 C.3       23 UNK        -0.0205 
      9 C9         -2.2918  -17.6024  -49.9182 C.ar      23 UNK        -0.0193 
     10 C10        -3.2253  -17.8108  -50.9374 C.ar      23 UNK        -0.1150 
     11 C11        -4.5255  -17.3121  -50.8219 C.ar      23 UNK        -0.0193 
     12 C12        -4.8775  -16.5634  -49.6976 C.ar      23 UNK        -0.1150 
     13 C13        -3.9475  -16.3248  -48.6821 C.ar      23 UNK        -0.0193 
     14 C14        -2.6597  -16.8572  -48.7923 C.ar      23 UNK        -0.1150 
     15 C15        -4.3575  -15.5102  -47.4611 C.3       23 UNK        -0.0205 
     16 S16        -4.2753  -16.4239  -45.8798 S.3       23 UNK        -0.2404 
     17 C17        -4.8643  -18.1039  -46.2891 C.3       23 UNK        -0.0398 
     18 CA         -3.7986  -19.1548  -45.8932 C.3       11 UNK         0.1400 
     19 N          -3.8132  -19.4159  -44.4493 N.am      11 UNK        -0.5000 
     20 C          -2.9096  -20.1476  -43.7880 C.2       10 UNK         0.5000 
     21 O          -1.9239  -20.6690  -44.3160 O.2       10 UNK        -0.5000 
     22 CA         -3.1970  -20.3900  -42.3025 C.3       10 UNK         0.1400 
     23 CB         -3.9884  -21.6984  -42.1144 C.3       10 UNK        -0.1800 
     24 N          -1.9327  -20.4388  -41.5818 N.am      10 UNK        -0.5000 
     25 C          -1.7793  -20.3436  -40.2563 C.2       9 UNK         0.5000 
     26 O          -2.7263  -20.2703  -39.4709 O.2       9 UNK        -0.5000 
     27 CA         -0.3379  -20.2707  -39.7067 C.3       9 UNK         0.1400 
     28 CB         -0.1511  -21.0988  -38.4184 C.3       9 UNK        -0.1800 
     29 N           0.7052  -20.5745  -40.6920 N.am      9 UNK        -0.5000 
     30 C           1.0014  -21.7499  -41.2649 C.2       8 UNK         0.5000 
     31 O           0.4087  -22.8023  -41.0284 O.2       8 UNK        -0.5000 
     32 CA          2.1452  -21.7447  -42.2994 C.3       8 UNK         0.1400 
     33 CB          1.5730  -21.8899  -43.7153 C.3       8 UNK        -0.1800 
     34 N           2.9648  -20.5302  -42.2420 N.am      8 UNK        -0.5000 
     35 C           3.9197  -20.3072  -41.3279 C.2       7 UNK         0.5000 
     36 O           4.2408  -21.1225  -40.4625 O.2       7 UNK        -0.5000 
     37 CA          4.6139  -18.9332  -41.3690 C.3       7 UNK         0.1400 
     38 CB          5.6657  -18.8865  -42.4875 C.3       7 UNK        -0.1800 
     39 N           3.6765  -17.8205  -41.5331 N.am      7 UNK        -0.5000 
     40 C           2.7469  -17.4594  -40.6364 C.2       6 UNK         0.5000 
     41 O           2.5673  -18.0351  -39.5637 O.2       6 UNK        -0.5000 
     42 CA          1.8431  -16.2734  -41.0156 C.3       6 UNK         0.1400 
     43 CB          2.5396  -14.9328  -40.7351 C.3       6 UNK        -0.1800 
     44 N           1.4354  -16.3342  -42.4177 N.am      6 UNK        -0.5000 
     45 C           0.5199  -17.1880  -42.8954 C.2       5 UNK         0.5000 
     46 O          -0.1239  -17.9630  -42.1903 O.2       5 UNK        -0.5000 
     47 CA          0.3141  -17.2039  -44.4193 C.3       5 UNK         0.1400 
     48 CB         -0.7389  -16.1685  -44.8343 C.3       5 UNK        -0.1800 
     49 N           1.5557  -16.9647  -45.1581 N.am      5 UNK        -0.5000 
     50 C           2.5950  -17.8142  -45.1800 C.2       4 UNK         0.5000 
     51 O           2.6070  -18.8940  -44.5906 O.2       4 UNK        -0.5000 
     52 CA          3.8543  -17.3622  -45.9436 C.3       4 UNK         0.1400 
     53 CB          3.7471  -17.7495  -47.4253 C.3       4 UNK        -0.1800 
     54 N           4.1139  -15.9256  -45.8271 N.am      4 UNK        -0.5000 
     55 C           4.3203  -15.2822  -44.6691 C.2       3 UNK         0.5000 
     56 O           4.3729  -15.8523  -43.5791 O.2       3 UNK        -0.5000 
     57 CA          4.4458  -13.7470  -44.7170 C.3       3 UNK         0.1400 
     58 CB          5.9231  -13.3328  -44.6466 C.3       3 UNK        -0.1800 
     59 N           3.8231  -13.0938  -45.8754 N.am      3 UNK        -0.5000 
     60 C           2.5346  -13.1747  -46.2403 C.2       2 UNK         0.5000 
     61 O           1.7270  -13.9325  -45.7002 O.2       2 UNK        -0.5000 
     62 CA          2.0708  -12.2706  -47.4035 C.3       2 UNK         0.1400 
     63 CB          3.1483  -11.2874  -47.9061 C.3       2 UNK        -0.1800 
     64 N           1.6224  -13.0862  -48.5301 N.am      2 UNK        -0.5000 
     65 C           0.3744  -13.5389  -48.7040 C.2       1 UNK         0.5000 
     66 O          -0.5667  -13.2760  -47.9505 O.2       1 UNK        -0.5000 
     67 C          -3.9652  -20.4502  -46.7098 C.2       11 UNK         0.5000 
     68 O          -3.2520  -20.6409  -47.6935 O.2       11 UNK        -0.5000 
     69 N          -4.8607  -21.3414  -46.2597 N.am      12 UNK        -0.5000 
     70 CA         -5.1042  -22.6447  -46.8812 C.3       12 UNK         0.1400 
     71 CB         -6.3452  -23.2900  -46.2484 C.3       12 UNK        -0.1800 
     72 C          -3.8951  -23.5927  -46.7872 C.2       12 UNK         0.5000 
     73 O          -3.6589  -24.3613  -47.7199 O.2       12 UNK        -0.5000 
     74 N          -3.1406  -23.5017  -45.6831 N.am      13 UNK        -0.5000 
     75 CA         -1.9044  -24.2517  -45.4678 C.3       13 UNK         0.1400 
     76 CB         -1.5369  -24.2317  -43.9762 C.3       13 UNK        -0.1800 
     77 C          -0.7525  -23.7080  -46.3290 C.2       13 UNK         0.5000 
     78 O          -0.0151  -24.4981  -46.9177 O.2       13 UNK        -0.5000 
     79 N          -0.6424  -22.3742  -46.4132 N.am      14 UNK        -0.5000 
     80 CA          0.3460  -21.6700  -47.2311 C.3       14 UNK         0.1400 
     81 CB          0.3071  -20.1742  -46.8968 C.3       14 UNK        -0.1800 
     82 C           0.1422  -21.8896  -48.7394 C.2       14 UNK         0.5000 
     83 O           1.1152  -22.1193  -49.4580 O.2       14 UNK        -0.5000 
     84 N          -1.1195  -21.8304  -49.1858 N.am      15 UNK        -0.5000 
     85 CA         -1.5157  -22.0738  -50.5725 C.3       15 UNK         0.1400 
     86 CB         -2.9322  -21.5224  -50.7841 C.3       15 UNK        -0.1800 
     87 C          -1.4581  -23.5618  -50.9670 C.2       15 UNK         0.5000 
     88 O          -1.3121  -23.8611  -52.1511 O.2       15 UNK        -0.5000 
     89 N          -1.5685  -24.4502  -49.9677 N.am      16 UNK        -0.5000 
     90 CA         -1.6840  -25.9059  -50.0662 C.3       16 UNK         0.1400 
     91 CB         -0.4490  -26.5365  -50.7444 C.3       16 UNK        -0.1800 
     92 C          -3.0236  -26.3038  -50.7150 C.2       16 UNK         0.5000 
     93 O          -3.0477  -26.8607  -51.8138 O.2       16 UNK        -0.5000 
     94 N          -4.1098  -25.9920  -49.9933 N.am      17 UNK        -0.5000 
     95 CA         -5.5177  -26.2064  -50.3410 C.3       17 UNK         0.1400 
     96 CB         -5.8271  -27.6979  -50.5946 C.3       17 UNK        -0.1800 
     97 C          -5.9796  -25.2734  -51.4775 C.2       17 UNK         0.5000 
     98 O          -6.4565  -25.7377  -52.5152 O.2       17 UNK        -0.5000 
     99 N          -5.8442  -23.9636  -51.2222 N.am      18 UNK        -0.5000 
    100 CA        -6.2234  -22.8347  -52.0820 C.3       18 UNK         0.1400 
    101 CB        -7.7416  -22.8457  -52.3706 C.3       18 UNK        -0.1800 
    102 C         -5.3636  -22.7160  -53.3601 C.2       18 UNK         0.5000 
    103 O         -4.3305  -23.3767  -53.4740 O.2       18 UNK        -0.5000 
    104 N         -5.7812  -21.8239  -54.2706 N.am      19 UNK        -0.5000 
    105 CA        -5.0500  -21.3662  -55.4568 C.3       19 UNK         0.1400 
    106 CB        -4.8138  -22.5146  -56.4645 C.3       19 UNK        -0.1800 
    107 C         -3.7824  -20.5851  -55.0512 C.2       19 UNK         0.5000 
    108 O         -3.9010  -19.6389  -54.2706 O.2       19 UNK        -0.5000 
    109 N         -2.6114  -20.9542  -55.5916 N.am      20 UNK        -0.5000 
    110 CA        -1.3160  -20.2905  -55.4025 C.3       20 UNK         0.1400 
    111 CB        -0.8096  -20.4840  -53.9545 C.3       20 UNK        -0.1800 
    112 C         -1.3887  -18.8183  -55.8584 C.2       20 UNK         0.5000 
    113 O         -1.6678  -18.5733  -57.0342 O.2       20 UNK        -0.5000 
    114 N         -1.2039  -17.8694  -54.9296 N.am      21 UNK        -0.5000 
    115 CA        -1.3514  -16.4276  -55.1522 C.3       21 UNK         0.1400 
    116 CB        -0.9620  -15.6803  -53.8689 C.3       21 UNK        -0.1800 
    117 C         -2.7628  -16.0012  -55.6057 C.2       21 UNK         0.5000 
    118 O         -2.8933  -14.9716  -56.2692 O.2       21 UNK        -0.5000 
    119 N         -3.7806  -16.8004  -55.2619 N.am      22 UNK        -0.5000 
    120 CA        -5.1749  -16.6139  -55.6899 C.3       22 UNK         0.1400 
    121 C         -5.5089  -17.3219  -57.0371 C.2       22 UNK         0.5000 
    122 N         -4.5759  -18.0044  -57.6935 N.am      22 UNK        -0.7600 
    123 O         -6.6407  -17.2440  -57.5066 O.2       22 UNK        -0.5000 
    124 C124       -6.1841  -17.0095  -54.5800 C.3       23 UNK        -0.0398 
    125 S125       -5.8351  -16.1858  -52.9851 S.3       23 UNK        -0.2404 
    126 C126       -5.5605  -17.6139  -51.8915 C.3       23 UNK        -0.0205 
    127 H127       -3.5603  -14.6238  -51.3787 H         1 UNK         0.0600 
    128 H128       -3.3658  -13.2774  -52.4954 H         1 UNK         0.0600 
    129 H129       -3.8938  -12.9760  -50.8342 H         1 UNK         0.0600 
    130 H130       -1.7679  -15.2717  -50.1965 H         1 UNK         0.3000 
    131 H131        0.7938  -14.1256  -50.7282 H         1 UNK         0.0600 
    132 H132        0.1870  -16.2366  -48.5959 H         1 UNK         0.0800 
    133 H133        1.7061  -15.9061  -49.3685 H         1 UNK         0.0800 
    134 H134       -0.9674  -19.1617  -50.5761 H         1 UNK         0.0800 
    135 H135       -0.5476  -18.4999  -49.0242 H         1 UNK         0.0800 
    136 H136       -2.9518  -18.3933  -51.8064 H         1 UNK         0.1150 
    137 H137       -5.8824  -16.1738  -49.6137 H         1 UNK         0.1150 
    138 H138       -1.9547  -16.7013  -47.9897 H         1 UNK         0.1150 
    139 H139       -3.7122  -14.6331  -47.3916 H         1 UNK         0.0800 
    140 H140       -5.3727  -15.1291  -47.5809 H         1 UNK         0.0800 
    141 H141       -5.1144  -18.1690  -47.3475 H         1 UNK         0.0800 
    142 H142       -5.8037  -18.2842  -45.7644 H         1 UNK         0.0800 
    143 H143       -2.8108  -18.7632  -46.1478 H         1 UNK         0.0600 
    144 H144       -4.5841  -19.0131  -43.9364 H         1 UNK         0.3000 
    145 H145       -3.7829  -19.5520  -41.9192 H         1 UNK         0.0600 
    146 H146       -4.2842  -21.8395  -41.0751 H         1 UNK         0.0600 
    147 H147       -4.9026  -21.6958  -42.7091 H         1 UNK         0.0600 
    148 H148       -3.4034  -22.5680  -42.4120 H         1 UNK         0.0600 
    149 H149       -1.1101  -20.4417  -42.1711 H         1 UNK         0.3000 
    150 H150       -0.1824  -19.2240  -39.4415 H         1 UNK         0.0600 
    151 H151        0.8705  -21.0221  -38.0458 H         1 UNK         0.0600 
    152 H152       -0.8109  -20.7434  -37.6262 H         1 UNK         0.0600 
    153 H153       -0.3745  -22.1539  -38.5768 H         1 UNK         0.0600 
    154 H154        1.2449  -19.7738  -40.9904 H         1 UNK         0.3000 
    155 H155        2.7825  -22.6085  -42.0993 H         1 UNK         0.0600 
    156 H156        0.8225  -21.1258  -43.9154 H         1 UNK         0.0600 
    157 H157        1.0958  -22.8610  -43.8438 H         1 UNK         0.0600 
    158 H158        2.3513  -21.8079  -44.4741 H         1 UNK         0.0600 
    159 H159        2.7944  -19.8329  -42.9638 H         1 UNK         0.3000 
    160 H160        5.1287  -18.7926  -40.4164 H         1 UNK         0.0600 
    161 H161        5.2151  -19.0306  -43.4692 H         1 UNK         0.0600 
    162 H162        6.4133  -19.6689  -42.3522 H         1 UNK         0.0600 
    163 H163        6.1910  -17.9312  -42.4968 H         1 UNK         0.0600 
    164 H164        3.7885  -17.2530  -42.3682 H         1 UNK         0.3000 
    165 H165        0.9474  -16.3219  -40.3922 H         1 UNK         0.0600 
    166 H166        1.8859  -14.0926  -40.9696 H         1 UNK         0.0600 
    167 H167        2.8100  -14.8498  -39.6817 H         1 UNK         0.0600 
    168 H168        3.4546  -14.8177  -41.3161 H         1 UNK         0.0600 
    169 H169        1.9488  -15.7593  -43.0699 H         1 UNK         0.3000 
    170 H170       -0.0658  -18.1907  -44.6859 H         1 UNK         0.0600 
    171 H171       -1.6844  -16.3543  -44.3239 H         1 UNK         0.0600 
    172 H172       -0.4282  -15.1529  -44.5873 H         1 UNK         0.0600 
    173 H173       -0.9324  -16.2073  -45.9057 H         1 UNK         0.0600 
    174 H174        1.6501  -16.0570  -45.6000 H         1 UNK         0.3000 
    175 H175        4.7100  -17.8878  -45.5163 H         1 UNK         0.0600 
    176 H176        2.8982  -17.2654  -47.9063 H         1 UNK         0.0600 
    177 H177        4.6486  -17.4760  -47.9737 H         1 UNK         0.0600 
    178 H178        3.6140  -18.8266  -47.5366 H         1 UNK         0.0600 
    179 H179        4.0852  -15.3821  -46.6764 H         1 UNK         0.3000 
    180 H180        3.9443  -13.3642  -43.8258 H         1 UNK         0.0600 
    181 H181        6.4722  -13.6521  -45.5332 H         1 UNK         0.0600 
    182 H182        6.4139  -13.7763  -43.7790 H         1 UNK         0.0600 
    183 H183        6.0270  -12.2513  -44.5572 H         1 UNK         0.0600 
    184 H184        4.4161  -12.4595  -46.3909 H         1 UNK         0.3000 
    185 H185        1.2364  -11.6761  -47.0256 H         1 UNK         0.0600 
    186 H186        3.4953  -10.6344  -47.1039 H         1 UNK         0.0600 
    187 H187        4.0147  -11.8023  -48.3233 H         1 UNK         0.0600 
    188 H188        2.7461  -10.6406  -48.6863 H         1 UNK         0.0600 
    189 H189        2.3384  -13.3617  -49.1868 H         1 UNK         0.3000 
    190 H190       -5.4048  -21.1173  -45.4399 H         1 UNK         0.3000 
    191 H191       -5.3092  -22.4786  -47.9410 H         1 UNK         0.0600 
    192 H192       -7.2272  -22.6637  -46.3830 H         1 UNK         0.0600 
    193 H193       -6.5608  -24.2555  -46.7082 H         1 UNK         0.0600 
    194 H194       -6.2118  -23.4580  -45.1789 H         1 UNK         0.0600 
    195 H195       -3.3870  -22.8188  -44.9834 H         1 UNK         0.3000 
    196 H196       -2.0770  -25.2908  -45.7573 H         1 UNK         0.0600 
    197 H197       -0.6298  -24.8082  -43.7909 H         1 UNK         0.0600 
    198 H198       -2.3283  -24.6716  -43.3694 H         1 UNK         0.0600 
    199 H199       -1.3586  -23.2194  -43.6130 H         1 UNK         0.0600 
    200 H200       -1.2611  -21.7957  -45.8541 H         1 UNK         0.3000 
    201 H201        1.3347  -22.0520  -46.9686 H         1 UNK         0.0600 
    202 H202        0.5671  -20.0115  -45.8554 H         1 UNK         0.0600 
    203 H203       -0.6825  -19.7477  -47.0585 H         1 UNK         0.0600 
    204 H204        1.0216  -19.6135  -47.5004 H         1 UNK         0.0600 
    205 H205       -1.8608  -21.5631  -48.5415 H         1 UNK         0.3000 
    206 H206       -0.8302  -21.5270  -51.2218 H         1 UNK         0.0600 
    207 H207       -3.0237  -20.5018  -50.4190 H         1 UNK         0.0600 
    208 H208       -3.1849  -21.5095  -51.8436 H         1 UNK         0.0600 
    209 H209       -3.6780  -22.1231  -50.2633 H         1 UNK         0.0600 
    210 H210       -1.6979  -24.0775  -49.0368 H         1 UNK         0.3000 
    211 H211       -1.7085  -26.2767  -49.0401 H         1 UNK         0.0600 
    212 H212       -0.3682  -26.2629  -51.7963 H         1 UNK         0.0600 
    213 H213       -0.4986  -27.6248  -50.6973 H         1 UNK         0.0600 
    214 H214        0.4709  -26.2304  -50.2462 H         1 UNK         0.0600 
    215 H215       -3.9538  -25.4932  -49.1185 H         1 UNK         0.3000 
    216 H216       -6.0887  -25.9136  -49.4584 H         1 UNK         0.0600 
    217 H217       -6.8999  -27.8544  -50.7122 H         1 UNK         0.0600 
    218 H218       -5.4987  -28.3164  -49.7593 H         1 UNK         0.0600 
    219 H219       -5.3465  -28.0714  -51.4989 H         1 UNK         0.0600 
    220 H220       -5.3939  -23.7095  -50.3562 H         1 UNK         0.3000 
    221 H221       -6.0104  -21.9392  -51.4964 H         1 UNK         0.0600 
    222 H222       -8.0150  -23.6297  -53.0775 H         1 UNK         0.0600 
    223 H223       -8.3146  -23.0059  -51.4571 H         1 UNK         0.0600 
    224 H224       -8.0756  -21.8964  -52.7897 H         1 UNK         0.0600 
    225 H225       -6.6292  -21.3131  -54.0722 H         1 UNK         0.3000 
    226 H226       -5.6981  -20.6382  -55.9470 H         1 UNK         0.0600 
    227 H227       -5.7511  -23.0142  -56.7092 H         1 UNK         0.0600 
    228 H228       -4.4020  -22.1355  -57.4006 H         1 UNK         0.0600 
    229 H229       -4.1282  -23.2714  -56.0827 H         1 UNK         0.0600 
    230 H230       -2.6132  -21.7305  -56.2374 H         1 UNK         0.3000 
    231 H231       -0.6086  -20.7843  -56.0700 H         1 UNK         0.0600 
    232 H232       -1.4717  -20.0311  -53.2161 H         1 UNK         0.0600 
    233 H233        0.1835  -20.0531  -53.8215 H         1 UNK         0.0600 
    234 H234       -0.7312  -21.5447  -53.7164 H         1 UNK         0.0600 
    235 H235       -1.0021  -18.1575  -53.9836 H         1 UNK         0.3000 
    236 H236       -0.6545  -16.1409  -55.9423 H         1 UNK         0.0600 
    237 H237        0.0728  -15.8819  -53.5931 H         1 UNK         0.0600 
    238 H238       -1.0564  -14.6012  -53.9973 H         1 UNK         0.0600 
    239 H239       -1.5987  -15.9671  -53.0309 H         1 UNK         0.0600 
    240 H240       -3.5941  -17.6477  -54.7368 H         1 UNK         0.3000 
    241 H241       -5.3314  -15.5509  -55.8815 H         1 UNK         0.0600 
    242 H242       -3.6230  -18.0608  -57.3525 H         1 UNK         0.3800 
    243 H243       -4.8139  -18.4390  -58.5708 H         1 UNK         0.3800 
    244 H244       -6.2004  -18.0923  -54.4519 H         1 UNK         0.0800 
    245 H245       -7.1966  -16.7307  -54.8762 H         1 UNK         0.0800 
    246 H246       -5.2433  -18.4845  -52.4629 H         1 UNK         0.0800 
    247 H247       -6.5061  -17.8910  -51.4235 H         1 UNK         0.0800 
@<TRIPOS>BOND
     1    1    2 1    
     2    1  127 1    
     3    1  128 1    
     4    1  129 1    
     5    2    3 2    
     6    2    4 am   BACKBONE|DICT|INTERRES
     7    4    5 1    
     8    4  130 1    
     9    5    6 1    
    10    5   65 1    
    11    5  131 1    
    12    6    7 1    
    13    6  132 1    
    14    6  133 1    
    15    7    8 1    
    16    8    9 1    
    17    8  134 1    
    18    8  135 1    
    19    9   10 ar   
    20    9   14 ar   
    21   10   11 ar   
    22   10  136 1    
    23   11   12 ar   
    24   11  126 1    
    25   12   13 ar   
    26   12  137 1    
    27   13   14 ar   
    28   13   15 1    
    29   14  138 1    
    30   15   16 1    
    31   15  139 1    
    32   15  140 1    
    33   16   17 1    
    34   17   18 1    
    35   17  141 1    
    36   17  142 1    
    37   18   19 1    
    38   18   67 1    
    39   18  143 1    
    40   19   20 am   BACKBONE|DICT|INTERRES
    41   19  144 1    
    42   20   21 2    
    43   20   22 1    
    44   22   23 1    
    45   22   24 1    
    46   22  145 1    
    47   23  146 1    
    48   23  147 1    
    49   23  148 1    
    50   24   25 am   BACKBONE|DICT|INTERRES
    51   24  149 1    
    52   25   26 2    
    53   25   27 1    
    54   27   28 1    
    55   27   29 1    
    56   27  150 1    
    57   28  151 1    
    58   28  152 1    
    59   28  153 1    
    60   29   30 am   BACKBONE|DICT|INTERRES
    61   29  154 1    
    62   30   31 2    
    63   30   32 1    
    64   32   33 1    
    65   32   34 1    
    66   32  155 1    
    67   33  156 1    
    68   33  157 1    
    69   33  158 1    
    70   34   35 am   BACKBONE|DICT|INTERRES
    71   34  159 1    
    72   35   36 2    
    73   35   37 1    
    74   37   38 1    
    75   37   39 1    
    76   37  160 1    
    77   38  161 1    
    78   38  162 1    
    79   38  163 1    
    80   39   40 am   BACKBONE|DICT|INTERRES
    81   39  164 1    
    82   40   41 2    
    83   40   42 1    
    84   42   43 1    
    85   42   44 1    
    86   42  165 1    
    87   43  166 1    
    88   43  167 1    
    89   43  168 1    
    90   44   45 am   BACKBONE|DICT|INTERRES
    91   44  169 1    
    92   45   46 2    
    93   45   47 1    
    94   47   48 1    
    95   47   49 1    
    96   47  170 1    
    97   48  171 1    
    98   48  172 1    
    99   48  173 1    
   100   49   50 am   BACKBONE|DICT|INTERRES
   101   49  174 1    
   102   50   51 2    
   103   50   52 1    
   104   52   53 1    
   105   52   54 1    
   106   52  175 1    
   107   53  176 1    
   108   53  177 1    
   109   53  178 1    
   110   54   55 am   BACKBONE|DICT|INTERRES
   111   54  179 1    
   112   55   56 2    
   113   55   57 1    
   114   57   58 1    
   115   57   59 1    
   116   57  180 1    
   117   58  181 1    
   118   58  182 1    
   119   58  183 1    
   120   59   60 am   BACKBONE|DICT|INTERRES
   121   59  184 1    
   122   60   61 2    
   123   60   62 1    
   124   62   63 1    
   125   62   64 1    
   126   62  185 1    
   127   63  186 1    
   128   63  187 1    
   129   63  188 1    
   130   64   65 am   BACKBONE|DICT|INTERRES
   131   64  189 1    
   132   65   66 2    
   133   67   68 2    
   134   67   69 am   BACKBONE|DICT|INTERRES
   135   69   70 1    
   136   69  190 1    
   137   70   71 1    
   138   70   72 1    
   139   70  191 1    
   140   71  192 1    
   141   71  193 1    
   142   71  194 1    
   143   72   73 2    
   144   72   74 am   BACKBONE|DICT|INTERRES
   145   74   75 1    
   146   74  195 1    
   147   75   76 1    
   148   75   77 1    
   149   75  196 1    
   150   76  197 1    
   151   76  198 1    
   152   76  199 1    
   153   77   78 2    
   154   77   79 am   BACKBONE|DICT|INTERRES
   155   79   80 1    
   156   79  200 1    
   157   80   81 1    
   158   80   82 1    
   159   80  201 1    
   160   81  202 1    
   161   81  203 1    
   162   81  204 1    
   163   82   83 2    
   164   82   84 am   BACKBONE|DICT|INTERRES
   165   84   85 1    
   166   84  205 1    
   167   85   86 1    
   168   85   87 1    
   169   85  206 1    
   170   86  207 1    
   171   86  208 1    
   172   86  209 1    
   173   87   88 2    
   174   87   89 am   BACKBONE|DICT|INTERRES
   175   89   90 1    
   176   89  210 1    
   177   90   91 1    
   178   90   92 1    
   179   90  211 1    
   180   91  212 1    
   181   91  213 1    
   182   91  214 1    
   183   92   93 2    
   184   92   94 am   BACKBONE|DICT|INTERRES
   185   94   95 1    
   186   94  215 1    
   187   95   96 1    
   188   95   97 1    
   189   95  216 1    
   190   96  217 1    
   191   96  218 1    
   192   96  219 1    
   193   97   98 2    
   194   97   99 am   BACKBONE|DICT|INTERRES
   195   99  100 1    
   196   99  220 1    
   197  100  101 1    
   198  100  102 1    
   199  100  221 1    
   200  101  222 1    
   201  101  223 1    
   202  101  224 1    
   203  102  103 2    
   204  102  104 am   BACKBONE|DICT|INTERRES
   205  104  105 1    
   206  104  225 1    
   207  105  106 1    
   208  105  107 1    
   209  105  226 1    
   210  106  227 1    
   211  106  228 1    
   212  106  229 1    
   213  107  108 2    
   214  107  109 am   BACKBONE|DICT|INTERRES
   215  109  110 1    
   216  109  230 1    
   217  110  111 1    
   218  110  112 1    
   219  110  231 1    
   220  111  232 1    
   221  111  233 1    
   222  111  234 1    
   223  112  113 2    
   224  112  114 am   BACKBONE|DICT|INTERRES
   225  114  115 1    
   226  114  235 1    
   227  115  116 1    
   228  115  117 1    
   229  115  236 1    
   230  116  237 1    
   231  116  238 1    
   232  116  239 1    
   233  117  118 2    
   234  117  119 am   BACKBONE|DICT|INTERRES
   235  119  120 1    
   236  119  240 1    
   237  120  121 1    
   238  120  124 1    
   239  120  241 1    
   240  121  122 am   BACKBONE|DICT|INTERRES
   241  121  123 2    
   242  122  242 1    
   243  122  243 1    
   244  124  125 1    
   245  124  244 1    
   246  124  245 1    
   247  125  126 1    
   248  126  246 1    
   249  126  247 1    
@<TRIPOS>SUBSTRUCTURE
     1 UNK         1 GROUP             0       ****    0 ROOT    
