@<TRIPOS>MOLECULE
3R540
247   249    1
SMALL
USER_CHARGES


@<TRIPOS>ATOM
      1 CA         -1.6199  -12.7987  -53.6588 C.3       0 UNK        -0.1800 
      2 C          -1.3082  -13.5759  -52.3875 C.2       0 UNK         0.5000 
      3 O          -0.2822  -14.2526  -52.3214 O.2       0 UNK        -0.5000 
      4 N          -2.1920  -13.4891  -51.3865 N.am      1 UNK        -0.5000 
      5 CA         -2.0519  -14.1282  -50.0761 C.3       1 UNK         0.1400 
      6 C6         -3.3574  -14.0317  -49.2459 C.3       23 UNK        -0.0398 
      7 S7         -4.7260  -15.0108  -49.9556 S.3       23 UNK        -0.2404 
      8 C8         -4.9198  -16.3531  -48.7348 C.3       23 UNK        -0.0205 
      9 C9         -3.9179  -17.4790  -48.9504 C.ar      23 UNK        -0.0193 
     10 C10        -4.3137  -18.6694  -49.5686 C.ar      23 UNK        -0.1150 
     11 C11        -3.3957  -19.7052  -49.7686 C.ar      23 UNK        -0.0193 
     12 C12        -2.0690  -19.5352  -49.3655 C.ar      23 UNK        -0.1150 
     13 C13        -1.6596  -18.3492  -48.7510 C.ar      23 UNK        -0.0193 
     14 C14        -2.5944  -17.3364  -48.5265 C.ar      23 UNK        -0.1150 
     15 C15        -0.2069  -18.1350  -48.3592 C.3       23 UNK        -0.0205 
     16 S16         0.2432  -19.0530  -46.8617 S.3       23 UNK        -0.2404 
     17 C17         0.9598  -20.5759  -47.5635 C.3       23 UNK        -0.0398 
     18 CA          0.6225  -21.8473  -46.7554 C.3       11 UNK         0.1400 
     19 N           1.1310  -21.7774  -45.3816 N.am      11 UNK        -0.5000 
     20 C           1.4477  -22.8446  -44.6388 C.2       10 UNK         0.5000 
     21 O           1.3197  -24.0069  -45.0223 O.2       10 UNK        -0.5000 
     22 CA          1.9162  -22.5560  -43.2068 C.3       10 UNK         0.1400 
     23 CB          3.2242  -21.7478  -43.1870 C.3       10 UNK        -0.1800 
     24 N           0.8887  -21.8377  -42.4593 N.am      10 UNK        -0.5000 
     25 C          -0.2529  -22.3784  -42.0131 C.2       9 UNK         0.5000 
     26 O          -0.5815  -23.5441  -42.2379 O.2       9 UNK        -0.5000 
     27 CA         -1.1941  -21.4563  -41.2093 C.3       9 UNK         0.1400 
     28 CB         -2.0480  -22.2219  -40.1784 C.3       9 UNK        -0.1800 
     29 N          -0.5103  -20.3174  -40.5888 N.am      9 UNK        -0.5000 
     30 C           0.4336  -20.3299  -39.6346 C.2       8 UNK         0.5000 
     31 O           0.8397  -21.3539  -39.0843 O.2       8 UNK        -0.5000 
     32 CA          1.0527  -18.9705  -39.2412 C.3       8 UNK         0.1400 
     33 CB          2.5125  -18.8896  -39.7160 C.3       8 UNK        -0.1800 
     34 N           0.3200  -17.8213  -39.7791 N.am      8 UNK        -0.5000 
     35 C          -0.8544  -17.3754  -39.3118 C.2       7 UNK         0.5000 
     36 O          -1.4063  -17.8258  -38.3076 O.2       7 UNK        -0.5000 
     37 CA         -1.5497  -16.2726  -40.1322 C.3       7 UNK         0.1400 
     38 CB         -1.0714  -14.8840  -39.6828 C.3       7 UNK        -0.1800 
     39 N          -1.3437  -16.4204  -41.5763 N.am      7 UNK        -0.5000 
     40 C          -1.8023  -17.4411  -42.3165 C.2       6 UNK         0.5000 
     41 O          -2.4925  -18.3537  -41.8649 O.2       6 UNK        -0.5000 
     42 CA         -1.3668  -17.4887  -43.7912 C.3       6 UNK         0.1400 
     43 CB         -2.2312  -16.5618  -44.6568 C.3       6 UNK        -0.1800 
     44 N           0.0427  -17.1426  -43.9571 N.am      6 UNK        -0.5000 
     45 C           1.0680  -17.8933  -43.5318 C.2       5 UNK         0.5000 
     46 O           0.9370  -18.9914  -42.9895 O.2       5 UNK        -0.5000 
     47 CA          2.4771  -17.3068  -43.7184 C.3       5 UNK         0.1400 
     48 CB          3.0469  -17.6611  -45.0991 C.3       5 UNK        -0.1800 
     49 N           2.4936  -15.8554  -43.5418 N.am      5 UNK        -0.5000 
     50 C           2.3559  -15.2400  -42.3599 C.2       4 UNK         0.5000 
     51 O           2.2281  -15.8351  -41.2894 O.2       4 UNK        -0.5000 
     52 CA          2.3162  -13.7011  -42.3897 C.3       4 UNK         0.1400 
     53 CB          3.7354  -13.1215  -42.4859 C.3       4 UNK        -0.1800 
     54 N           1.5003  -13.1775  -43.4881 N.am      4 UNK        -0.5000 
     55 C           0.1719  -13.3313  -43.5739 C.2       3 UNK         0.5000 
     56 O          -0.5002  -13.9285  -42.7351 O.2       3 UNK        -0.5000 
     57 CA         -0.5248  -12.7528  -44.8185 C.3       3 UNK         0.1400 
     58 CB         -0.8601  -11.2692  -44.6063 C.3       3 UNK        -0.1800 
     59 N           0.2197  -12.9050  -46.0715 N.am      3 UNK        -0.5000 
     60 C           0.6634  -14.0614  -46.5805 C.2       2 UNK         0.5000 
     61 O           0.6039  -15.1415  -45.9910 O.2       2 UNK        -0.5000 
     62 CA          1.1998  -14.0073  -48.0212 C.3       2 UNK         0.1400 
     63 CB          2.3718  -14.9808  -48.2356 C.3       2 UNK        -0.1800 
     64 N           0.1167  -14.3423  -48.9442 N.am      2 UNK        -0.5000 
     65 C          -0.8770  -13.5131  -49.2884 C.2       1 UNK         0.5000 
     66 O          -0.9086  -12.3185  -48.9839 O.2       1 UNK        -0.5000 
     67 C          -0.8762  -22.2143  -46.8201 C.2       11 UNK         0.5000 
     68 O          -1.3690  -22.5401  -47.8975 O.2       11 UNK        -0.5000 
     69 N          -1.5710  -22.1943  -45.6727 N.am      12 UNK        -0.5000 
     70 CA         -2.9213  -22.7390  -45.5334 C.3       12 UNK         0.1400 
     71 CB         -3.5362  -22.2668  -44.2075 C.3       12 UNK        -0.1800 
     72 C          -2.9154  -24.2779  -45.6223 C.2       12 UNK         0.5000 
     73 O          -3.8262  -24.8546  -46.2166 O.2       12 UNK        -0.5000 
     74 N          -1.8752  -24.9074  -45.0550 N.am      13 UNK        -0.5000 
     75 CA         -1.6044  -26.3365  -45.1831 C.3       13 UNK         0.1400 
     76 CB         -0.7497  -26.8065  -43.9950 C.3       13 UNK        -0.1800 
     77 C          -0.9164  -26.6386  -46.5250 C.2       13 UNK         0.5000 
     78 O          -1.4185  -27.4517  -47.3025 O.2       13 UNK        -0.5000 
     79 N           0.2029  -25.9527  -46.7939 N.am      14 UNK        -0.5000 
     80 CA          0.9772  -26.0515  -48.0308 C.3       14 UNK         0.1400 
     81 CB          2.4485  -25.7158  -47.7278 C.3       14 UNK        -0.1800 
     82 C           0.3750  -25.1471  -49.1230 C.2       14 UNK         0.5000 
     83 O           1.0127  -24.1879  -49.5625 O.2       14 UNK        -0.5000 
     84 N          -0.8572  -25.4653  -49.5374 N.am      15 UNK        -0.5000 
     85 CA         -1.7020  -24.7064  -50.4676 C.3       15 UNK         0.1400 
     86 CB         -3.1577  -25.1644  -50.2703 C.3       15 UNK        -0.1800 
     87 C          -1.2495  -24.7592  -51.9469 C.2       15 UNK         0.5000 
     88 O          -2.0850  -24.7897  -52.8511 O.2       15 UNK        -0.5000 
     89 N           0.0682  -24.7533  -52.1715 N.am      16 UNK        -0.5000 
     90 CA          0.7231  -24.7299  -53.4797 C.3       16 UNK         0.1400 
     91 CB          2.0070  -25.5709  -53.3889 C.3       16 UNK        -0.1800 
     92 C           1.0454  -23.2957  -53.9480 C.2       16 UNK         0.5000 
     93 O           1.5328  -23.1215  -55.0653 O.2       16 UNK        -0.5000 
     94 N           0.7853  -22.2963  -53.0915 N.am      17 UNK        -0.5000 
     95 CA          1.0711  -20.8767  -53.3176 C.3       17 UNK         0.1400 
     96 CB          0.8590  -20.1217  -51.9946 C.3       17 UNK        -0.1800 
     97 C           0.2312  -20.2246  -54.4345 C.2       17 UNK         0.5000 
     98 O           0.6207  -19.1694  -54.9374 O.2       17 UNK        -0.5000 
     99 N          -0.9114  -20.8394  -54.7749 N.am      18 UNK        -0.5000 
    100 CA        -1.9654  -20.3878  -55.6915 C.3       18 UNK         0.1400 
    101 CB        -1.4403  -20.1500  -57.1204 C.3       18 UNK        -0.1800 
    102 C         -2.7360  -19.1718  -55.1483 C.2       18 UNK         0.5000 
    103 O         -3.9506  -19.2638  -54.9597 O.2       18 UNK        -0.5000 
    104 N         -2.0182  -18.0697  -54.8849 N.am      19 UNK        -0.5000 
    105 CA        -2.4193  -16.8566  -54.1540 C.3       19 UNK         0.1400 
    106 CB        -2.6308  -17.2144  -52.6682 C.3       19 UNK        -0.1800 
    107 C         -3.6389  -16.0862  -54.7121 C.2       19 UNK         0.5000 
    108 O         -4.0669  -15.1114  -54.0944 O.2       19 UNK        -0.5000 
    109 N         -4.2000  -16.5552  -55.8368 N.am      20 UNK        -0.5000 
    110 CA        -5.5452  -16.2650  -56.3445 C.3       20 UNK         0.1400 
    111 CB        -5.6511  -14.8049  -56.8325 C.3       20 UNK        -0.1800 
    112 C         -6.6479  -16.6517  -55.3283 C.2       20 UNK         0.5000 
    113 O         -7.6934  -16.0001  -55.2827 O.2       20 UNK        -0.5000 
    114 N         -6.3857  -17.6873  -54.5145 N.am      21 UNK        -0.5000 
    115 CA        -7.2059  -18.0531  -53.3591 C.3       21 UNK         0.1400 
    116 CB        -6.8031  -17.1862  -52.1525 C.3       21 UNK        -0.1800 
    117 C         -7.1449  -19.5457  -52.9920 C.2       21 UNK         0.5000 
    118 O         -8.0853  -20.0261  -52.3571 O.2       21 UNK        -0.5000 
    119 N         -6.0757  -20.2638  -53.3680 N.am      22 UNK        -0.5000 
    120 CA        -5.9011  -21.6920  -53.0359 C.3       22 UNK         0.1400 
    121 C         -6.7467  -22.6680  -53.9070 C.2       22 UNK         0.5000 
    122 N         -7.3719  -22.2239  -54.9906 N.am      22 UNK        -0.7600 
    123 O         -6.8435  -23.8500  -53.5888 O.2       22 UNK        -0.5000 
    124 C124       -4.4131  -22.1402  -53.0132 C.3       23 UNK        -0.0398 
    125 S125       -3.2512  -21.0142  -52.1666 S.3       23 UNK        -0.2404 
    126 C126       -3.8273  -20.9962  -50.4449 C.3       23 UNK        -0.0205 
    127 H127       -1.5849  -13.4619  -54.5230 H         1 UNK         0.0600 
    128 H128       -2.6111  -12.3457  -53.6225 H         1 UNK         0.0600 
    129 H129       -0.8857  -12.0065  -53.8048 H         1 UNK         0.0600 
    130 H130       -3.0219  -12.9273  -51.5087 H         1 UNK         0.3000 
    131 H131       -1.8325  -15.1838  -50.2464 H         1 UNK         0.0600 
    132 H132       -3.6865  -12.9931  -49.1798 H         1 UNK         0.0800 
    133 H133       -3.1918  -14.3460  -48.2146 H         1 UNK         0.0800 
    134 H134       -5.9358  -16.7423  -48.8162 H         1 UNK         0.0800 
    135 H135       -4.8321  -15.9606  -47.7208 H         1 UNK         0.0800 
    136 H136       -5.3360  -18.7900  -49.8976 H         1 UNK         0.1150 
    137 H137       -1.3594  -20.3288  -49.5431 H         1 UNK         0.1150 
    138 H138       -2.2830  -16.4264  -48.0376 H         1 UNK         0.1150 
    139 H139        0.4520  -18.3971  -49.1881 H         1 UNK         0.0800 
    140 H140       -0.0318  -17.0797  -48.1547 H         1 UNK         0.0800 
    141 H141        2.0421  -20.4461  -47.5998 H         1 UNK         0.0800 
    142 H142        0.6506  -20.7013  -48.6013 H         1 UNK         0.0800 
    143 H143        1.1434  -22.6676  -47.2528 H         1 UNK         0.0600 
    144 H144        1.2179  -20.8527  -44.9828 H         1 UNK         0.3000 
    145 H145        2.1010  -23.5129  -42.7137 H         1 UNK         0.0600 
    146 H146        3.5894  -21.6219  -42.1675 H         1 UNK         0.0600 
    147 H147        4.0062  -22.2566  -43.7520 H         1 UNK         0.0600 
    148 H148        3.0997  -20.7539  -43.6178 H         1 UNK         0.0600 
    149 H149        1.0323  -20.8414  -42.3234 H         1 UNK         0.3000 
    150 H150       -1.8774  -21.0233  -41.9399 H         1 UNK         0.0600 
    151 H151       -2.6803  -22.9638  -40.6674 H         1 UNK         0.0600 
    152 H152       -2.7066  -21.5455  -39.6335 H         1 UNK         0.0600 
    153 H153       -1.4304  -22.7494  -39.4512 H         1 UNK         0.0600 
    154 H154       -0.7662  -19.4167  -40.9725 H         1 UNK         0.3000 
    155 H155        1.0444  -18.9093  -38.1511 H         1 UNK         0.0600 
    156 H156        2.5881  -18.9649  -40.8007 H         1 UNK         0.0600 
    157 H157        3.1090  -19.6972  -39.2899 H         1 UNK         0.0600 
    158 H158        2.9749  -17.9500  -39.4128 H         1 UNK         0.0600 
    159 H159        0.7333  -17.3539  -40.5769 H         1 UNK         0.3000 
    160 H160       -2.6219  -16.3428  -39.9385 H         1 UNK         0.0600 
    161 H161       -1.6291  -14.0941  -40.1859 H         1 UNK         0.0600 
    162 H162       -0.0125  -14.7347  -39.8972 H         1 UNK         0.0600 
    163 H163       -1.2132  -14.7484  -38.6099 H         1 UNK         0.0600 
    164 H164       -0.8328  -15.6715  -42.0367 H         1 UNK         0.3000 
    165 H165       -1.5044  -18.5110  -44.1504 H         1 UNK         0.0600 
    166 H166       -1.9193  -16.6014  -45.6998 H         1 UNK         0.0600 
    167 H167       -3.2804  -16.8565  -44.6170 H         1 UNK         0.0600 
    168 H168       -2.1666  -15.5253  -44.3273 H         1 UNK         0.0600 
    169 H169        0.2476  -16.2936  -44.4760 H         1 UNK         0.3000 
    170 H170        3.1244  -17.7549  -42.9619 H         1 UNK         0.0600 
    171 H171        4.0781  -17.3224  -45.1985 H         1 UNK         0.0600 
    172 H172        3.0415  -18.7396  -45.2611 H         1 UNK         0.0600 
    173 H173        2.4669  -17.2057  -45.9020 H         1 UNK         0.0600 
    174 H174        2.5194  -15.2961  -44.3820 H         1 UNK         0.3000 
    175 H175        1.8745  -13.3637  -41.4495 H         1 UNK         0.0600 
    176 H176        3.7216  -12.0333  -42.4225 H         1 UNK         0.0600 
    177 H177        4.3611  -13.4856  -41.6699 H         1 UNK         0.0600 
    178 H178        4.2228  -13.3975  -43.4218 H         1 UNK         0.0600 
    179 H179        1.9789  -12.6798  -44.2243 H         1 UNK         0.3000 
    180 H180       -1.4652  -13.2931  -44.9409 H         1 UNK         0.0600 
    181 H181        0.0411  -10.6600  -44.5272 H         1 UNK         0.0600 
    182 H182       -1.4358  -11.1251  -43.6908 H         1 UNK         0.0600 
    183 H183       -1.4590  -10.8785  -45.4292 H         1 UNK         0.0600 
    184 H184        0.2719  -12.0817  -46.6552 H         1 UNK         0.3000 
    185 H185        1.5585  -12.9973  -48.2309 H         1 UNK         0.0600 
    186 H186        2.0824  -16.0187  -48.0716 H         1 UNK         0.0600 
    187 H187        2.7666  -14.9019  -49.2486 H         1 UNK         0.0600 
    188 H188        3.1906  -14.7594  -47.5499 H         1 UNK         0.0600 
    189 H189        0.0848  -15.2992  -49.2606 H         1 UNK         0.3000 
    190 H190       -1.1000  -21.8961  -44.8332 H         1 UNK         0.3000 
    191 H191       -3.5341  -22.3519  -46.3507 H         1 UNK         0.0600 
    192 H192       -3.5037  -21.1806  -44.1174 H         1 UNK         0.0600 
    193 H193       -3.0216  -22.6955  -43.3481 H         1 UNK         0.0600 
    194 H194       -4.5823  -22.5675  -44.1401 H         1 UNK         0.0600 
    195 H195       -1.1741  -24.3609  -44.5736 H         1 UNK         0.3000 
    196 H196       -2.5483  -26.8852  -45.1543 H         1 UNK         0.0600 
    197 H197       -0.5302  -27.8722  -44.0696 H         1 UNK         0.0600 
    198 H198       -1.2707  -26.6461  -43.0509 H         1 UNK         0.0600 
    199 H199        0.2022  -26.2771  -43.9403 H         1 UNK         0.0600 
    200 H200        0.5461  -25.2823  -46.1091 H         1 UNK         0.3000 
    201 H201        0.9435  -27.0793  -48.3983 H         1 UNK         0.0600 
    202 H202        2.8567  -26.3855  -46.9707 H         1 UNK         0.0600 
    203 H203        2.5670  -24.6939  -47.3668 H         1 UNK         0.0600 
    204 H204        3.0647  -25.8214  -48.6215 H         1 UNK         0.0600 
    205 H205       -1.2921  -26.2708  -49.1030 H         1 UNK         0.3000 
    206 H206       -1.6499  -23.6545  -50.1851 H         1 UNK         0.0600 
    207 H207       -3.4612  -25.0647  -49.2275 H         1 UNK         0.0600 
    208 H208       -3.8494  -24.5644  -50.8595 H         1 UNK         0.0600 
    209 H209       -3.2925  -26.2066  -50.5617 H         1 UNK         0.0600 
    210 H210        0.6724  -24.6718  -51.3582 H         1 UNK         0.3000 
    211 H211        0.0694  -25.1814  -54.2287 H         1 UNK         0.0600 
    212 H212        2.7084  -25.1569  -52.6633 H         1 UNK         0.0600 
    213 H213        2.5172  -25.6156  -54.3519 H         1 UNK         0.0600 
    214 H214        1.7852  -26.5965  -53.0931 H         1 UNK         0.0600 
    215 H215        0.3938  -22.5377  -52.1933 H         1 UNK         0.3000 
    216 H216        2.1210  -20.7861  -53.6029 H         1 UNK         0.0600 
    217 H217        1.1105  -19.0655  -52.1006 H         1 UNK         0.0600 
    218 H218        1.4866  -20.5260  -51.2002 H         1 UNK         0.0600 
    219 H219       -0.1793  -20.1771  -51.6660 H         1 UNK         0.0600 
    220 H220       -1.1341  -21.6783  -54.2583 H         1 UNK         0.3000 
    221 H221       -2.6785  -21.2111  -55.7473 H         1 UNK         0.0600 
    222 H222       -0.7423  -19.3147  -57.1750 H         1 UNK         0.0600 
    223 H223       -0.9317  -21.0351  -57.5027 H         1 UNK         0.0600 
    224 H224       -2.2628  -19.9286  -57.8016 H         1 UNK         0.0600 
    225 H225       -1.0218  -18.1448  -55.0718 H         1 UNK         0.3000 
    226 H226       -1.5740  -16.1704  -54.2161 H         1 UNK         0.0600 
    227 H227       -1.7369  -17.6647  -52.2363 H         1 UNK         0.0600 
    228 H228       -2.8654  -16.3316  -52.0749 H         1 UNK         0.0600 
    229 H229       -3.4532  -17.9171  -52.5346 H         1 UNK         0.0600 
    230 H230       -3.7618  -17.3724  -56.2378 H         1 UNK         0.3000 
    231 H231       -5.6910  -16.9134  -57.2094 H         1 UNK         0.0600 
    232 H232       -4.8507  -14.5641  -57.5320 H         1 UNK         0.0600 
    233 H233       -5.6002  -14.0950  -56.0067 H         1 UNK         0.0600 
    234 H234       -6.5956  -14.6344  -57.3502 H         1 UNK         0.0600 
    235 H235       -5.5125  -18.1905  -54.6385 H         1 UNK         0.3000 
    236 H236       -8.2528  -17.8477  -53.5924 H         1 UNK         0.0600 
    237 H237       -7.3785  -17.4488  -51.2640 H         1 UNK         0.0600 
    238 H238       -5.7474  -17.3091  -51.9098 H         1 UNK         0.0600 
    239 H239       -6.9753  -16.1277  -52.3480 H         1 UNK         0.0600 
    240 H240       -5.3124  -19.8386  -53.8865 H         1 UNK         0.3000 
    241 H241       -6.2816  -21.8333  -52.0235 H         1 UNK         0.0600 
    242 H242       -7.9212  -22.8614  -55.5454 H         1 UNK         0.3800 
    243 H243       -7.2998  -21.2560  -55.2604 H         1 UNK         0.3800 
    244 H244       -4.3254  -23.1262  -52.5582 H         1 UNK         0.0800 
    245 H245       -4.0486  -22.2558  -54.0345 H         1 UNK         0.0800 
    246 H246       -3.4161  -21.8541  -49.9108 H         1 UNK         0.0800 
    247 H247       -4.9114  -21.0913  -50.4002 H         1 UNK         0.0800 
@<TRIPOS>BOND
     1    1    2 1    
     2    1  127 1    
     3    1  128 1    
     4    1  129 1    
     5    2    3 2    
     6    2    4 am   BACKBONE|DICT|INTERRES
     7    4    5 1    
     8    4  130 1    
     9    5    6 1    
    10    5   65 1    
    11    5  131 1    
    12    6    7 1    
    13    6  132 1    
    14    6  133 1    
    15    7    8 1    
    16    8    9 1    
    17    8  134 1    
    18    8  135 1    
    19    9   10 ar   
    20    9   14 ar   
    21   10   11 ar   
    22   10  136 1    
    23   11   12 ar   
    24   11  126 1    
    25   12   13 ar   
    26   12  137 1    
    27   13   14 ar   
    28   13   15 1    
    29   14  138 1    
    30   15   16 1    
    31   15  139 1    
    32   15  140 1    
    33   16   17 1    
    34   17   18 1    
    35   17  141 1    
    36   17  142 1    
    37   18   19 1    
    38   18   67 1    
    39   18  143 1    
    40   19   20 am   BACKBONE|DICT|INTERRES
    41   19  144 1    
    42   20   21 2    
    43   20   22 1    
    44   22   23 1    
    45   22   24 1    
    46   22  145 1    
    47   23  146 1    
    48   23  147 1    
    49   23  148 1    
    50   24   25 am   BACKBONE|DICT|INTERRES
    51   24  149 1    
    52   25   26 2    
    53   25   27 1    
    54   27   28 1    
    55   27   29 1    
    56   27  150 1    
    57   28  151 1    
    58   28  152 1    
    59   28  153 1    
    60   29   30 am   BACKBONE|DICT|INTERRES
    61   29  154 1    
    62   30   31 2    
    63   30   32 1    
    64   32   33 1    
    65   32   34 1    
    66   32  155 1    
    67   33  156 1    
    68   33  157 1    
    69   33  158 1    
    70   34   35 am   BACKBONE|DICT|INTERRES
    71   34  159 1    
    72   35   36 2    
    73   35   37 1    
    74   37   38 1    
    75   37   39 1    
    76   37  160 1    
    77   38  161 1    
    78   38  162 1    
    79   38  163 1    
    80   39   40 am   BACKBONE|DICT|INTERRES
    81   39  164 1    
    82   40   41 2    
    83   40   42 1    
    84   42   43 1    
    85   42   44 1    
    86   42  165 1    
    87   43  166 1    
    88   43  167 1    
    89   43  168 1    
    90   44   45 am   BACKBONE|DICT|INTERRES
    91   44  169 1    
    92   45   46 2    
    93   45   47 1    
    94   47   48 1    
    95   47   49 1    
    96   47  170 1    
    97   48  171 1    
    98   48  172 1    
    99   48  173 1    
   100   49   50 am   BACKBONE|DICT|INTERRES
   101   49  174 1    
   102   50   51 2    
   103   50   52 1    
   104   52   53 1    
   105   52   54 1    
   106   52  175 1    
   107   53  176 1    
   108   53  177 1    
   109   53  178 1    
   110   54   55 am   BACKBONE|DICT|INTERRES
   111   54  179 1    
   112   55   56 2    
   113   55   57 1    
   114   57   58 1    
   115   57   59 1    
   116   57  180 1    
   117   58  181 1    
   118   58  182 1    
   119   58  183 1    
   120   59   60 am   BACKBONE|DICT|INTERRES
   121   59  184 1    
   122   60   61 2    
   123   60   62 1    
   124   62   63 1    
   125   62   64 1    
   126   62  185 1    
   127   63  186 1    
   128   63  187 1    
   129   63  188 1    
   130   64   65 am   BACKBONE|DICT|INTERRES
   131   64  189 1    
   132   65   66 2    
   133   67   68 2    
   134   67   69 am   BACKBONE|DICT|INTERRES
   135   69   70 1    
   136   69  190 1    
   137   70   71 1    
   138   70   72 1    
   139   70  191 1    
   140   71  192 1    
   141   71  193 1    
   142   71  194 1    
   143   72   73 2    
   144   72   74 am   BACKBONE|DICT|INTERRES
   145   74   75 1    
   146   74  195 1    
   147   75   76 1    
   148   75   77 1    
   149   75  196 1    
   150   76  197 1    
   151   76  198 1    
   152   76  199 1    
   153   77   78 2    
   154   77   79 am   BACKBONE|DICT|INTERRES
   155   79   80 1    
   156   79  200 1    
   157   80   81 1    
   158   80   82 1    
   159   80  201 1    
   160   81  202 1    
   161   81  203 1    
   162   81  204 1    
   163   82   83 2    
   164   82   84 am   BACKBONE|DICT|INTERRES
   165   84   85 1    
   166   84  205 1    
   167   85   86 1    
   168   85   87 1    
   169   85  206 1    
   170   86  207 1    
   171   86  208 1    
   172   86  209 1    
   173   87   88 2    
   174   87   89 am   BACKBONE|DICT|INTERRES
   175   89   90 1    
   176   89  210 1    
   177   90   91 1    
   178   90   92 1    
   179   90  211 1    
   180   91  212 1    
   181   91  213 1    
   182   91  214 1    
   183   92   93 2    
   184   92   94 am   BACKBONE|DICT|INTERRES
   185   94   95 1    
   186   94  215 1    
   187   95   96 1    
   188   95   97 1    
   189   95  216 1    
   190   96  217 1    
   191   96  218 1    
   192   96  219 1    
   193   97   98 2    
   194   97   99 am   BACKBONE|DICT|INTERRES
   195   99  100 1    
   196   99  220 1    
   197  100  101 1    
   198  100  102 1    
   199  100  221 1    
   200  101  222 1    
   201  101  223 1    
   202  101  224 1    
   203  102  103 2    
   204  102  104 am   BACKBONE|DICT|INTERRES
   205  104  105 1    
   206  104  225 1    
   207  105  106 1    
   208  105  107 1    
   209  105  226 1    
   210  106  227 1    
   211  106  228 1    
   212  106  229 1    
   213  107  108 2    
   214  107  109 am   BACKBONE|DICT|INTERRES
   215  109  110 1    
   216  109  230 1    
   217  110  111 1    
   218  110  112 1    
   219  110  231 1    
   220  111  232 1    
   221  111  233 1    
   222  111  234 1    
   223  112  113 2    
   224  112  114 am   BACKBONE|DICT|INTERRES
   225  114  115 1    
   226  114  235 1    
   227  115  116 1    
   228  115  117 1    
   229  115  236 1    
   230  116  237 1    
   231  116  238 1    
   232  116  239 1    
   233  117  118 2    
   234  117  119 am   BACKBONE|DICT|INTERRES
   235  119  120 1    
   236  119  240 1    
   237  120  121 1    
   238  120  124 1    
   239  120  241 1    
   240  121  122 am   BACKBONE|DICT|INTERRES
   241  121  123 2    
   242  122  242 1    
   243  122  243 1    
   244  124  125 1    
   245  124  244 1    
   246  124  245 1    
   247  125  126 1    
   248  126  246 1    
   249  126  247 1    
@<TRIPOS>SUBSTRUCTURE
     1 UNK         1 GROUP             0       ****    0 ROOT    
