@<TRIPOS>MOLECULE
3R540
247   249    1
SMALL
USER_CHARGES


@<TRIPOS>ATOM
      1 CA          4.1101  -14.5376  -47.4874 C.3       0 UNK        -0.1800 
      2 C           2.8573  -15.2498  -47.9741 C.2       0 UNK         0.5000 
      3 O           2.2203  -15.9677  -47.2052 O.2       0 UNK        -0.5000 
      4 N           2.5029  -15.0309  -49.2470 N.am      1 UNK        -0.5000 
      5 CA          1.4586  -15.7269  -50.0160 C.3       1 UNK         0.1400 
      6 C6          1.3429  -15.1582  -51.4541 C.3       23 UNK        -0.0398 
      7 S7          2.9201  -15.2769  -52.3733 S.3       23 UNK        -0.2404 
      8 C8          2.6168  -16.6721  -53.5099 C.3       23 UNK        -0.0205 
      9 C9          2.0991  -17.9075  -52.7875 C.ar      23 UNK        -0.0193 
     10 C10         0.7991  -18.3631  -53.0259 C.ar      23 UNK        -0.1150 
     11 C11         0.2874  -19.4510  -52.3149 C.ar      23 UNK        -0.0193 
     12 C12         1.0965  -20.0999  -51.3810 C.ar      23 UNK        -0.1150 
     13 C13         2.4004  -19.6608  -51.1382 C.ar      23 UNK        -0.0193 
     14 C14         2.9028  -18.5723  -51.8560 C.ar      23 UNK        -0.1150 
     15 C15         3.2565  -20.3527  -50.0885 C.3       23 UNK        -0.0205 
     16 S16         3.2742  -19.4540  -48.5006 S.3       23 UNK        -0.2404 
     17 C17         1.5062  -19.3895  -48.0407 C.3       23 UNK        -0.0398 
     18 CA          0.8850  -20.7760  -47.7388 C.3       11 UNK         0.1400 
     19 N           1.5685  -21.4757  -46.6534 N.am      11 UNK        -0.5000 
     20 C           1.7599  -22.8004  -46.6124 C.2       10 UNK         0.5000 
     21 O           1.4465  -23.5688  -47.5222 O.2       10 UNK        -0.5000 
     22 CA          2.4016  -23.3726  -45.3326 C.3       10 UNK         0.1400 
     23 CB          3.9235  -23.4920  -45.5043 C.3       10 UNK        -0.1800 
     24 N           2.1178  -22.5874  -44.1292 N.am      10 UNK        -0.5000 
     25 C           0.8956  -22.3825  -43.6195 C.2       9 UNK         0.5000 
     26 O          -0.1362  -22.8399  -44.1054 O.2       9 UNK        -0.5000 
     27 CA          0.8016  -21.4606  -42.3943 C.3       9 UNK         0.1400 
     28 CB          0.9935  -22.2614  -41.0983 C.3       9 UNK        -0.1800 
     29 N           1.7481  -20.3448  -42.4149 N.am      9 UNK        -0.5000 
     30 C           1.8603  -19.4070  -43.3649 C.2       8 UNK         0.5000 
     31 O           1.2246  -19.4325  -44.4218 O.2       8 UNK        -0.5000 
     32 CA          2.8304  -18.2451  -43.0524 C.3       8 UNK         0.1400 
     33 CB          2.9144  -17.2267  -44.2013 C.3       8 UNK        -0.1800 
     34 N           2.4608  -17.5531  -41.8103 N.am      8 UNK        -0.5000 
     35 C           2.6752  -18.0308  -40.5732 C.2       7 UNK         0.5000 
     36 O           3.2914  -19.0772  -40.3582 O.2       7 UNK        -0.5000 
     37 CA          2.0524  -17.2567  -39.3941 C.3       7 UNK         0.1400 
     38 CB          2.6570  -17.6366  -38.0257 C.3       7 UNK        -0.1800 
     39 N           2.0474  -15.8073  -39.5880 N.am      7 UNK        -0.5000 
     40 C           3.1043  -14.9841  -39.6662 C.2       6 UNK         0.5000 
     41 O           4.2729  -15.3576  -39.5579 O.2       6 UNK        -0.5000 
     42 CA          2.8127  -13.4898  -39.9179 C.3       6 UNK         0.1400 
     43 CB          3.5961  -12.9833  -41.1400 C.3       6 UNK        -0.1800 
     44 N           1.3847  -13.2392  -40.1326 N.am      6 UNK        -0.5000 
     45 C           0.5127  -12.8754  -39.1812 C.2       5 UNK         0.5000 
     46 O           0.8358  -12.6260  -38.0196 O.2       5 UNK        -0.5000 
     47 CA         -0.9760  -12.7993  -39.5823 C.3       5 UNK         0.1400 
     48 CB         -1.3737  -11.3480  -39.8912 C.3       5 UNK        -0.1800 
     49 N          -1.3189  -13.6393  -40.7332 N.am      5 UNK        -0.5000 
     50 C          -1.3083  -14.9804  -40.7445 C.2       4 UNK         0.5000 
     51 O          -1.0401  -15.6689  -39.7606 O.2       4 UNK        -0.5000 
     52 CA         -1.5634  -15.6613  -42.1045 C.3       4 UNK         0.1400 
     53 CB         -3.0619  -15.9234  -42.3113 C.3       4 UNK        -0.1800 
     54 N          -1.0472  -14.8854  -43.2361 N.am      4 UNK        -0.5000 
     55 C           0.2394  -14.5659  -43.4226 C.2       3 UNK         0.5000 
     56 O           1.1378  -14.9290  -42.6600 O.2       3 UNK        -0.5000 
     57 CA          0.5544  -13.6755  -44.6406 C.3       3 UNK         0.1400 
     58 CB          2.0522  -13.3652  -44.7860 C.3       3 UNK        -0.1800 
     59 N           0.0621  -14.2529  -45.8924 N.am      3 UNK        -0.5000 
     60 C          -1.1931  -14.1339  -46.3493 C.2       2 UNK         0.5000 
     61 O          -2.0925  -13.5995  -45.6980 O.2       2 UNK        -0.5000 
     62 CA         -1.4919  -14.6893  -47.7542 C.3       2 UNK         0.1400 
     63 CB         -2.5607  -13.8714  -48.5021 C.3       2 UNK        -0.1800 
     64 N          -0.2744  -14.7473  -48.5635 N.am      2 UNK        -0.5000 
     65 C           0.0699  -15.7782  -49.3426 C.2       1 UNK         0.5000 
     66 O          -0.6479  -16.7595  -49.5230 O.2       1 UNK        -0.5000 
     67 C          -0.6146  -20.6400  -47.4227 C.2       11 UNK         0.5000 
     68 O          -1.4434  -20.8755  -48.3007 O.2       11 UNK        -0.5000 
     69 N          -0.9363  -20.2580  -46.1785 N.am      12 UNK        -0.5000 
     70 CA         -2.2933  -19.9395  -45.7401 C.3       12 UNK         0.1400 
     71 CB         -2.2325  -19.2387  -44.3743 C.3       12 UNK        -0.1800 
     72 C          -3.2506  -21.1457  -45.6945 C.2       12 UNK         0.5000 
     73 O          -4.4238  -20.9778  -46.0321 O.2       12 UNK        -0.5000 
     74 N          -2.7552  -22.3224  -45.2763 N.am      13 UNK        -0.5000 
     75 CA         -3.5298  -23.5544  -45.0842 C.3       13 UNK         0.1400 
     76 CB         -2.6191  -24.6663  -44.5398 C.3       13 UNK        -0.1800 
     77 C          -4.2476  -24.0127  -46.3658 C.2       13 UNK         0.5000 
     78 O          -3.6034  -24.5365  -47.2775 O.2       13 UNK        -0.5000 
     79 N          -5.5624  -23.7523  -46.4207 N.am      14 UNK        -0.5000 
     80 CA         -6.4766  -24.0056  -47.5407 C.3       14 UNK         0.1400 
     81 CB         -6.7065  -25.5229  -47.7066 C.3       14 UNK        -0.1800 
     82 C          -6.0401  -23.3311  -48.8600 C.2       14 UNK         0.5000 
     83 O          -6.3451  -23.8515  -49.9333 O.2       14 UNK        -0.5000 
     84 N          -5.2938  -22.2181  -48.7620 N.am      15 UNK        -0.5000 
     85 CA         -4.6116  -21.5247  -49.8626 C.3       15 UNK         0.1400 
     86 CB         -5.6355  -20.8077  -50.7674 C.3       15 UNK        -0.1800 
     87 C          -3.6642  -22.4613  -50.6481 C.2       15 UNK         0.5000 
     88 O          -3.6901  -22.4761  -51.8799 O.2       15 UNK        -0.5000 
     89 N          -2.9000  -23.2768  -49.9043 N.am      16 UNK        -0.5000 
     90 CA         -2.0021  -24.3375  -50.3717 C.3       16 UNK         0.1400 
     91 CB         -0.7680  -23.7422  -51.0757 C.3       16 UNK        -0.1800 
     92 C          -2.7395  -25.3958  -51.2182 C.2       16 UNK         0.5000 
     93 O          -2.2606  -25.7853  -52.2845 O.2       16 UNK        -0.5000 
     94 N          -3.9090  -25.8189  -50.7154 N.am      17 UNK        -0.5000 
     95 CA         -4.8799  -26.7134  -51.3532 C.3       17 UNK         0.1400 
     96 CB         -4.2961  -28.1293  -51.5432 C.3       17 UNK        -0.1800 
     97 C          -5.4608  -26.1051  -52.6475 C.2       17 UNK         0.5000 
     98 O          -5.4353  -26.7393  -53.7041 O.2       17 UNK        -0.5000 
     99 N          -5.9835  -24.8779  -52.5151 N.am      18 UNK        -0.5000 
    100 CA        -6.6502  -24.0667  -53.5355 C.3       18 UNK         0.1400 
    101 CB        -8.0041  -24.6961  -53.9238 C.3       18 UNK        -0.1800 
    102 C         -5.7571  -23.7533  -54.7531 C.2       18 UNK         0.5000 
    103 O         -6.1914  -23.9019  -55.8981 O.2       18 UNK        -0.5000 
    104 N         -4.5259  -23.2955  -54.4928 N.am      19 UNK        -0.5000 
    105 CA        -3.5569  -22.8750  -55.5052 C.3       19 UNK         0.1400 
    106 CB        -2.1426  -22.9597  -54.9082 C.3       19 UNK        -0.1800 
    107 C         -3.8972  -21.4657  -56.0306 C.2       19 UNK         0.5000 
    108 O         -3.2299  -20.4904  -55.6795 O.2       19 UNK        -0.5000 
    109 N         -4.9805  -21.3821  -56.8187 N.am      20 UNK        -0.5000 
    110 CA        -5.5525  -20.1742  -57.4343 C.3       20 UNK         0.1400 
    111 CB        -4.6096  -19.6338  -58.5290 C.3       20 UNK        -0.1800 
    112 C         -5.9465  -19.0916  -56.4041 C.2       20 UNK         0.5000 
    113 O         -5.8402  -17.8956  -56.6858 O.2       20 UNK        -0.5000 
    114 N         -6.3355  -19.5417  -55.1997 N.am      21 UNK        -0.5000 
    115 CA        -6.6196  -18.7492  -53.9950 C.3       21 UNK         0.1400 
    116 CB        -7.9108  -17.9272  -54.1858 C.3       21 UNK        -0.1800 
    117 C         -5.4308  -17.8769  -53.5233 C.2       21 UNK         0.5000 
    118 O         -5.6388  -16.9152  -52.7820 O.2       21 UNK        -0.5000 
    119 N         -4.2147  -18.2164  -53.9751 N.am      22 UNK        -0.5000 
    120 CA        -2.9701  -17.4524  -53.8031 C.3       22 UNK         0.1400 
    121 C         -2.9687  -16.0561  -54.4976 C.2       22 UNK         0.5000 
    122 N         -3.8220  -15.8120  -55.4872 N.am      22 UNK        -0.7600 
    123 O         -2.1631  -15.1913  -54.1642 O.2       22 UNK        -0.5000 
    124 C124       -2.4707  -17.4071  -52.3307 C.3       23 UNK        -0.0398 
    125 S125       -2.3533  -19.0454  -51.5288 S.3       23 UNK        -0.2404 
    126 C126       -1.1344  -19.9350  -52.5497 C.3       23 UNK        -0.0205 
    127 H127        4.8917  -14.5638  -48.2468 H         1 UNK         0.0600 
    128 H128        4.4980  -15.0173  -46.5884 H         1 UNK         0.0600 
    129 H129        3.8911  -13.4962  -47.2544 H         1 UNK         0.0600 
    130 H130        3.0788  -14.4130  -49.8013 H         1 UNK         0.3000 
    131 H131        1.7863  -16.7646  -50.0876 H         1 UNK         0.0600 
    132 H132        0.5601  -15.6675  -52.0176 H         1 UNK         0.0800 
    133 H133        1.0484  -14.1079  -51.4220 H         1 UNK         0.0800 
    134 H134        3.5459  -16.9201  -54.0247 H         1 UNK         0.0800 
    135 H135        1.9148  -16.3511  -54.2812 H         1 UNK         0.0800 
    136 H136        0.1768  -17.8563  -53.7492 H         1 UNK         0.1150 
    137 H137        0.6988  -20.9397  -50.8330 H         1 UNK         0.1150 
    138 H138        3.9055  -18.2175  -51.6621 H         1 UNK         0.1150 
    139 H139        2.9174  -21.3768  -49.9270 H         1 UNK         0.0800 
    140 H140        4.2811  -20.4330  -50.4543 H         1 UNK         0.0800 
    141 H141        0.9578  -18.8880  -48.8391 H         1 UNK         0.0800 
    142 H142        1.4202  -18.7356  -47.1706 H         1 UNK         0.0800 
    143 H143        0.9551  -21.3763  -48.6455 H         1 UNK         0.0600 
    144 H144        1.8212  -20.9160  -45.8490 H         1 UNK         0.3000 
    145 H145        1.9926  -24.3737  -45.1806 H         1 UNK         0.0600 
    146 H146        4.3906  -22.5152  -45.6374 H         1 UNK         0.0600 
    147 H147        4.3829  -23.9706  -44.6393 H         1 UNK         0.0600 
    148 H148        4.1716  -24.0958  -46.3783 H         1 UNK         0.0600 
    149 H149        2.9061  -22.1566  -43.6690 H         1 UNK         0.3000 
    150 H150       -0.2024  -21.0351  -42.3807 H         1 UNK         0.0600 
    151 H151        0.2850  -23.0889  -41.0411 H         1 UNK         0.0600 
    152 H152        0.8322  -21.6353  -40.2205 H         1 UNK         0.0600 
    153 H153        1.9975  -22.6820  -41.0301 H         1 UNK         0.0600 
    154 H154        2.3158  -20.2181  -41.5821 H         1 UNK         0.3000 
    155 H155        3.8250  -18.6778  -42.9274 H         1 UNK         0.0600 
    156 H156        3.2949  -17.6944  -45.1105 H         1 UNK         0.0600 
    157 H157        3.5838  -16.4029  -43.9544 H         1 UNK         0.0600 
    158 H158        1.9377  -16.8072  -44.4419 H         1 UNK         0.0600 
    159 H159        1.9568  -16.6792  -41.9219 H         1 UNK         0.3000 
    160 H160        1.0033  -17.5545  -39.3730 H         1 UNK         0.0600 
    161 H161        2.1866  -17.0763  -37.2177 H         1 UNK         0.0600 
    162 H162        3.7298  -17.4465  -37.9870 H         1 UNK         0.0600 
    163 H163        2.5071  -18.6957  -37.8132 H         1 UNK         0.0600 
    164 H164        1.1272  -15.3994  -39.6932 H         1 UNK         0.3000 
    165 H165        3.1579  -12.9357  -39.0429 H         1 UNK         0.0600 
    166 H166        3.4252  -13.6135  -42.0124 H         1 UNK         0.0600 
    167 H167        3.3199  -11.9607  -41.3976 H         1 UNK         0.0600 
    168 H168        4.6687  -12.9901  -40.9432 H         1 UNK         0.0600 
    169 H169        1.0359  -13.4783  -41.0519 H         1 UNK         0.3000 
    170 H170       -1.5634  -13.1414  -38.7276 H         1 UNK         0.0600 
    171 H171       -0.8302  -10.9561  -40.7518 H         1 UNK         0.0600 
    172 H172       -2.4404  -11.2669  -40.1010 H         1 UNK         0.0600 
    173 H173       -1.1606  -10.6953  -39.0435 H         1 UNK         0.0600 
    174 H174       -1.5487  -13.1581  -41.5903 H         1 UNK         0.3000 
    175 H175       -1.0445  -16.6224  -42.0962 H         1 UNK         0.0600 
    176 H176       -3.6329  -14.9946  -42.3403 H         1 UNK         0.0600 
    177 H177       -3.2440  -16.4571  -43.2440 H         1 UNK         0.0600 
    178 H178       -3.4665  -16.5343  -41.5032 H         1 UNK         0.0600 
    179 H179       -1.7209  -14.5414  -43.9122 H         1 UNK         0.3000 
    180 H180        0.0486  -12.7225  -44.4716 H         1 UNK         0.0600 
    181 H181        2.6470  -14.2734  -44.8826 H         1 UNK         0.0600 
    182 H182        2.4204  -12.8157  -43.9206 H         1 UNK         0.0600 
    183 H183        2.2397  -12.7413  -45.6594 H         1 UNK         0.0600 
    184 H184        0.7266  -14.8100  -46.4209 H         1 UNK         0.3000 
    185 H185       -1.8830  -15.6961  -47.5934 H         1 UNK         0.0600 
    186 H186       -2.7724  -14.3036  -49.4804 H         1 UNK         0.0600 
    187 H187       -3.5009  -13.8501  -47.9499 H         1 UNK         0.0600 
    188 H188       -2.2419  -12.8395  -48.6530 H         1 UNK         0.0600 
    189 H189        0.3749  -13.9808  -48.4541 H         1 UNK         0.3000 
    190 H190       -0.1900  -20.0636  -45.5165 H         1 UNK         0.3000 
    191 H191       -2.7069  -19.2278  -46.4580 H         1 UNK         0.0600 
    192 H192       -1.8168  -19.8910  -43.6072 H         1 UNK         0.0600 
    193 H193       -1.6182  -18.3387  -44.4175 H         1 UNK         0.0600 
    194 H194       -3.2279  -18.9386  -44.0448 H         1 UNK         0.0600 
    195 H195       -1.7724  -22.3780  -45.0231 H         1 UNK         0.3000 
    196 H196       -4.2843  -23.3493  -44.3223 H         1 UNK         0.0600 
    197 H197       -2.2324  -24.4108  -43.5534 H         1 UNK         0.0600 
    198 H198       -1.7690  -24.8487  -45.1987 H         1 UNK         0.0600 
    199 H199       -3.1639  -25.6058  -44.4382 H         1 UNK         0.0600 
    200 H200       -5.9743  -23.2629  -45.6379 H         1 UNK         0.3000 
    201 H201       -7.4308  -23.5513  -47.2710 H         1 UNK         0.0600 
    202 H202       -7.4792  -25.7260  -48.4492 H         1 UNK         0.0600 
    203 H203       -7.0339  -25.9757  -46.7708 H         1 UNK         0.0600 
    204 H204       -5.8005  -26.0376  -48.0276 H         1 UNK         0.0600 
    205 H205       -5.0894  -21.8678  -47.8316 H         1 UNK         0.3000 
    206 H206       -3.9797  -20.7614  -49.4065 H         1 UNK         0.0600 
    207 H207       -6.3009  -21.5103  -51.2681 H         1 UNK         0.0600 
    208 H208       -5.1291  -20.2304  -51.5405 H         1 UNK         0.0600 
    209 H209       -6.2490  -20.1130  -50.1942 H         1 UNK         0.0600 
    210 H210       -3.0033  -23.2278  -48.8978 H         1 UNK         0.3000 
    211 H211       -1.6504  -24.8518  -49.4762 H         1 UNK         0.0600 
    212 H212       -0.2809  -22.9996  -50.4449 H         1 UNK         0.0600 
    213 H213       -0.0321  -24.5171  -51.2922 H         1 UNK         0.0600 
    214 H214       -1.0312  -23.2709  -52.0215 H         1 UNK         0.0600 
    215 H215       -4.2094  -25.4039  -49.8440 H         1 UNK         0.3000 
    216 H216       -5.7156  -26.7991  -50.6570 H         1 UNK         0.0600 
    217 H217       -5.0607  -28.8183  -51.9037 H         1 UNK         0.0600 
    218 H218       -3.4804  -28.1431  -52.2664 H         1 UNK         0.0600 
    219 H219       -3.9173  -28.5286  -50.6024 H         1 UNK         0.0600 
    220 H220       -5.9673  -24.4603  -51.5854 H         1 UNK         0.3000 
    221 H221       -6.8622  -23.1065  -53.0640 H         1 UNK         0.0600 
    222 H222       -7.8759  -25.6523  -54.4322 H         1 UNK         0.0600 
    223 H223       -8.6260  -24.8646  -53.0446 H         1 UNK         0.0600 
    224 H224       -8.5624  -24.0414  -54.5938 H         1 UNK         0.0600 
    225 H225       -4.2475  -23.1463  -53.5239 H         1 UNK         0.3000 
    226 H226       -3.5983  -23.5657  -56.3500 H         1 UNK         0.0600 
    227 H227       -1.9107  -23.9754  -54.5870 H         1 UNK         0.0600 
    228 H228       -1.3891  -22.6658  -55.6396 H         1 UNK         0.0600 
    229 H229       -2.0357  -22.3065  -54.0440 H         1 UNK         0.0600 
    230 H230       -5.4988  -22.2412  -56.9724 H         1 UNK         0.3000 
    231 H231       -6.4799  -20.4838  -57.9178 H         1 UNK         0.0600 
    232 H232       -5.0780  -18.8204  -59.0843 H         1 UNK         0.0600 
    233 H233       -4.3553  -20.4113  -59.2494 H         1 UNK         0.0600 
    234 H234       -3.6799  -19.2495  -58.1080 H         1 UNK         0.0600 
    235 H235       -6.3653  -20.5431  -55.0763 H         1 UNK         0.3000 
    236 H236       -6.8037  -19.4675  -53.1957 H         1 UNK         0.0600 
    237 H237       -8.7368  -18.5597  -54.5106 H         1 UNK         0.0600 
    238 H238       -8.2161  -17.4530  -53.2523 H         1 UNK         0.0600 
    239 H239       -7.7815  -17.1371  -54.9261 H         1 UNK         0.0600 
    240 H240       -4.1274  -19.0303  -54.5742 H         1 UNK         0.3000 
    241 H241       -2.2286  -18.0020  -54.3795 H         1 UNK         0.0600 
    242 H242       -3.8089  -14.9122  -55.9404 H         1 UNK         0.3800 
    243 H243       -4.4818  -16.5179  -55.7935 H         1 UNK         0.3800 
    244 H244       -1.4940  -16.9295  -52.2652 H         1 UNK         0.0800 
    245 H245       -3.1374  -16.7901  -51.7273 H         1 UNK         0.0800 
    246 H246       -1.3915  -19.8843  -53.6068 H         1 UNK         0.0800 
    247 H247       -1.2024  -20.9891  -52.2857 H         1 UNK         0.0800 
@<TRIPOS>BOND
     1    1    2 1    
     2    1  127 1    
     3    1  128 1    
     4    1  129 1    
     5    2    3 2    
     6    2    4 am   BACKBONE|DICT|INTERRES
     7    4    5 1    
     8    4  130 1    
     9    5    6 1    
    10    5   65 1    
    11    5  131 1    
    12    6    7 1    
    13    6  132 1    
    14    6  133 1    
    15    7    8 1    
    16    8    9 1    
    17    8  134 1    
    18    8  135 1    
    19    9   10 ar   
    20    9   14 ar   
    21   10   11 ar   
    22   10  136 1    
    23   11   12 ar   
    24   11  126 1    
    25   12   13 ar   
    26   12  137 1    
    27   13   14 ar   
    28   13   15 1    
    29   14  138 1    
    30   15   16 1    
    31   15  139 1    
    32   15  140 1    
    33   16   17 1    
    34   17   18 1    
    35   17  141 1    
    36   17  142 1    
    37   18   19 1    
    38   18   67 1    
    39   18  143 1    
    40   19   20 am   BACKBONE|DICT|INTERRES
    41   19  144 1    
    42   20   21 2    
    43   20   22 1    
    44   22   23 1    
    45   22   24 1    
    46   22  145 1    
    47   23  146 1    
    48   23  147 1    
    49   23  148 1    
    50   24   25 am   BACKBONE|DICT|INTERRES
    51   24  149 1    
    52   25   26 2    
    53   25   27 1    
    54   27   28 1    
    55   27   29 1    
    56   27  150 1    
    57   28  151 1    
    58   28  152 1    
    59   28  153 1    
    60   29   30 am   BACKBONE|DICT|INTERRES
    61   29  154 1    
    62   30   31 2    
    63   30   32 1    
    64   32   33 1    
    65   32   34 1    
    66   32  155 1    
    67   33  156 1    
    68   33  157 1    
    69   33  158 1    
    70   34   35 am   BACKBONE|DICT|INTERRES
    71   34  159 1    
    72   35   36 2    
    73   35   37 1    
    74   37   38 1    
    75   37   39 1    
    76   37  160 1    
    77   38  161 1    
    78   38  162 1    
    79   38  163 1    
    80   39   40 am   BACKBONE|DICT|INTERRES
    81   39  164 1    
    82   40   41 2    
    83   40   42 1    
    84   42   43 1    
    85   42   44 1    
    86   42  165 1    
    87   43  166 1    
    88   43  167 1    
    89   43  168 1    
    90   44   45 am   BACKBONE|DICT|INTERRES
    91   44  169 1    
    92   45   46 2    
    93   45   47 1    
    94   47   48 1    
    95   47   49 1    
    96   47  170 1    
    97   48  171 1    
    98   48  172 1    
    99   48  173 1    
   100   49   50 am   BACKBONE|DICT|INTERRES
   101   49  174 1    
   102   50   51 2    
   103   50   52 1    
   104   52   53 1    
   105   52   54 1    
   106   52  175 1    
   107   53  176 1    
   108   53  177 1    
   109   53  178 1    
   110   54   55 am   BACKBONE|DICT|INTERRES
   111   54  179 1    
   112   55   56 2    
   113   55   57 1    
   114   57   58 1    
   115   57   59 1    
   116   57  180 1    
   117   58  181 1    
   118   58  182 1    
   119   58  183 1    
   120   59   60 am   BACKBONE|DICT|INTERRES
   121   59  184 1    
   122   60   61 2    
   123   60   62 1    
   124   62   63 1    
   125   62   64 1    
   126   62  185 1    
   127   63  186 1    
   128   63  187 1    
   129   63  188 1    
   130   64   65 am   BACKBONE|DICT|INTERRES
   131   64  189 1    
   132   65   66 2    
   133   67   68 2    
   134   67   69 am   BACKBONE|DICT|INTERRES
   135   69   70 1    
   136   69  190 1    
   137   70   71 1    
   138   70   72 1    
   139   70  191 1    
   140   71  192 1    
   141   71  193 1    
   142   71  194 1    
   143   72   73 2    
   144   72   74 am   BACKBONE|DICT|INTERRES
   145   74   75 1    
   146   74  195 1    
   147   75   76 1    
   148   75   77 1    
   149   75  196 1    
   150   76  197 1    
   151   76  198 1    
   152   76  199 1    
   153   77   78 2    
   154   77   79 am   BACKBONE|DICT|INTERRES
   155   79   80 1    
   156   79  200 1    
   157   80   81 1    
   158   80   82 1    
   159   80  201 1    
   160   81  202 1    
   161   81  203 1    
   162   81  204 1    
   163   82   83 2    
   164   82   84 am   BACKBONE|DICT|INTERRES
   165   84   85 1    
   166   84  205 1    
   167   85   86 1    
   168   85   87 1    
   169   85  206 1    
   170   86  207 1    
   171   86  208 1    
   172   86  209 1    
   173   87   88 2    
   174   87   89 am   BACKBONE|DICT|INTERRES
   175   89   90 1    
   176   89  210 1    
   177   90   91 1    
   178   90   92 1    
   179   90  211 1    
   180   91  212 1    
   181   91  213 1    
   182   91  214 1    
   183   92   93 2    
   184   92   94 am   BACKBONE|DICT|INTERRES
   185   94   95 1    
   186   94  215 1    
   187   95   96 1    
   188   95   97 1    
   189   95  216 1    
   190   96  217 1    
   191   96  218 1    
   192   96  219 1    
   193   97   98 2    
   194   97   99 am   BACKBONE|DICT|INTERRES
   195   99  100 1    
   196   99  220 1    
   197  100  101 1    
   198  100  102 1    
   199  100  221 1    
   200  101  222 1    
   201  101  223 1    
   202  101  224 1    
   203  102  103 2    
   204  102  104 am   BACKBONE|DICT|INTERRES
   205  104  105 1    
   206  104  225 1    
   207  105  106 1    
   208  105  107 1    
   209  105  226 1    
   210  106  227 1    
   211  106  228 1    
   212  106  229 1    
   213  107  108 2    
   214  107  109 am   BACKBONE|DICT|INTERRES
   215  109  110 1    
   216  109  230 1    
   217  110  111 1    
   218  110  112 1    
   219  110  231 1    
   220  111  232 1    
   221  111  233 1    
   222  111  234 1    
   223  112  113 2    
   224  112  114 am   BACKBONE|DICT|INTERRES
   225  114  115 1    
   226  114  235 1    
   227  115  116 1    
   228  115  117 1    
   229  115  236 1    
   230  116  237 1    
   231  116  238 1    
   232  116  239 1    
   233  117  118 2    
   234  117  119 am   BACKBONE|DICT|INTERRES
   235  119  120 1    
   236  119  240 1    
   237  120  121 1    
   238  120  124 1    
   239  120  241 1    
   240  121  122 am   BACKBONE|DICT|INTERRES
   241  121  123 2    
   242  122  242 1    
   243  122  243 1    
   244  124  125 1    
   245  124  244 1    
   246  124  245 1    
   247  125  126 1    
   248  126  246 1    
   249  126  247 1    
@<TRIPOS>SUBSTRUCTURE
     1 UNK         1 GROUP             0       ****    0 ROOT    
