@<TRIPOS>MOLECULE
3R540
247   249    1
SMALL
USER_CHARGES


@<TRIPOS>ATOM
      1 CA         -0.0781   -9.8630  -48.3102 C.3       0 UNK        -0.1800 
      2 C           1.2694  -10.5403  -48.5153 C.2       0 UNK         0.5000 
      3 O           2.2217   -9.8920  -48.9493 O.2       0 UNK        -0.5000 
      4 N           1.3516  -11.8413  -48.2060 N.am      1 UNK        -0.5000 
      5 CA          2.5745  -12.6511  -48.2930 C.3       1 UNK         0.1400 
      6 C6          2.2336  -14.1621  -48.2510 C.3       23 UNK        -0.0398 
      7 S7          3.6097  -15.2256  -48.8023 S.3       23 UNK        -0.2404 
      8 C8          3.1923  -15.4836  -50.5533 C.3       23 UNK        -0.0205 
      9 C9          2.2120  -16.6312  -50.7320 C.ar      23 UNK        -0.0193 
     10 C10         0.8472  -16.3870  -50.9033 C.ar      23 UNK        -0.1150 
     11 C11        -0.0454  -17.4473  -51.0855 C.ar      23 UNK        -0.0193 
     12 C12         0.4376  -18.7605  -51.1080 C.ar      23 UNK        -0.1150 
     13 C13         1.8022  -19.0157  -50.9294 C.ar      23 UNK        -0.0193 
     14 C14         2.6809  -17.9465  -50.7410 C.ar      23 UNK        -0.1150 
     15 C15         2.3468  -20.4364  -50.9544 C.3       23 UNK        -0.0205 
     16 S16         2.3093  -21.2086  -49.3040 S.3       23 UNK        -0.2404 
     17 C17         0.5998  -21.8250  -49.2862 C.3       23 UNK        -0.0398 
     18 CA          0.3138  -22.8305  -48.1472 C.3       11 UNK         0.1400 
     19 N           0.4225  -22.2369  -46.8118 N.am      11 UNK        -0.5000 
     20 C           0.3847  -22.9371  -45.6683 C.2       10 UNK         0.5000 
     21 O           0.3100  -24.1651  -45.6194 O.2       10 UNK        -0.5000 
     22 CA          0.3760  -22.1295  -44.3573 C.3       10 UNK         0.1400 
     23 CB          1.8027  -21.7100  -43.9731 C.3       10 UNK        -0.1800 
     24 N          -0.4830  -20.9457  -44.4172 N.am      10 UNK        -0.5000 
     25 C          -1.8011  -20.9660  -44.6642 C.2       9 UNK         0.5000 
     26 O          -2.4517  -21.9980  -44.8130 O.2       9 UNK        -0.5000 
     27 CA         -2.5101  -19.6103  -44.8232 C.3       9 UNK         0.1400 
     28 CB         -3.0143  -19.1018  -43.4664 C.3       9 UNK        -0.1800 
     29 N          -1.6720  -18.5905  -45.4539 N.am      9 UNK        -0.5000 
     30 C          -1.1727  -18.6709  -46.6961 C.2       8 UNK         0.5000 
     31 O          -1.3539  -19.6329  -47.4443 O.2       8 UNK        -0.5000 
     32 CA         -0.3137  -17.4847  -47.1644 C.3       8 UNK         0.1400 
     33 CB         -1.2084  -16.3239  -47.6258 C.3       8 UNK        -0.1800 
     34 N           0.5744  -17.0193  -46.0990 N.am      8 UNK        -0.5000 
     35 C           1.7483  -17.5904  -45.7959 C.2       7 UNK         0.5000 
     36 O           2.2385  -18.5246  -46.4290 O.2       7 UNK        -0.5000 
     37 CA          2.4853  -17.0533  -44.5519 C.3       7 UNK         0.1400 
     38 CB          3.3932  -15.8682  -44.9126 C.3       7 UNK        -0.1800 
     39 N           1.5860  -16.6526  -43.4682 N.am      7 UNK        -0.5000 
     40 C           0.8046  -17.4962  -42.7798 C.2       6 UNK         0.5000 
     41 O           0.7608  -18.7085  -42.9839 O.2       6 UNK        -0.5000 
     42 CA         -0.1157  -16.8771  -41.7102 C.3       6 UNK         0.1400 
     43 CB          0.6291  -16.7544  -40.3725 C.3       6 UNK        -0.1800 
     44 N          -0.6695  -15.5686  -42.0666 N.am      6 UNK        -0.5000 
     45 C          -1.3204  -15.2505  -43.1956 C.2       5 UNK         0.5000 
     46 O          -1.5163  -16.0444  -44.1161 O.2       5 UNK        -0.5000 
     47 CA         -1.8299  -13.8012  -43.3340 C.3       5 UNK         0.1400 
     48 CB         -3.3648  -13.7683  -43.2774 C.3       5 UNK        -0.1800 
     49 N          -1.2980  -12.8755  -42.3269 N.am      5 UNK        -0.5000 
     50 C          -0.0258  -12.4647  -42.2600 C.2       4 UNK         0.5000 
     51 O           0.8594  -12.8496  -43.0295 O.2       4 UNK        -0.5000 
     52 CA          0.3177  -11.5048  -41.1117 C.3       4 UNK         0.1400 
     53 CB          0.6035  -12.2885  -39.8204 C.3       4 UNK        -0.1800 
     54 N           1.5087  -10.7544  -41.4852 N.am      4 UNK        -0.5000 
     55 C           1.6375   -9.4234  -41.4767 C.2       3 UNK         0.5000 
     56 O           0.7999   -8.6567  -40.9991 O.2       3 UNK        -0.5000 
     57 CA          2.9139   -8.8439  -42.1255 C.3       3 UNK         0.1400 
     58 CB          3.9098   -8.3953  -41.0445 C.3       3 UNK        -0.1800 
     59 N           3.5923   -9.7730  -43.0377 N.am      3 UNK        -0.5000 
     60 C           3.0871  -10.2199  -44.1955 C.2       2 UNK         0.5000 
     61 O           2.0000   -9.8524  -44.6515 O.2       2 UNK        -0.5000 
     62 CA          3.9268  -11.2609  -44.9548 C.3       2 UNK         0.1400 
     63 CB          4.3694  -12.4361  -44.0593 C.3       2 UNK        -0.1800 
     64 N           3.1367  -11.7649  -46.0706 N.am      2 UNK        -0.5000 
     65 C           3.6161  -12.2549  -47.2179 C.2       1 UNK         0.5000 
     66 O           4.8195  -12.3712  -47.4551 O.2       1 UNK        -0.5000 
     67 C          -1.0751  -23.4578  -48.3566 C.2       11 UNK         0.5000 
     68 O          -1.1658  -24.6031  -48.7999 O.2       11 UNK        -0.5000 
     69 N          -2.1280  -22.6986  -48.0215 N.am      12 UNK        -0.5000 
     70 CA         -3.5199  -23.1204  -48.1689 C.3       12 UNK         0.1400 
     71 CB         -4.4530  -21.9352  -47.8843 C.3       12 UNK        -0.1800 
     72 C          -3.8746  -24.3373  -47.2956 C.2       12 UNK         0.5000 
     73 O          -4.5479  -25.2506  -47.7716 O.2       12 UNK        -0.5000 
     74 N          -3.3747  -24.3533  -46.0528 N.am      13 UNK        -0.5000 
     75 CA         -3.5118  -25.4618  -45.1096 C.3       13 UNK         0.1400 
     76 CB         -3.0090  -25.0222  -43.7263 C.3       13 UNK        -0.1800 
     77 C          -2.7802  -26.7348  -45.5707 C.2       13 UNK         0.5000 
     78 O          -3.3182  -27.8299  -45.4053 O.2       13 UNK        -0.5000 
     79 N          -1.5826  -26.5722  -46.1522 N.am      14 UNK        -0.5000 
     80 CA         -0.7839  -27.6654  -46.7081 C.3       14 UNK         0.1400 
     81 CB          0.6418  -27.1716  -46.9975 C.3       14 UNK        -0.1800 
     82 C          -1.4186  -28.2773  -47.9700 C.2       14 UNK         0.5000 
     83 O          -1.4370  -29.5012  -48.1072 O.2       14 UNK        -0.5000 
     84 N          -1.9356  -27.4195  -48.8600 N.am      15 UNK        -0.5000 
     85 CA         -2.6176  -27.8212  -50.0909 C.3       15 UNK         0.1400 
     86 CB         -2.7112  -26.6087  -51.0284 C.3       15 UNK        -0.1800 
     87 C          -4.0233  -28.3998  -49.8484 C.2       15 UNK         0.5000 
     88 O          -4.4714  -29.2348  -50.6350 O.2       15 UNK        -0.5000 
     89 N          -4.6963  -27.9161  -48.7930 N.am      16 UNK        -0.5000 
     90 CA         -6.1132  -28.1190  -48.4693 C.3       16 UNK         0.1400 
     91 CB         -6.4060  -29.5948  -48.1282 C.3       16 UNK        -0.1800 
     92 C          -7.0345  -27.5430  -49.5679 C.2       16 UNK         0.5000 
     93 O          -8.0546  -28.1442  -49.9104 O.2       16 UNK        -0.5000 
     94 N          -6.6323  -26.3909  -50.1159 N.am      17 UNK        -0.5000 
     95 CA         -7.2255  -25.7034  -51.2579 C.3       17 UNK         0.1400 
     96 CB         -6.9332  -26.4905  -52.5524 C.3       17 UNK        -0.1800 
     97 C          -6.6315  -24.2875  -51.3314 C.2       17 UNK         0.5000 
     98 O          -5.7342  -23.9582  -50.5517 O.2       17 UNK        -0.5000 
     99 N          -7.1179  -23.4745  -52.2774 N.am      18 UNK        -0.5000 
    100 CA        -6.6093  -22.1321  -52.5682 C.3       18 UNK         0.1400 
    101 CB        -7.6726  -21.3522  -53.3623 C.3       18 UNK        -0.1800 
    102 C         -5.2566  -22.1945  -53.3083 C.2       18 UNK         0.5000 
    103 O         -5.2038  -22.0021  -54.5258 O.2       18 UNK        -0.5000 
    104 N         -4.1920  -22.5067  -52.5592 N.am      19 UNK        -0.5000 
    105 CA        -2.8060  -22.5956  -53.0178 C.3       19 UNK         0.1400 
    106 CB        -1.9058  -22.9196  -51.8198 C.3       19 UNK        -0.1800 
    107 C         -2.3380  -21.2950  -53.6909 C.2       19 UNK         0.5000 
    108 O         -2.4894  -20.2248  -53.1033 O.2       19 UNK        -0.5000 
    109 N         -1.8183  -21.4138  -54.9208 N.am      20 UNK        -0.5000 
    110 CA        -1.3899  -20.3149  -55.7989 C.3       20 UNK         0.1400 
    111 CB        -0.1436  -19.6118  -55.2187 C.3       20 UNK        -0.1800 
    112 C         -2.5242  -19.3248  -56.1606 C.2       20 UNK         0.5000 
    113 O         -2.2438  -18.1800  -56.5188 O.2       20 UNK        -0.5000 
    114 N         -3.7810  -19.7914  -56.0692 N.am      21 UNK        -0.5000 
    115 CA        -5.0298  -19.0416  -56.2356 C.3       21 UNK         0.1400 
    116 CB        -5.1778  -18.5091  -57.6768 C.3       21 UNK        -0.1800 
    117 C         -5.2310  -17.9537  -55.1578 C.2       21 UNK         0.5000 
    118 O         -5.8523  -16.9249  -55.4320 O.2       21 UNK        -0.5000 
    119 N         -4.7209  -18.2017  -53.9467 N.am      22 UNK        -0.5000 
    120 CA        -4.8131  -17.3094  -52.7860 C.3       22 UNK         0.1400 
    121 C         -4.9629  -18.0947  -51.4518 C.2       22 UNK         0.5000 
    122 N         -5.0103  -17.4122  -50.3147 N.am      22 UNK        -0.7600 
    123 O         -5.0812  -19.3168  -51.4269 O.2       22 UNK        -0.5000 
    124 C124       -3.6956  -16.2253  -52.7798 C.3       23 UNK        -0.0398 
    125 S125       -1.9870  -16.8509  -52.9652 S.3       23 UNK        -0.2404 
    126 C126       -1.5316  -17.1661  -51.2351 C.3       23 UNK        -0.0205 
    127 H127       -0.8355  -10.5635  -47.9574 H         1 UNK         0.0600 
    128 H128       -0.4271   -9.4285  -49.2470 H         1 UNK         0.0600 
    129 H129        0.0139   -9.0637  -47.5747 H         1 UNK         0.0600 
    130 H130        0.5293  -12.3155  -47.8614 H         1 UNK         0.3000 
    131 H131        3.0257  -12.4399  -49.2652 H         1 UNK         0.0600 
    132 H132        1.3731  -14.3638  -48.8880 H         1 UNK         0.0800 
    133 H133        1.9296  -14.4665  -47.2495 H         1 UNK         0.0800 
    134 H134        2.7979  -14.5626  -50.9855 H         1 UNK         0.0800 
    135 H135        4.1093  -15.7047  -51.1014 H         1 UNK         0.0800 
    136 H136        0.4763  -15.3719  -50.8981 H         1 UNK         0.1150 
    137 H137       -0.2508  -19.5799  -51.2619 H         1 UNK         0.1150 
    138 H138        3.7360  -18.1372  -50.6023 H         1 UNK         0.1150 
    139 H139        1.7941  -21.0407  -51.6750 H         1 UNK         0.0800 
    140 H140        3.3795  -20.4270  -51.3066 H         1 UNK         0.0800 
    141 H141        0.4251  -22.3047  -50.2495 H         1 UNK         0.0800 
    142 H142       -0.0784  -20.9729  -49.2388 H         1 UNK         0.0800 
    143 H143        1.0477  -23.6368  -48.2132 H         1 UNK         0.0600 
    144 H144        0.4537  -21.2277  -46.7686 H         1 UNK         0.3000 
    145 H145       -0.0125  -22.7806  -43.5716 H         1 UNK         0.0600 
    146 H146        1.8250  -21.2518  -42.9843 H         1 UNK         0.0600 
    147 H147        2.4713  -22.5714  -43.9456 H         1 UNK         0.0600 
    148 H148        2.2162  -20.9928  -44.6836 H         1 UNK         0.0600 
    149 H149       -0.0375  -20.0533  -44.2284 H         1 UNK         0.3000 
    150 H150       -3.3760  -19.7627  -45.4701 H         1 UNK         0.0600 
    151 H151       -3.7406  -19.7942  -43.0390 H         1 UNK         0.0600 
    152 H152       -3.5028  -18.1315  -43.5594 H         1 UNK         0.0600 
    153 H153       -2.1992  -19.0045  -42.7515 H         1 UNK         0.0600 
    154 H154       -1.5110  -17.7403  -44.9202 H         1 UNK         0.3000 
    155 H155        0.2822  -17.8166  -48.0180 H         1 UNK         0.0600 
    156 H156       -0.6238  -15.5474  -48.1173 H         1 UNK         0.0600 
    157 H157       -1.9581  -16.6702  -48.3371 H         1 UNK         0.0600 
    158 H158       -1.7438  -15.8659  -46.7940 H         1 UNK         0.0600 
    159 H159        0.2003  -16.3172  -45.4746 H         1 UNK         0.3000 
    160 H160        3.1188  -17.8613  -44.1797 H         1 UNK         0.0600 
    161 H161        2.8157  -14.9796  -45.1666 H         1 UNK         0.0600 
    162 H162        4.0319  -16.1042  -45.7648 H         1 UNK         0.0600 
    163 H163        4.0476  -15.6108  -44.0798 H         1 UNK         0.0600 
    164 H164        1.5447  -15.6678  -43.2459 H         1 UNK         0.3000 
    165 H165       -0.9568  -17.5543  -41.5632 H         1 UNK         0.0600 
    166 H166       -0.0378  -16.4197  -39.5778 H         1 UNK         0.0600 
    167 H167        1.0413  -17.7164  -40.0645 H         1 UNK         0.0600 
    168 H168        1.4572  -16.0471  -40.4362 H         1 UNK         0.0600 
    169 H169       -0.5620  -14.8399  -41.3780 H         1 UNK         0.3000 
    170 H170       -1.5175  -13.4466  -44.3184 H         1 UNK         0.0600 
    171 H171       -3.7995  -14.4178  -44.0386 H         1 UNK         0.0600 
    172 H172       -3.7389  -14.1024  -42.3089 H         1 UNK         0.0600 
    173 H173       -3.7452  -12.7625  -43.4569 H         1 UNK         0.0600 
    174 H174       -1.9610  -12.5271  -41.6490 H         1 UNK         0.3000 
    175 H175       -0.5294  -10.8341  -40.9530 H         1 UNK         0.0600 
    176 H176       -0.2725  -12.8536  -39.5001 H         1 UNK         0.0600 
    177 H177        1.4235  -12.9963  -39.9508 H         1 UNK         0.0600 
    178 H178        0.8704  -11.6158  -39.0051 H         1 UNK         0.0600 
    179 H179        2.2099  -11.2978  -41.9694 H         1 UNK         0.3000 
    180 H180        2.6147   -7.9654  -42.7010 H         1 UNK         0.0600 
    181 H181        4.2588   -9.2372  -40.4452 H         1 UNK         0.0600 
    182 H182        3.4515   -7.6761  -40.3643 H         1 UNK         0.0600 
    183 H183        4.7813   -7.9115  -41.4861 H         1 UNK         0.0600 
    184 H184        4.4929  -10.1148  -42.7348 H         1 UNK         0.3000 
    185 H185        4.8092  -10.7463  -45.3405 H         1 UNK         0.0600 
    186 H186        5.0172  -12.1031  -43.2483 H         1 UNK         0.0600 
    187 H187        3.5145  -12.9450  -43.6135 H         1 UNK         0.0600 
    188 H188        4.9336  -13.1740  -44.6298 H         1 UNK         0.0600 
    189 H189        2.1421  -11.6021  -45.9772 H         1 UNK         0.3000 
    190 H190       -1.9648  -21.7663  -47.6594 H         1 UNK         0.3000 
    191 H191       -3.6517  -23.4149  -49.2101 H         1 UNK         0.0600 
    192 H192       -4.3614  -21.5875  -46.8553 H         1 UNK         0.0600 
    193 H193       -5.4944  -22.2161  -48.0470 H         1 UNK         0.0600 
    194 H194       -4.2365  -21.0955  -48.5454 H         1 UNK         0.0600 
    195 H195       -2.8777  -23.5312  -45.7152 H         1 UNK         0.3000 
    196 H196       -4.5741  -25.7005  -45.0264 H         1 UNK         0.0600 
    197 H197       -3.1064  -25.8289  -42.9987 H         1 UNK         0.0600 
    198 H198       -3.5819  -24.1743  -43.3506 H         1 UNK         0.0600 
    199 H199       -1.9588  -24.7287  -43.7556 H         1 UNK         0.0600 
    200 H200       -1.1895  -25.6408  -46.2216 H         1 UNK         0.3000 
    201 H201       -0.7190  -28.4531  -45.9546 H         1 UNK         0.0600 
    202 H202        1.1293  -26.8234  -46.0868 H         1 UNK         0.0600 
    203 H203        0.6481  -26.3499  -47.7141 H         1 UNK         0.0600 
    204 H204        1.2571  -27.9724  -47.4094 H         1 UNK         0.0600 
    205 H205       -1.8224  -26.4213  -48.7027 H         1 UNK         0.3000 
    206 H206       -2.0186  -28.5896  -50.5842 H         1 UNK         0.0600 
    207 H207       -1.7217  -26.2156  -51.2616 H         1 UNK         0.0600 
    208 H208       -3.1870  -26.8767  -51.9725 H         1 UNK         0.0600 
    209 H209       -3.2989  -25.8055  -50.5814 H         1 UNK         0.0600 
    210 H210       -4.2505  -27.1784  -48.2577 H         1 UNK         0.3000 
    211 H211       -6.3055  -27.5303  -47.5712 H         1 UNK         0.0600 
    212 H212       -6.3081  -30.2429  -48.9992 H         1 UNK         0.0600 
    213 H213       -7.4216  -29.7116  -47.7485 H         1 UNK         0.0600 
    214 H214       -5.7275  -29.9617  -47.3580 H         1 UNK         0.0600 
    215 H215       -5.8288  -25.9101  -49.7236 H         1 UNK         0.3000 
    216 H216       -8.3030  -25.6187  -51.1052 H         1 UNK         0.0600 
    217 H217       -5.8606  -26.5859  -52.7265 H         1 UNK         0.0600 
    218 H218       -7.3664  -26.0008  -53.4249 H         1 UNK         0.0600 
    219 H219       -7.3530  -27.4956  -52.5135 H         1 UNK         0.0600 
    220 H220       -7.8357  -23.8210  -52.8971 H         1 UNK         0.3000 
    221 H221       -6.4509  -21.6065  -51.6243 H         1 UNK         0.0600 
    222 H222       -8.5963  -21.2541  -52.7920 H         1 UNK         0.0600 
    223 H223       -7.9117  -21.8392  -54.3085 H         1 UNK         0.0600 
    224 H224       -7.3232  -20.3438  -53.5890 H         1 UNK         0.0600 
    225 H225       -4.3591  -22.6984  -51.5794 H         1 UNK         0.3000 
    226 H226       -2.7470  -23.4184  -53.7327 H         1 UNK         0.0600 
    227 H227       -2.2209  -23.8345  -51.3235 H         1 UNK         0.0600 
    228 H228       -0.8718  -23.0591  -52.1368 H         1 UNK         0.0600 
    229 H229       -1.9249  -22.1172  -51.0809 H         1 UNK         0.0600 
    230 H230       -1.7530  -22.3372  -55.3264 H         1 UNK         0.3000 
    231 H231       -1.0929  -20.7790  -56.7403 H         1 UNK         0.0600 
    232 H232       -0.3715  -19.0767  -54.2966 H         1 UNK         0.0600 
    233 H233        0.2630  -18.8860  -55.9235 H         1 UNK         0.0600 
    234 H234        0.6480  -20.3284  -55.0006 H         1 UNK         0.0600 
    235 H235       -3.9077  -20.7396  -55.7341 H         1 UNK         0.3000 
    236 H236       -5.8316  -19.7638  -56.0763 H         1 UNK         0.0600 
    237 H237       -6.1767  -18.1040  -57.8417 H         1 UNK         0.0600 
    238 H238       -4.4653  -17.7126  -57.8923 H         1 UNK         0.0600 
    239 H239       -5.0268  -19.3029  -58.4083 H         1 UNK         0.0600 
    240 H240       -4.1996  -19.0554  -53.7760 H         1 UNK         0.3000 
    241 H241       -5.7655  -16.7823  -52.8669 H         1 UNK         0.0600 
    242 H242       -5.1287  -17.9235  -49.4550 H         1 UNK         0.3800 
    243 H243       -4.9716  -16.4062  -50.2893 H         1 UNK         0.3800 
    244 H244       -3.7587  -15.5890  -51.8968 H         1 UNK         0.0800 
    245 H245       -3.8688  -15.5514  -53.6196 H         1 UNK         0.0800 
    246 H246       -2.1078  -18.0103  -50.8538 H         1 UNK         0.0800 
    247 H247       -1.8036  -16.3002  -50.6314 H         1 UNK         0.0800 
@<TRIPOS>BOND
     1    1    2 1    
     2    1  127 1    
     3    1  128 1    
     4    1  129 1    
     5    2    3 2    
     6    2    4 am   BACKBONE|DICT|INTERRES
     7    4    5 1    
     8    4  130 1    
     9    5    6 1    
    10    5   65 1    
    11    5  131 1    
    12    6    7 1    
    13    6  132 1    
    14    6  133 1    
    15    7    8 1    
    16    8    9 1    
    17    8  134 1    
    18    8  135 1    
    19    9   10 ar   
    20    9   14 ar   
    21   10   11 ar   
    22   10  136 1    
    23   11   12 ar   
    24   11  126 1    
    25   12   13 ar   
    26   12  137 1    
    27   13   14 ar   
    28   13   15 1    
    29   14  138 1    
    30   15   16 1    
    31   15  139 1    
    32   15  140 1    
    33   16   17 1    
    34   17   18 1    
    35   17  141 1    
    36   17  142 1    
    37   18   19 1    
    38   18   67 1    
    39   18  143 1    
    40   19   20 am   BACKBONE|DICT|INTERRES
    41   19  144 1    
    42   20   21 2    
    43   20   22 1    
    44   22   23 1    
    45   22   24 1    
    46   22  145 1    
    47   23  146 1    
    48   23  147 1    
    49   23  148 1    
    50   24   25 am   BACKBONE|DICT|INTERRES
    51   24  149 1    
    52   25   26 2    
    53   25   27 1    
    54   27   28 1    
    55   27   29 1    
    56   27  150 1    
    57   28  151 1    
    58   28  152 1    
    59   28  153 1    
    60   29   30 am   BACKBONE|DICT|INTERRES
    61   29  154 1    
    62   30   31 2    
    63   30   32 1    
    64   32   33 1    
    65   32   34 1    
    66   32  155 1    
    67   33  156 1    
    68   33  157 1    
    69   33  158 1    
    70   34   35 am   BACKBONE|DICT|INTERRES
    71   34  159 1    
    72   35   36 2    
    73   35   37 1    
    74   37   38 1    
    75   37   39 1    
    76   37  160 1    
    77   38  161 1    
    78   38  162 1    
    79   38  163 1    
    80   39   40 am   BACKBONE|DICT|INTERRES
    81   39  164 1    
    82   40   41 2    
    83   40   42 1    
    84   42   43 1    
    85   42   44 1    
    86   42  165 1    
    87   43  166 1    
    88   43  167 1    
    89   43  168 1    
    90   44   45 am   BACKBONE|DICT|INTERRES
    91   44  169 1    
    92   45   46 2    
    93   45   47 1    
    94   47   48 1    
    95   47   49 1    
    96   47  170 1    
    97   48  171 1    
    98   48  172 1    
    99   48  173 1    
   100   49   50 am   BACKBONE|DICT|INTERRES
   101   49  174 1    
   102   50   51 2    
   103   50   52 1    
   104   52   53 1    
   105   52   54 1    
   106   52  175 1    
   107   53  176 1    
   108   53  177 1    
   109   53  178 1    
   110   54   55 am   BACKBONE|DICT|INTERRES
   111   54  179 1    
   112   55   56 2    
   113   55   57 1    
   114   57   58 1    
   115   57   59 1    
   116   57  180 1    
   117   58  181 1    
   118   58  182 1    
   119   58  183 1    
   120   59   60 am   BACKBONE|DICT|INTERRES
   121   59  184 1    
   122   60   61 2    
   123   60   62 1    
   124   62   63 1    
   125   62   64 1    
   126   62  185 1    
   127   63  186 1    
   128   63  187 1    
   129   63  188 1    
   130   64   65 am   BACKBONE|DICT|INTERRES
   131   64  189 1    
   132   65   66 2    
   133   67   68 2    
   134   67   69 am   BACKBONE|DICT|INTERRES
   135   69   70 1    
   136   69  190 1    
   137   70   71 1    
   138   70   72 1    
   139   70  191 1    
   140   71  192 1    
   141   71  193 1    
   142   71  194 1    
   143   72   73 2    
   144   72   74 am   BACKBONE|DICT|INTERRES
   145   74   75 1    
   146   74  195 1    
   147   75   76 1    
   148   75   77 1    
   149   75  196 1    
   150   76  197 1    
   151   76  198 1    
   152   76  199 1    
   153   77   78 2    
   154   77   79 am   BACKBONE|DICT|INTERRES
   155   79   80 1    
   156   79  200 1    
   157   80   81 1    
   158   80   82 1    
   159   80  201 1    
   160   81  202 1    
   161   81  203 1    
   162   81  204 1    
   163   82   83 2    
   164   82   84 am   BACKBONE|DICT|INTERRES
   165   84   85 1    
   166   84  205 1    
   167   85   86 1    
   168   85   87 1    
   169   85  206 1    
   170   86  207 1    
   171   86  208 1    
   172   86  209 1    
   173   87   88 2    
   174   87   89 am   BACKBONE|DICT|INTERRES
   175   89   90 1    
   176   89  210 1    
   177   90   91 1    
   178   90   92 1    
   179   90  211 1    
   180   91  212 1    
   181   91  213 1    
   182   91  214 1    
   183   92   93 2    
   184   92   94 am   BACKBONE|DICT|INTERRES
   185   94   95 1    
   186   94  215 1    
   187   95   96 1    
   188   95   97 1    
   189   95  216 1    
   190   96  217 1    
   191   96  218 1    
   192   96  219 1    
   193   97   98 2    
   194   97   99 am   BACKBONE|DICT|INTERRES
   195   99  100 1    
   196   99  220 1    
   197  100  101 1    
   198  100  102 1    
   199  100  221 1    
   200  101  222 1    
   201  101  223 1    
   202  101  224 1    
   203  102  103 2    
   204  102  104 am   BACKBONE|DICT|INTERRES
   205  104  105 1    
   206  104  225 1    
   207  105  106 1    
   208  105  107 1    
   209  105  226 1    
   210  106  227 1    
   211  106  228 1    
   212  106  229 1    
   213  107  108 2    
   214  107  109 am   BACKBONE|DICT|INTERRES
   215  109  110 1    
   216  109  230 1    
   217  110  111 1    
   218  110  112 1    
   219  110  231 1    
   220  111  232 1    
   221  111  233 1    
   222  111  234 1    
   223  112  113 2    
   224  112  114 am   BACKBONE|DICT|INTERRES
   225  114  115 1    
   226  114  235 1    
   227  115  116 1    
   228  115  117 1    
   229  115  236 1    
   230  116  237 1    
   231  116  238 1    
   232  116  239 1    
   233  117  118 2    
   234  117  119 am   BACKBONE|DICT|INTERRES
   235  119  120 1    
   236  119  240 1    
   237  120  121 1    
   238  120  124 1    
   239  120  241 1    
   240  121  122 am   BACKBONE|DICT|INTERRES
   241  121  123 2    
   242  122  242 1    
   243  122  243 1    
   244  124  125 1    
   245  124  244 1    
   246  124  245 1    
   247  125  126 1    
   248  126  246 1    
   249  126  247 1    
@<TRIPOS>SUBSTRUCTURE
     1 UNK         1 GROUP             0       ****    0 ROOT    
