@<TRIPOS>MOLECULE
3R540
247   249    1
SMALL
USER_CHARGES


@<TRIPOS>ATOM
      1 CA         -1.6209  -13.1854  -44.1668 C.3       0 UNK        -0.1800 
      2 C          -0.7009  -12.7840  -45.3108 C.2       0 UNK         0.5000 
      3 O          -1.1280  -12.0686  -46.2174 O.2       0 UNK        -0.5000 
      4 N           0.5587  -13.2325  -45.2739 N.am      1 UNK        -0.5000 
      5 CA          1.6039  -12.9783  -46.2749 C.3       1 UNK         0.1400 
      6 C6          2.7097  -14.0632  -46.2283 C.3       23 UNK        -0.0398 
      7 S7          2.0720  -15.7159  -46.6486 S.3       23 UNK        -0.2404 
      8 C8          2.5388  -15.8337  -48.4023 C.3       23 UNK        -0.0205 
      9 C9          1.8810  -17.0439  -49.0406 C.ar      23 UNK        -0.0193 
     10 C10         0.7170  -16.8968  -49.8003 C.ar      23 UNK        -0.1150 
     11 C11         0.0624  -18.0163  -50.3218 C.ar      23 UNK        -0.0193 
     12 C12         0.5900  -19.2899  -50.0779 C.ar      23 UNK        -0.1150 
     13 C13         1.7655  -19.4491  -49.3375 C.ar      23 UNK        -0.0193 
     14 C14         2.4133  -18.3184  -48.8330 C.ar      23 UNK        -0.1150 
     15 C15         2.3168  -20.8451  -49.0685 C.3       23 UNK        -0.0205 
     16 S16         2.6007  -21.1916  -47.2956 S.3       23 UNK        -0.2404 
     17 C17         0.9828  -20.7984  -46.5441 C.3       23 UNK        -0.0398 
     18 CA          0.0804  -22.0293  -46.2949 C.3       11 UNK         0.1400 
     19 N          -1.0420  -21.6806  -45.4239 N.am      11 UNK        -0.5000 
     20 C          -1.9620  -22.5342  -44.9547 C.2       10 UNK         0.5000 
     21 O          -1.9378  -23.7504  -45.1451 O.2       10 UNK        -0.5000 
     22 CA         -3.1357  -21.9064  -44.1851 C.3       10 UNK         0.1400 
     23 CB         -2.7386  -21.6169  -42.7308 C.3       10 UNK        -0.1800 
     24 N          -3.6108  -20.6761  -44.8220 N.am      10 UNK        -0.5000 
     25 C          -4.2501  -20.6378  -46.0000 C.2       9 UNK         0.5000 
     26 O          -4.5150  -21.6361  -46.6670 O.2       9 UNK        -0.5000 
     27 CA         -4.6225  -19.2480  -46.5440 C.3       9 UNK         0.1400 
     28 CB         -5.9028  -18.7261  -45.8755 C.3       9 UNK        -0.1800 
     29 N          -3.5490  -18.2676  -46.3789 N.am      9 UNK        -0.5000 
     30 C          -2.3631  -18.3405  -46.9987 C.2       8 UNK         0.5000 
     31 O          -2.0443  -19.2523  -47.7597 O.2       8 UNK        -0.5000 
     32 CA         -1.3512  -17.2264  -46.6818 C.3       8 UNK         0.1400 
     33 CB         -1.6840  -15.9578  -47.4836 C.3       8 UNK        -0.1800 
     34 N          -1.2720  -16.8822  -45.2601 N.am      8 UNK        -0.5000 
     35 C          -1.0061  -17.7343  -44.2626 C.2       7 UNK         0.5000 
     36 O          -0.8426  -18.9476  -44.4108 O.2       7 UNK        -0.5000 
     37 CA         -0.9030  -17.1235  -42.8580 C.3       7 UNK         0.1400 
     38 CB         -1.7837  -17.8781  -41.8495 C.3       7 UNK        -0.1800 
     39 N           0.4852  -17.1701  -42.4137 N.am      7 UNK        -0.5000 
     40 C           1.3942  -16.2235  -42.6698 C.2       6 UNK         0.5000 
     41 O           1.1468  -15.1755  -43.2703 O.2       6 UNK        -0.5000 
     42 CA          2.8274  -16.5042  -42.1814 C.3       6 UNK         0.1400 
     43 CB          3.7091  -16.9878  -43.3430 C.3       6 UNK        -0.1800 
     44 N           3.4417  -15.3243  -41.5728 N.am      6 UNK        -0.5000 
     45 C           3.0114  -14.7243  -40.4538 C.2       5 UNK         0.5000 
     46 O           2.0731  -15.1445  -39.7747 O.2       5 UNK        -0.5000 
     47 CA          3.7627  -13.4599  -39.9887 C.3       5 UNK         0.1400 
     48 CB          4.5820  -13.7578  -38.7224 C.3       5 UNK        -0.1800 
     49 N           4.6576  -12.8857  -40.9976 N.am      5 UNK        -0.5000 
     50 C           4.2582  -12.1696  -42.0555 C.2       4 UNK         0.5000 
     51 O           3.0762  -11.9656  -42.3400 O.2       4 UNK        -0.5000 
     52 CA          5.3813  -11.6096  -42.9462 C.3       4 UNK         0.1400 
     53 CB          5.8285  -12.6450  -43.9893 C.3       4 UNK        -0.1800 
     54 N           4.9597  -10.3833  -43.6227 N.am      4 UNK        -0.5000 
     55 C           4.9574   -9.1752  -43.0406 C.2       3 UNK         0.5000 
     56 O           5.3583   -8.9770  -41.8922 O.2       3 UNK        -0.5000 
     57 CA          4.4500   -7.9756  -43.8653 C.3       3 UNK         0.1400 
     58 CB          5.6344   -7.1610  -44.4094 C.3       3 UNK        -0.1800 
     59 N           3.5897   -8.3544  -44.9848 N.am      3 UNK        -0.5000 
     60 C           2.3052   -8.7159  -44.8764 C.2       2 UNK         0.5000 
     61 O           1.6914   -8.7494  -43.8088 O.2       2 UNK        -0.5000 
     62 CA          1.5730   -9.1039  -46.1782 C.3       2 UNK         0.1400 
     63 CB          2.2856   -8.6370  -47.4680 C.3       2 UNK        -0.1800 
     64 N           1.3005  -10.5409  -46.2413 N.am      2 UNK        -0.5000 
     65 C           2.1822  -11.5469  -46.1599 C.2       1 UNK         0.5000 
     66 O           3.3945  -11.3745  -46.0144 O.2       1 UNK        -0.5000 
     67 C          -0.4125  -22.6620  -47.6121 C.2       11 UNK         0.5000 
     68 O           0.0476  -23.7420  -47.9809 O.2       11 UNK        -0.5000 
     69 N          -1.3719  -22.0016  -48.2730 N.am      12 UNK        -0.5000 
     70 CA         -1.9830  -22.4673  -49.5135 C.3       12 UNK         0.1400 
     71 CB         -2.8341  -21.3437  -50.1017 C.3       12 UNK        -0.1800 
     72 C          -2.8138  -23.7491  -49.3391 C.2       12 UNK         0.5000 
     73 O          -2.7852  -24.6065  -50.2208 O.2       12 UNK        -0.5000 
     74 N          -3.5206  -23.8778  -48.2071 N.am      13 UNK        -0.5000 
     75 CA         -4.2579  -25.0849  -47.8331 C.3       13 UNK         0.1400 
     76 CB         -5.0838  -24.8358  -46.5630 C.3       13 UNK        -0.1800 
     77 C          -3.3299  -26.3006  -47.6650 C.2       13 UNK         0.5000 
     78 O          -3.6122  -27.3602  -48.2277 O.2       13 UNK        -0.5000 
     79 N          -2.2159  -26.1026  -46.9441 N.am      14 UNK        -0.5000 
     80 CA         -1.1527  -27.0917  -46.7603 C.3       14 UNK         0.1400 
     81 CB         -0.1389  -26.5712  -45.7306 C.3       14 UNK        -0.1800 
     82 C          -0.4518  -27.4700  -48.0788 C.2       14 UNK         0.5000 
     83 O          -0.1454  -28.6448  -48.2874 O.2       14 UNK        -0.5000 
     84 N          -0.2606  -26.4882  -48.9701 N.am      15 UNK        -0.5000 
     85 CA          0.2836  -26.6406  -50.3216 C.3       15 UNK         0.1400 
     86 CB          0.8334  -25.2827  -50.7940 C.3       15 UNK        -0.1800 
     87 C          -0.7340  -27.2468  -51.3167 C.2       15 UNK         0.5000 
     88 O          -0.9401  -26.7004  -52.4012 O.2       15 UNK        -0.5000 
     89 N          -1.3325  -28.3828  -50.9331 N.am      16 UNK        -0.5000 
     90 CA         -2.2554  -29.2181  -51.7067 C.3       16 UNK         0.1400 
     91 CB         -1.5127  -29.8911  -52.8806 C.3       16 UNK        -0.1800 
     92 C          -3.5429  -28.4872  -52.1447 C.2       16 UNK         0.5000 
     93 O          -3.9695  -28.6289  -53.2926 O.2       16 UNK        -0.5000 
     94 N          -4.1522  -27.7434  -51.2083 N.am      17 UNK        -0.5000 
     95 CA         -5.4322  -27.0382  -51.3495 C.3       17 UNK         0.1400 
     96 CB         -6.5960  -28.0429  -51.4828 C.3       17 UNK        -0.1800 
     97 C          -5.4316  -25.9624  -52.4578 C.2       17 UNK         0.5000 
     98 O          -6.4028  -25.8347  -53.2056 O.2       17 UNK        -0.5000 
     99 N          -4.3474  -25.1802  -52.5254 N.am      18 UNK        -0.5000 
    100 CA        -4.1668  -24.0722  -53.4664 C.3       18 UNK         0.1400 
    101 CB        -2.6651  -23.7740  -53.6012 C.3       18 UNK        -0.1800 
    102 C         -4.9313  -22.7955  -53.0635 C.2       18 UNK         0.5000 
    103 O         -4.9548  -21.8398  -53.8392 O.2       18 UNK        -0.5000 
    104 N         -5.5350  -22.7812  -51.8653 N.am      19 UNK        -0.5000 
    105 CA        -6.2241  -21.6420  -51.2448 C.3       19 UNK         0.1400 
    106 CB        -6.6788  -22.0519  -49.8348 C.3       19 UNK        -0.1800 
    107 C         -7.4034  -21.0626  -52.0525 C.2       19 UNK         0.5000 
    108 O         -7.7853  -19.9157  -51.8213 O.2       19 UNK        -0.5000 
    109 N         -7.9445  -21.8456  -52.9944 N.am      20 UNK        -0.5000 
    110 CA        -8.9563  -21.4090  -53.9559 C.3       20 UNK         0.1400 
    111 CB        -9.5902  -22.6512  -54.6012 C.3       20 UNK        -0.1800 
    112 C         -8.4010  -20.4636  -55.0431 C.2       20 UNK         0.5000 
    113 O         -9.1779  -19.7024  -55.6215 O.2       20 UNK        -0.5000 
    114 N         -7.0900  -20.5360  -55.3152 N.am      21 UNK        -0.5000 
    115 CA        -6.4042  -19.7645  -56.3532 C.3       21 UNK         0.1400 
    116 CB        -5.6830  -20.7395  -57.2981 C.3       21 UNK        -0.1800 
    117 C         -5.4019  -18.7567  -55.7648 C.2       21 UNK         0.5000 
    118 O         -5.2675  -17.6592  -56.3079 O.2       21 UNK        -0.5000 
    119 N         -4.7037  -19.1446  -54.6896 N.am      22 UNK        -0.5000 
    120 CA        -3.6881  -18.3346  -53.9994 C.3       22 UNK         0.1400 
    121 C         -4.2694  -17.0511  -53.3411 C.2       22 UNK         0.5000 
    122 N         -3.5676  -15.9289  -53.4243 N.am      22 UNK        -0.7600 
    123 O         -5.3302  -17.0747  -52.7219 O.2       22 UNK        -0.5000 
    124 C124       -2.9148  -19.1926  -52.9659 C.3       23 UNK        -0.0398 
    125 S125       -1.1846  -18.6570  -52.7305 S.3       23 UNK        -0.2404 
    126 C126       -1.2420  -17.8509  -51.0946 C.3       23 UNK        -0.0205 
    127 H127       -2.1319  -12.3070  -43.7726 H         1 UNK         0.0600 
    128 H128       -1.0699  -13.6462  -43.3473 H         1 UNK         0.0600 
    129 H129       -2.3750  -13.8893  -44.5180 H         1 UNK         0.0600 
    130 H130        0.8437  -13.8330  -44.5011 H         1 UNK         0.3000 
    131 H131        1.1419  -13.0336  -47.2630 H         1 UNK         0.0600 
    132 H132        3.5321  -13.8240  -46.9049 H         1 UNK         0.0800 
    133 H133        3.1383  -14.1150  -45.2272 H         1 UNK         0.0800 
    134 H134        2.2422  -14.9221  -48.9235 H         1 UNK         0.0800 
    135 H135        3.6237  -15.9075  -48.4897 H         1 UNK         0.0800 
    136 H136        0.3037  -15.9106  -49.9576 H         1 UNK         0.1150 
    137 H137        0.0786  -20.1601  -50.4628 H         1 UNK         0.1150 
    138 H138        3.3116  -18.4332  -48.2426 H         1 UNK         0.1150 
    139 H139        1.6505  -21.6082  -49.4734 H         1 UNK         0.0800 
    140 H140        3.2621  -20.9549  -49.6011 H         1 UNK         0.0800 
    141 H141        1.2043  -20.3191  -45.5896 H         1 UNK         0.0800 
    142 H142        0.4577  -20.0411  -47.1254 H         1 UNK         0.0800 
    143 H143        0.6683  -22.7832  -45.7672 H         1 UNK         0.0600 
    144 H144       -1.1287  -20.6978  -45.1794 H         1 UNK         0.3000 
    145 H145       -3.9582  -22.6247  -44.1767 H         1 UNK         0.0600 
    146 H146       -3.5606  -21.1642  -42.1761 H         1 UNK         0.0600 
    147 H147       -2.4641  -22.5372  -42.2139 H         1 UNK         0.0600 
    148 H148       -1.8822  -20.9453  -42.6759 H         1 UNK         0.0600 
    149 H149       -3.3830  -19.8067  -44.3638 H         1 UNK         0.3000 
    150 H150       -4.8177  -19.3550  -47.6134 H         1 UNK         0.0600 
    151 H151       -6.2219  -17.7825  -46.3185 H         1 UNK         0.0600 
    152 H152       -5.7646  -18.5656  -44.8056 H         1 UNK         0.0600 
    153 H153       -6.7229  -19.4349  -45.9983 H         1 UNK         0.0600 
    154 H154       -3.7270  -17.4897  -45.7613 H         1 UNK         0.3000 
    155 H155       -0.3675  -17.5839  -46.9922 H         1 UNK         0.0600 
    156 H156       -1.8178  -16.1842  -48.5416 H         1 UNK         0.0600 
    157 H157       -0.8826  -15.2228  -47.4093 H         1 UNK         0.0600 
    158 H158       -2.6035  -15.4872  -47.1339 H         1 UNK         0.0600 
    159 H159       -1.3524  -15.9015  -45.0413 H         1 UNK         0.3000 
    160 H160       -1.2500  -16.0887  -42.8887 H         1 UNK         0.0600 
    161 H161       -1.4313  -18.8961  -41.6851 H         1 UNK         0.0600 
    162 H162       -2.8169  -17.9359  -42.1942 H         1 UNK         0.0600 
    163 H163       -1.7911  -17.3721  -40.8840 H         1 UNK         0.0600 
    164 H164        0.7748  -18.0206  -41.9530 H         1 UNK         0.3000 
    165 H165        2.7937  -17.2907  -41.4246 H         1 UNK         0.0600 
    166 H166        3.8332  -16.2157  -44.1026 H         1 UNK         0.0600 
    167 H167        4.7005  -17.2758  -42.9931 H         1 UNK         0.0600 
    168 H168        3.2708  -17.8590  -43.8320 H         1 UNK         0.0600 
    169 H169        4.2025  -14.8970  -42.0773 H         1 UNK         0.3000 
    170 H170        3.0073  -12.7131  -39.7348 H         1 UNK         0.0600 
    171 H171        3.9468  -14.1496  -37.9268 H         1 UNK         0.0600 
    172 H172        5.3622  -14.4960  -38.9124 H         1 UNK         0.0600 
    173 H173        5.0583  -12.8553  -38.3386 H         1 UNK         0.0600 
    174 H174        5.6467  -13.0181  -40.8409 H         1 UNK         0.3000 
    175 H175        6.2423  -11.3822  -42.3137 H         1 UNK         0.0600 
    176 H176        5.0150  -12.9275  -44.6539 H         1 UNK         0.0600 
    177 H177        6.6406  -12.2574  -44.6045 H         1 UNK         0.0600 
    178 H178        6.1907  -13.5552  -43.5102 H         1 UNK         0.0600 
    179 H179        4.5301  -10.4972  -44.5350 H         1 UNK         0.3000 
    180 H180        3.8795   -7.3333  -43.1909 H         1 UNK         0.0600 
    181 H181        6.2421   -7.7470  -45.1001 H         1 UNK         0.0600 
    182 H182        6.2858   -6.8290  -43.5999 H         1 UNK         0.0600 
    183 H183        5.2923   -6.2694  -44.9351 H         1 UNK         0.0600 
    184 H184        4.0198   -8.3814  -45.8979 H         1 UNK         0.3000 
    185 H185        0.6028   -8.6063  -46.1418 H         1 UNK         0.0600 
    186 H186        1.6710   -8.8425  -48.3445 H         1 UNK         0.0600 
    187 H187        2.4660   -7.5613  -47.4506 H         1 UNK         0.0600 
    188 H188        3.2442   -9.1346  -47.6183 H         1 UNK         0.0600 
    189 H189        0.3215  -10.8039  -46.3165 H         1 UNK         0.3000 
    190 H190       -1.6837  -21.0963  -47.9285 H         1 UNK         0.3000 
    191 H191       -1.1787  -22.6803  -50.2192 H         1 UNK         0.0600 
    192 H192       -2.2443  -20.4397  -50.2163 H         1 UNK         0.0600 
    193 H193       -3.6896  -21.1058  -49.4691 H         1 UNK         0.0600 
    194 H194       -3.1959  -21.6136  -51.0907 H         1 UNK         0.0600 
    195 H195       -3.5635  -23.0985  -47.5572 H         1 UNK         0.3000 
    196 H196       -4.9572  -25.3035  -48.6393 H         1 UNK         0.0600 
    197 H197       -5.6390  -25.7299  -46.2771 H         1 UNK         0.0600 
    198 H198       -5.8114  -24.0390  -46.7176 H         1 UNK         0.0600 
    199 H199       -4.4550  -24.5562  -45.7183 H         1 UNK         0.0600 
    200 H200       -2.0758  -25.2001  -46.4986 H         1 UNK         0.3000 
    201 H201       -1.6099  -27.9980  -46.3581 H         1 UNK         0.0600 
    202 H202       -0.6179  -26.3755  -44.7710 H         1 UNK         0.0600 
    203 H203        0.3336  -25.6459  -46.0613 H         1 UNK         0.0600 
    204 H204        0.6525  -27.3013  -45.5571 H         1 UNK         0.0600 
    205 H205       -0.5033  -25.5418  -48.6952 H         1 UNK         0.3000 
    206 H206        1.1262  -27.3332  -50.2726 H         1 UNK         0.0600 
    207 H207        1.5622  -24.8824  -50.0890 H         1 UNK         0.0600 
    208 H208        1.3331  -25.3756  -51.7589 H         1 UNK         0.0600 
    209 H209        0.0366  -24.5484  -50.9069 H         1 UNK         0.0600 
    210 H210       -1.0895  -28.7312  -50.0106 H         1 UNK         0.3000 
    211 H211       -2.5796  -30.0112  -51.0315 H         1 UNK         0.0600 
    212 H212       -1.1892  -29.1632  -53.6254 H         1 UNK         0.0600 
    213 H213       -2.1534  -30.6143  -53.3866 H         1 UNK         0.0600 
    214 H214       -0.6311  -30.4294  -52.5329 H         1 UNK         0.0600 
    215 H215       -3.7181  -27.6735  -50.2933 H         1 UNK         0.3000 
    216 H216       -5.5859  -26.5011  -50.4156 H         1 UNK         0.0600 
    217 H217       -7.5592  -27.5324  -51.4507 H         1 UNK         0.0600 
    218 H218       -6.5872  -28.7660  -50.6671 H         1 UNK         0.0600 
    219 H219       -6.5511  -28.5954  -52.4217 H         1 UNK         0.0600 
    220 H220       -3.6089  -25.3040  -51.8369 H         1 UNK         0.3000 
    221 H221       -4.5411  -24.3784  -54.4452 H         1 UNK         0.0600 
    222 H222       -2.4843  -22.9772  -54.3239 H         1 UNK         0.0600 
    223 H223       -2.2268  -23.4625  -52.6529 H         1 UNK         0.0600 
    224 H224       -2.1204  -24.6529  -53.9462 H         1 UNK         0.0600 
    225 H225       -5.4628  -23.6170  -51.3058 H         1 UNK         0.3000 
    226 H226       -5.4977  -20.8338  -51.1473 H         1 UNK         0.0600 
    227 H227       -5.8358  -22.3627  -49.2178 H         1 UNK         0.0600 
    228 H228       -7.1612  -21.2196  -49.3205 H         1 UNK         0.0600 
    229 H229       -7.3922  -22.8761  -49.8673 H         1 UNK         0.0600 
    230 H230       -7.5787  -22.7798  -53.1091 H         1 UNK         0.3000 
    231 H231       -9.7370  -20.8691  -53.4158 H         1 UNK         0.0600 
    232 H232      -10.3719  -22.3691  -55.3077 H         1 UNK         0.0600 
    233 H233      -10.0492  -23.2951  -53.8507 H         1 UNK         0.0600 
    234 H234       -8.8527  -23.2422  -55.1458 H         1 UNK         0.0600 
    235 H235       -6.5087  -21.1595  -54.7648 H         1 UNK         0.3000 
    236 H236       -7.1231  -19.1963  -56.9470 H         1 UNK         0.0600 
    237 H237       -6.3904  -21.4147  -57.7798 H         1 UNK         0.0600 
    238 H238       -5.1566  -20.2023  -58.0881 H         1 UNK         0.0600 
    239 H239       -4.9490  -21.3474  -56.7671 H         1 UNK         0.0600 
    240 H240       -4.8557  -20.0793  -54.3217 H         1 UNK         0.3000 
    241 H241       -2.9861  -18.0240  -54.7761 H         1 UNK         0.0600 
    242 H242       -2.6890  -15.8923  -53.9175 H         1 UNK         0.3800 
    243 H243       -3.9288  -15.0922  -52.9938 H         1 UNK         0.3800 
    244 H244       -3.4481  -19.2437  -52.0159 H         1 UNK         0.0800 
    245 H245       -2.8488  -20.2238  -53.3152 H         1 UNK         0.0800 
    246 H246       -1.4724  -16.7950  -51.2436 H         1 UNK         0.0800 
    247 H247       -2.0530  -18.2487  -50.4864 H         1 UNK         0.0800 
@<TRIPOS>BOND
     1    1    2 1    
     2    1  127 1    
     3    1  128 1    
     4    1  129 1    
     5    2    3 2    
     6    2    4 am   BACKBONE|DICT|INTERRES
     7    4    5 1    
     8    4  130 1    
     9    5    6 1    
    10    5   65 1    
    11    5  131 1    
    12    6    7 1    
    13    6  132 1    
    14    6  133 1    
    15    7    8 1    
    16    8    9 1    
    17    8  134 1    
    18    8  135 1    
    19    9   10 ar   
    20    9   14 ar   
    21   10   11 ar   
    22   10  136 1    
    23   11   12 ar   
    24   11  126 1    
    25   12   13 ar   
    26   12  137 1    
    27   13   14 ar   
    28   13   15 1    
    29   14  138 1    
    30   15   16 1    
    31   15  139 1    
    32   15  140 1    
    33   16   17 1    
    34   17   18 1    
    35   17  141 1    
    36   17  142 1    
    37   18   19 1    
    38   18   67 1    
    39   18  143 1    
    40   19   20 am   BACKBONE|DICT|INTERRES
    41   19  144 1    
    42   20   21 2    
    43   20   22 1    
    44   22   23 1    
    45   22   24 1    
    46   22  145 1    
    47   23  146 1    
    48   23  147 1    
    49   23  148 1    
    50   24   25 am   BACKBONE|DICT|INTERRES
    51   24  149 1    
    52   25   26 2    
    53   25   27 1    
    54   27   28 1    
    55   27   29 1    
    56   27  150 1    
    57   28  151 1    
    58   28  152 1    
    59   28  153 1    
    60   29   30 am   BACKBONE|DICT|INTERRES
    61   29  154 1    
    62   30   31 2    
    63   30   32 1    
    64   32   33 1    
    65   32   34 1    
    66   32  155 1    
    67   33  156 1    
    68   33  157 1    
    69   33  158 1    
    70   34   35 am   BACKBONE|DICT|INTERRES
    71   34  159 1    
    72   35   36 2    
    73   35   37 1    
    74   37   38 1    
    75   37   39 1    
    76   37  160 1    
    77   38  161 1    
    78   38  162 1    
    79   38  163 1    
    80   39   40 am   BACKBONE|DICT|INTERRES
    81   39  164 1    
    82   40   41 2    
    83   40   42 1    
    84   42   43 1    
    85   42   44 1    
    86   42  165 1    
    87   43  166 1    
    88   43  167 1    
    89   43  168 1    
    90   44   45 am   BACKBONE|DICT|INTERRES
    91   44  169 1    
    92   45   46 2    
    93   45   47 1    
    94   47   48 1    
    95   47   49 1    
    96   47  170 1    
    97   48  171 1    
    98   48  172 1    
    99   48  173 1    
   100   49   50 am   BACKBONE|DICT|INTERRES
   101   49  174 1    
   102   50   51 2    
   103   50   52 1    
   104   52   53 1    
   105   52   54 1    
   106   52  175 1    
   107   53  176 1    
   108   53  177 1    
   109   53  178 1    
   110   54   55 am   BACKBONE|DICT|INTERRES
   111   54  179 1    
   112   55   56 2    
   113   55   57 1    
   114   57   58 1    
   115   57   59 1    
   116   57  180 1    
   117   58  181 1    
   118   58  182 1    
   119   58  183 1    
   120   59   60 am   BACKBONE|DICT|INTERRES
   121   59  184 1    
   122   60   61 2    
   123   60   62 1    
   124   62   63 1    
   125   62   64 1    
   126   62  185 1    
   127   63  186 1    
   128   63  187 1    
   129   63  188 1    
   130   64   65 am   BACKBONE|DICT|INTERRES
   131   64  189 1    
   132   65   66 2    
   133   67   68 2    
   134   67   69 am   BACKBONE|DICT|INTERRES
   135   69   70 1    
   136   69  190 1    
   137   70   71 1    
   138   70   72 1    
   139   70  191 1    
   140   71  192 1    
   141   71  193 1    
   142   71  194 1    
   143   72   73 2    
   144   72   74 am   BACKBONE|DICT|INTERRES
   145   74   75 1    
   146   74  195 1    
   147   75   76 1    
   148   75   77 1    
   149   75  196 1    
   150   76  197 1    
   151   76  198 1    
   152   76  199 1    
   153   77   78 2    
   154   77   79 am   BACKBONE|DICT|INTERRES
   155   79   80 1    
   156   79  200 1    
   157   80   81 1    
   158   80   82 1    
   159   80  201 1    
   160   81  202 1    
   161   81  203 1    
   162   81  204 1    
   163   82   83 2    
   164   82   84 am   BACKBONE|DICT|INTERRES
   165   84   85 1    
   166   84  205 1    
   167   85   86 1    
   168   85   87 1    
   169   85  206 1    
   170   86  207 1    
   171   86  208 1    
   172   86  209 1    
   173   87   88 2    
   174   87   89 am   BACKBONE|DICT|INTERRES
   175   89   90 1    
   176   89  210 1    
   177   90   91 1    
   178   90   92 1    
   179   90  211 1    
   180   91  212 1    
   181   91  213 1    
   182   91  214 1    
   183   92   93 2    
   184   92   94 am   BACKBONE|DICT|INTERRES
   185   94   95 1    
   186   94  215 1    
   187   95   96 1    
   188   95   97 1    
   189   95  216 1    
   190   96  217 1    
   191   96  218 1    
   192   96  219 1    
   193   97   98 2    
   194   97   99 am   BACKBONE|DICT|INTERRES
   195   99  100 1    
   196   99  220 1    
   197  100  101 1    
   198  100  102 1    
   199  100  221 1    
   200  101  222 1    
   201  101  223 1    
   202  101  224 1    
   203  102  103 2    
   204  102  104 am   BACKBONE|DICT|INTERRES
   205  104  105 1    
   206  104  225 1    
   207  105  106 1    
   208  105  107 1    
   209  105  226 1    
   210  106  227 1    
   211  106  228 1    
   212  106  229 1    
   213  107  108 2    
   214  107  109 am   BACKBONE|DICT|INTERRES
   215  109  110 1    
   216  109  230 1    
   217  110  111 1    
   218  110  112 1    
   219  110  231 1    
   220  111  232 1    
   221  111  233 1    
   222  111  234 1    
   223  112  113 2    
   224  112  114 am   BACKBONE|DICT|INTERRES
   225  114  115 1    
   226  114  235 1    
   227  115  116 1    
   228  115  117 1    
   229  115  236 1    
   230  116  237 1    
   231  116  238 1    
   232  116  239 1    
   233  117  118 2    
   234  117  119 am   BACKBONE|DICT|INTERRES
   235  119  120 1    
   236  119  240 1    
   237  120  121 1    
   238  120  124 1    
   239  120  241 1    
   240  121  122 am   BACKBONE|DICT|INTERRES
   241  121  123 2    
   242  122  242 1    
   243  122  243 1    
   244  124  125 1    
   245  124  244 1    
   246  124  245 1    
   247  125  126 1    
   248  126  246 1    
   249  126  247 1    
@<TRIPOS>SUBSTRUCTURE
     1 UNK         1 GROUP             0       ****    0 ROOT    
