@<TRIPOS>MOLECULE
3R540
247   249    1
SMALL
USER_CHARGES


@<TRIPOS>ATOM
      1 CA         -4.7223  -14.8940  -49.4059 C.3       0 UNK        -0.1800 
      2 C          -3.2019  -14.8534  -49.3432 C.2       0 UNK         0.5000 
      3 O          -2.6192  -13.7742  -49.2389 O.2       0 UNK        -0.5000 
      4 N          -2.5596  -16.0259  -49.4033 N.am      1 UNK        -0.5000 
      5 CA         -1.1087  -16.2283  -49.3435 C.3       1 UNK         0.1400 
      6 C6         -0.7241  -17.6440  -49.8346 C.3       23 UNK        -0.0398 
      7 S7         -1.0558  -17.8583  -51.6173 S.3       23 UNK        -0.2404 
      8 C8          0.6351  -17.9602  -52.2936 C.3       23 UNK        -0.0205 
      9 C9          1.2468  -19.3248  -52.0216 C.ar      23 UNK        -0.0193 
     10 C10         0.9676  -20.3922  -52.8743 C.ar      23 UNK        -0.1150 
     11 C11         1.4496  -21.6752  -52.5962 C.ar      23 UNK        -0.0193 
     12 C12         2.2281  -21.8760  -51.4517 C.ar      23 UNK        -0.1150 
     13 C13         2.5403  -20.8119  -50.5981 C.ar      23 UNK        -0.0193 
     14 C14         2.0659  -19.5319  -50.9098 C.ar      23 UNK        -0.1150 
     15 C15         3.4049  -21.0836  -49.3654 C.3       23 UNK        -0.0205 
     16 S16         3.2233  -19.8976  -47.9844 S.3       23 UNK        -0.2404 
     17 C17         1.4590  -20.0668  -47.5455 C.3       23 UNK        -0.0398 
     18 CA          1.1011  -21.3882  -46.8173 C.3       11 UNK         0.1400 
     19 N           1.9024  -21.5915  -45.6081 N.am      11 UNK        -0.5000 
     20 C           2.8175  -22.5471  -45.4116 C.2       10 UNK         0.5000 
     21 O           3.0844  -23.4249  -46.2341 O.2       10 UNK        -0.5000 
     22 CA          3.5411  -22.4972  -44.0492 C.3       10 UNK         0.1400 
     23 CB          4.7653  -23.4324  -43.9616 C.3       10 UNK        -0.1800 
     24 N           3.8777  -21.1224  -43.6637 N.am      10 UNK        -0.5000 
     25 C           4.7485  -20.2905  -44.2562 C.2       9 UNK         0.5000 
     26 O           5.5080  -20.6170  -45.1684 O.2       9 UNK        -0.5000 
     27 CA          4.7688  -18.8321  -43.7515 C.3       9 UNK         0.1400 
     28 CB          4.0092  -17.9227  -44.7304 C.3       9 UNK        -0.1800 
     29 N           4.1937  -18.6658  -42.4147 N.am      9 UNK        -0.5000 
     30 C           4.7595  -19.0883  -41.2753 C.2       8 UNK         0.5000 
     31 O           5.8617  -19.6342  -41.2177 O.2       8 UNK        -0.5000 
     32 CA          3.9389  -18.8926  -39.9886 C.3       8 UNK         0.1400 
     33 CB          4.1519  -17.4846  -39.4106 C.3       8 UNK        -0.1800 
     34 N           2.5111  -19.1152  -40.2222 N.am      8 UNK        -0.5000 
     35 C           1.9370  -20.3242  -40.3008 C.2       7 UNK         0.5000 
     36 O           2.5454  -21.3813  -40.1355 O.2       7 UNK        -0.5000 
     37 CA          0.4359  -20.3638  -40.6477 C.3       7 UNK         0.1400 
     38 CB         -0.4179  -20.2814  -39.3740 C.3       7 UNK        -0.1800 
     39 N           0.0334  -19.2972  -41.5652 N.am      7 UNK        -0.5000 
     40 C           0.4143  -19.2176  -42.8470 C.2       6 UNK         0.5000 
     41 O           1.1015  -20.0702  -43.4072 O.2       6 UNK        -0.5000 
     42 CA         -0.0032  -17.9573  -43.6242 C.3       6 UNK         0.1400 
     43 CB         -1.3280  -18.1998  -44.3512 C.3       6 UNK        -0.1800 
     44 N          -0.1075  -16.7549  -42.7910 N.am      6 UNK        -0.5000 
     45 C           0.9142  -16.2140  -42.1076 C.2       5 UNK         0.5000 
     46 O           2.0385  -16.7159  -42.0834 O.2       5 UNK        -0.5000 
     47 CA          0.6579  -14.9252  -41.3028 C.3       5 UNK         0.1400 
     48 CB          1.6335  -13.8110  -41.7145 C.3       5 UNK        -0.1800 
     49 N          -0.7125  -14.4338  -41.4451 N.am      5 UNK        -0.5000 
     50 C          -1.7201  -14.7240  -40.6108 C.2       4 UNK         0.5000 
     51 O          -1.5921  -15.4264  -39.6075 O.2       4 UNK        -0.5000 
     52 CA         -3.1107  -14.1528  -40.9582 C.3       4 UNK         0.1400 
     53 CB         -3.3692  -12.8570  -40.1747 C.3       4 UNK        -0.1800 
     54 N          -3.3053  -13.8908  -42.3866 N.am      4 UNK        -0.5000 
     55 C          -3.3198  -14.8291  -43.3427 C.2       3 UNK         0.5000 
     56 O          -3.1843  -16.0289  -43.1087 O.2       3 UNK        -0.5000 
     57 CA         -3.4807  -14.3588  -44.8040 C.3       3 UNK         0.1400 
     58 CB         -4.0523  -12.9307  -44.9383 C.3       3 UNK        -0.1800 
     59 N          -2.2392  -14.4681  -45.5783 N.am      3 UNK        -0.5000 
     60 C          -1.0279  -13.9800  -45.2680 C.2       2 UNK         0.5000 
     61 O          -0.7718  -13.4171  -44.2027 O.2       2 UNK        -0.5000 
     62 CA          0.0751  -14.0754  -46.3434 C.3       2 UNK         0.1400 
     63 CB          1.3628  -14.7384  -45.8120 C.3       2 UNK        -0.1800 
     64 N          -0.3714  -14.6622  -47.6152 N.am      2 UNK        -0.5000 
     65 C          -0.5700  -15.9508  -47.9233 C.2       1 UNK         0.5000 
     66 O          -0.3828  -16.8842  -47.1454 O.2       1 UNK        -0.5000 
     67 C          -0.4049  -21.4301  -46.4805 C.2       11 UNK         0.5000 
     68 O          -1.2168  -20.9710  -47.2839 O.2       11 UNK        -0.5000 
     69 N          -0.7646  -21.9562  -45.2988 N.am      12 UNK        -0.5000 
     70 CA         -2.1197  -21.9586  -44.7392 C.3       12 UNK         0.1400 
     71 CB         -2.0997  -22.6368  -43.3622 C.3       12 UNK        -0.1800 
     72 C          -3.1838  -22.5954  -45.6496 C.2       12 UNK         0.5000 
     73 O          -4.2823  -22.0537  -45.7596 O.2       12 UNK        -0.5000 
     74 N          -2.8278  -23.6994  -46.3205 N.am      13 UNK        -0.5000 
     75 CA         -3.6896  -24.3844  -47.2858 C.3       13 UNK         0.1400 
     76 CB         -3.0652  -25.7367  -47.6604 C.3       13 UNK        -0.1800 
     77 C          -3.9568  -23.5390  -48.5447 C.2       13 UNK         0.5000 
     78 O          -5.0964  -23.4783  -49.0063 O.2       13 UNK        -0.5000 
     79 N          -2.9101  -22.8726  -49.0517 N.am      14 UNK        -0.5000 
     80 CA         -2.9807  -21.9734  -50.2033 C.3       14 UNK         0.1400 
     81 CB         -1.5635  -21.6307  -50.6823 C.3       14 UNK        -0.1800 
     82 C          -3.7742  -20.6955  -49.8907 C.2       14 UNK         0.5000 
     83 O          -4.5383  -20.2363  -50.7388 O.2       14 UNK        -0.5000 
     84 N          -3.6077  -20.1672  -48.6707 N.am      15 UNK        -0.5000 
     85 CA         -4.3558  -19.0261  -48.1505 C.3       15 UNK         0.1400 
     86 CB         -3.6977  -18.5220  -46.8603 C.3       15 UNK        -0.1800 
     87 C          -5.8438  -19.3422  -47.9274 C.2       15 UNK         0.5000 
     88 O          -6.6879  -18.5282  -48.2999 O.2       15 UNK        -0.5000 
     89 N          -6.1414  -20.5227  -47.3644 N.am      16 UNK        -0.5000 
     90 CA         -7.5024  -21.0193  -47.1440 C.3       16 UNK         0.1400 
     91 CB         -7.4589  -22.2880  -46.2790 C.3       16 UNK        -0.1800 
     92 C          -8.2597  -21.2854  -48.4571 C.2       16 UNK         0.5000 
     93 O          -9.4428  -20.9575  -48.5539 O.2       16 UNK        -0.5000 
     94 N          -7.5577  -21.8461  -49.4513 N.am      17 UNK        -0.5000 
     95 CA         -8.0694  -22.0581  -50.8062 C.3       17 UNK         0.1400 
     96 CB         -7.1508  -23.0542  -51.5313 C.3       17 UNK        -0.1800 
     97 C          -8.1819  -20.7565  -51.6249 C.2       17 UNK         0.5000 
     98 O          -8.9312  -20.7278  -52.6018 O.2       17 UNK        -0.5000 
     99 N          -7.4134  -19.7283  -51.2316 N.am      18 UNK        -0.5000 
    100 CA        -7.1627  -18.4694  -51.9412 C.3       18 UNK         0.1400 
    101 CB        -8.4325  -17.5955  -51.9863 C.3       18 UNK        -0.1800 
    102 C         -6.5390  -18.7291  -53.3288 C.2       18 UNK         0.5000 
    103 O         -6.9930  -18.1783  -54.3334 O.2       18 UNK        -0.5000 
    104 N         -5.5406  -19.6236  -53.3484 N.am      19 UNK        -0.5000 
    105 CA        -4.9275  -20.1822  -54.5506 C.3       19 UNK         0.1400 
    106 CB        -4.0251  -21.3646  -54.1594 C.3       19 UNK        -0.1800 
    107 C         -4.1502  -19.1394  -55.3679 C.2       19 UNK         0.5000 
    108 O         -4.4110  -18.9915  -56.5623 O.2       19 UNK        -0.5000 
    109 N         -3.2094  -18.4490  -54.7025 N.am      20 UNK        -0.5000 
    110 CA        -2.3224  -17.4113  -55.2501 C.3       20 UNK         0.1400 
    111 CB        -3.1273  -16.1297  -55.5485 C.3       20 UNK        -0.1800 
    112 C         -1.4726  -17.8783  -56.4571 C.2       20 UNK         0.5000 
    113 O         -1.1207  -17.0667  -57.3155 O.2       20 UNK        -0.5000 
    114 N         -1.1674  -19.1799  -56.5064 N.am      21 UNK        -0.5000 
    115 CA        -0.4689  -19.8500  -57.5965 C.3       21 UNK         0.1400 
    116 CB        -1.4529  -20.1503  -58.7486 C.3       21 UNK        -0.1800 
    117 C          0.2287  -21.0872  -57.0136 C.2       21 UNK         0.5000 
    118 O          1.2177  -20.9155  -56.3013 O.2       21 UNK        -0.5000 
    119 N         -0.3115  -22.2834  -57.2973 N.am      22 UNK        -0.5000 
    120 CA         0.1494  -23.6142  -56.8510 C.3       22 UNK         0.1400 
    121 C          1.6753  -23.8991  -57.0446 C.2       22 UNK         0.5000 
    122 N          2.2839  -24.7946  -56.2768 N.am      22 UNK        -0.7600 
    123 O          2.3089  -23.3663  -57.9534 O.2       22 UNK        -0.5000 
    124 C124       -0.4822  -24.0825  -55.4958 C.3       23 UNK        -0.0398 
    125 S125       -0.5604  -22.8696  -54.1322 S.3       23 UNK        -0.2404 
    126 C126        1.1652  -22.8367  -53.5428 C.3       23 UNK        -0.0205 
    127 H127       -5.0995  -15.9102  -49.5373 H         1 UNK         0.0600 
    128 H128       -5.1456  -14.4900  -48.4842 H         1 UNK         0.0600 
    129 H129       -5.0785  -14.2885  -50.2410 H         1 UNK         0.0600 
    130 H130       -3.0966  -16.8704  -49.5224 H         1 UNK         0.3000 
    131 H131       -0.6354  -15.5069  -50.0136 H         1 UNK         0.0600 
    132 H132        0.3304  -17.8293  -49.6389 H         1 UNK         0.0800 
    133 H133       -1.2679  -18.4125  -49.2821 H         1 UNK         0.0800 
    134 H134        1.2540  -17.1648  -51.8755 H         1 UNK         0.0800 
    135 H135        0.5996  -17.7847  -53.3696 H         1 UNK         0.0800 
    136 H136        0.3579  -20.2245  -53.7503 H         1 UNK         0.1150 
    137 H137        2.6049  -22.8647  -51.2301 H         1 UNK         0.1150 
    138 H138        2.3123  -18.6946  -50.2745 H         1 UNK         0.1150 
    139 H139        3.2020  -22.0851  -48.9831 H         1 UNK         0.0800 
    140 H140        4.4497  -21.0834  -49.6774 H         1 UNK         0.0800 
    141 H141        0.8661  -19.9605  -48.4541 H         1 UNK         0.0800 
    142 H142        1.1976  -19.2114  -46.9195 H         1 UNK         0.0800 
    143 H143        1.2656  -22.2121  -47.5136 H         1 UNK         0.0600 
    144 H144        1.7274  -20.9337  -44.8495 H         1 UNK         0.3000 
    145 H145        2.8164  -22.8434  -43.3108 H         1 UNK         0.0600 
    146 H146        5.2528  -23.3530  -42.9899 H         1 UNK         0.0600 
    147 H147        4.4676  -24.4734  -44.0915 H         1 UNK         0.0600 
    148 H148        5.5065  -23.2100  -44.7293 H         1 UNK         0.0600 
    149 H149        3.2772  -20.7179  -42.9578 H         1 UNK         0.3000 
    150 H150        5.8103  -18.5060  -43.7169 H         1 UNK         0.0600 
    151 H151        4.4788  -17.9326  -45.7147 H         1 UNK         0.0600 
    152 H152        3.9938  -16.8882  -44.3865 H         1 UNK         0.0600 
    153 H153        2.9781  -18.2500  -44.8609 H         1 UNK         0.0600 
    154 H154        3.3185  -18.1533  -42.3565 H         1 UNK         0.3000 
    155 H155        4.2932  -19.6156  -39.2505 H         1 UNK         0.0600 
    156 H156        3.8328  -16.7060  -40.1039 H         1 UNK         0.0600 
    157 H157        5.2057  -17.3118  -39.1888 H         1 UNK         0.0600 
    158 H158        3.5987  -17.3527  -38.4807 H         1 UNK         0.0600 
    159 H159        1.9572  -18.2973  -40.4343 H         1 UNK         0.3000 
    160 H160        0.2369  -21.3227  -41.1300 H         1 UNK         0.0600 
    161 H161       -1.4782  -20.3906  -39.6031 H         1 UNK         0.0600 
    162 H162       -0.2816  -19.3303  -38.8577 H         1 UNK         0.0600 
    163 H163       -0.1541  -21.0761  -38.6748 H         1 UNK         0.0600 
    164 H164       -0.5340  -18.5539  -41.1848 H         1 UNK         0.3000 
    165 H165        0.7600  -17.7690  -44.3793 H         1 UNK         0.0600 
    166 H166       -1.6611  -17.3036  -44.8724 H         1 UNK         0.0600 
    167 H167       -1.2134  -18.9765  -45.1052 H         1 UNK         0.0600 
    168 H168       -2.1210  -18.5057  -43.6679 H         1 UNK         0.0600 
    169 H169       -1.0163  -16.3097  -42.7539 H         1 UNK         0.3000 
    170 H170        0.8578  -15.1645  -40.2564 H         1 UNK         0.0600 
    171 H171        2.6700  -14.1300  -41.5972 H         1 UNK         0.0600 
    172 H172        1.4962  -13.5161  -42.7539 H         1 UNK         0.0600 
    173 H173        1.4974  -12.9235  -41.0964 H         1 UNK         0.0600 
    174 H174       -0.9029  -13.8891  -42.2822 H         1 UNK         0.3000 
    175 H175       -3.8528  -14.8923  -40.6500 H         1 UNK         0.0600 
    176 H176       -4.3804  -12.4871  -40.3453 H         1 UNK         0.0600 
    177 H177       -3.2614  -13.0206  -39.1016 H         1 UNK         0.0600 
    178 H178       -2.6699  -12.0695  -40.4586 H         1 UNK         0.0600 
    179 H179       -3.3897  -12.9233  -42.6621 H         1 UNK         0.3000 
    180 H180       -4.1944  -15.0436  -45.2645 H         1 UNK         0.0600 
    181 H181       -3.3616  -12.1725  -44.5674 H         1 UNK         0.0600 
    182 H182       -4.9907  -12.8270  -44.3918 H         1 UNK         0.0600 
    183 H183       -4.2635  -12.6965  -45.9819 H         1 UNK         0.0600 
    184 H184       -2.3204  -14.9353  -46.4686 H         1 UNK         0.3000 
    185 H185        0.3295  -13.0425  -46.5851 H         1 UNK         0.0600 
    186 H186        1.1772  -15.7371  -45.4207 H         1 UNK         0.0600 
    187 H187        2.1193  -14.8186  -46.5925 H         1 UNK         0.0600 
    188 H188        1.7968  -14.1522  -45.0027 H         1 UNK         0.0600 
    189 H189       -0.6677  -13.9848  -48.3095 H         1 UNK         0.3000 
    190 H190       -0.0316  -22.3048  -44.6992 H         1 UNK         0.3000 
    191 H191       -2.4138  -20.9190  -44.5918 H         1 UNK         0.0600 
    192 H192       -1.7558  -23.6698  -43.4259 H         1 UNK         0.0600 
    193 H193       -3.0955  -22.6478  -42.9167 H         1 UNK         0.0600 
    194 H194       -1.4444  -22.1052  -42.6731 H         1 UNK         0.0600 
    195 H195       -1.9021  -24.0754  -46.1784 H         1 UNK         0.3000 
    196 H196       -4.6515  -24.5760  -46.8052 H         1 UNK         0.0600 
    197 H197       -3.6967  -26.2743  -48.3691 H         1 UNK         0.0600 
    198 H198       -2.9486  -26.3733  -46.7832 H         1 UNK         0.0600 
    199 H199       -2.0839  -25.6160  -48.1210 H         1 UNK         0.0600 
    200 H200       -2.0257  -22.9178  -48.5680 H         1 UNK         0.3000 
    201 H201       -3.4952  -22.4961  -51.0124 H         1 UNK         0.0600 
    202 H202       -1.0055  -22.5299  -50.9428 H         1 UNK         0.0600 
    203 H203       -0.9921  -21.0885  -49.9290 H         1 UNK         0.0600 
    204 H204       -1.5979  -21.0036  -51.5735 H         1 UNK         0.0600 
    205 H205       -2.9076  -20.5786  -48.0585 H         1 UNK         0.3000 
    206 H206       -4.3003  -18.2297  -48.8935 H         1 UNK         0.0600 
    207 H207       -2.6543  -18.2631  -47.0331 H         1 UNK         0.0600 
    208 H208       -4.1985  -17.6292  -46.4840 H         1 UNK         0.0600 
    209 H209       -3.7270  -19.2745  -46.0721 H         1 UNK         0.0600 
    210 H210       -5.3865  -21.1139  -47.0272 H         1 UNK         0.3000 
    211 H211       -8.0527  -20.2531  -46.5940 H         1 UNK         0.0600 
    212 H212       -6.8739  -23.0776  -46.7520 H         1 UNK         0.0600 
    213 H213       -8.4622  -22.6793  -46.1061 H         1 UNK         0.0600 
    214 H214       -7.0182  -22.0836  -45.3032 H         1 UNK         0.0600 
    215 H215       -6.6079  -22.1565  -49.2705 H         1 UNK         0.3000 
    216 H216       -9.0670  -22.4968  -50.7381 H         1 UNK         0.0600 
    217 H217       -7.5082  -23.2554  -52.5420 H         1 UNK         0.0600 
    218 H218       -7.1098  -24.0080  -51.0050 H         1 UNK         0.0600 
    219 H219       -6.1321  -22.6729  -51.6125 H         1 UNK         0.0600 
    220 H220       -6.8190  -19.8851  -50.4288 H         1 UNK         0.3000 
    221 H221       -6.4116  -17.9327  -51.3596 H         1 UNK         0.0600 
    222 H222       -9.2186  -18.0485  -52.5908 H         1 UNK         0.0600 
    223 H223       -8.8310  -17.4322  -50.9849 H         1 UNK         0.0600 
    224 H224       -8.2152  -16.6159  -52.4134 H         1 UNK         0.0600 
    225 H225       -5.2135  -19.9846  -52.4551 H         1 UNK         0.3000 
    226 H226       -5.7301  -20.5677  -55.1829 H         1 UNK         0.0600 
    227 H227       -3.2330  -21.0624  -53.4738 H         1 UNK         0.0600 
    228 H228       -3.5494  -21.8026  -55.0380 H         1 UNK         0.0600 
    229 H229       -4.5994  -22.1543  -53.6749 H         1 UNK         0.0600 
    230 H230       -3.0867  -18.6496  -53.7197 H         1 UNK         0.3000 
    231 H231       -1.6091  -17.1693  -54.4628 H         1 UNK         0.0600 
    232 H232       -3.6958  -15.8103  -54.6750 H         1 UNK         0.0600 
    233 H233       -3.8293  -16.2766  -56.3699 H         1 UNK         0.0600 
    234 H234       -2.4682  -15.3054  -55.8232 H         1 UNK         0.0600 
    235 H235       -1.4545  -19.7737  -55.7414 H         1 UNK         0.3000 
    236 H236        0.3195  -19.1970  -57.9767 H         1 UNK         0.0600 
    237 H237       -1.8283  -19.2266  -59.1893 H         1 UNK         0.0600 
    238 H238       -0.9666  -20.7097  -59.5489 H         1 UNK         0.0600 
    239 H239       -2.3174  -20.7225  -58.4095 H         1 UNK         0.0600 
    240 H240       -1.1147  -22.2940  -57.9082 H         1 UNK         0.3000 
    241 H241       -0.2820  -24.2804  -57.5992 H         1 UNK         0.0600 
    242 H242        3.2603  -24.9865  -56.4397 H         1 UNK         0.3800 
    243 H243        1.7999  -25.2943  -55.5491 H         1 UNK         0.3800 
    244 H244       -1.5207  -24.3501  -55.6945 H         1 UNK         0.0800 
    245 H245       -0.0381  -25.0066  -55.1268 H         1 UNK         0.0800 
    246 H246        1.3913  -23.7911  -53.0654 H         1 UNK         0.0800 
    247 H247        1.8409  -22.7387  -54.3912 H         1 UNK         0.0800 
@<TRIPOS>BOND
     1    1    2 1    
     2    1  127 1    
     3    1  128 1    
     4    1  129 1    
     5    2    3 2    
     6    2    4 am   BACKBONE|DICT|INTERRES
     7    4    5 1    
     8    4  130 1    
     9    5    6 1    
    10    5   65 1    
    11    5  131 1    
    12    6    7 1    
    13    6  132 1    
    14    6  133 1    
    15    7    8 1    
    16    8    9 1    
    17    8  134 1    
    18    8  135 1    
    19    9   10 ar   
    20    9   14 ar   
    21   10   11 ar   
    22   10  136 1    
    23   11   12 ar   
    24   11  126 1    
    25   12   13 ar   
    26   12  137 1    
    27   13   14 ar   
    28   13   15 1    
    29   14  138 1    
    30   15   16 1    
    31   15  139 1    
    32   15  140 1    
    33   16   17 1    
    34   17   18 1    
    35   17  141 1    
    36   17  142 1    
    37   18   19 1    
    38   18   67 1    
    39   18  143 1    
    40   19   20 am   BACKBONE|DICT|INTERRES
    41   19  144 1    
    42   20   21 2    
    43   20   22 1    
    44   22   23 1    
    45   22   24 1    
    46   22  145 1    
    47   23  146 1    
    48   23  147 1    
    49   23  148 1    
    50   24   25 am   BACKBONE|DICT|INTERRES
    51   24  149 1    
    52   25   26 2    
    53   25   27 1    
    54   27   28 1    
    55   27   29 1    
    56   27  150 1    
    57   28  151 1    
    58   28  152 1    
    59   28  153 1    
    60   29   30 am   BACKBONE|DICT|INTERRES
    61   29  154 1    
    62   30   31 2    
    63   30   32 1    
    64   32   33 1    
    65   32   34 1    
    66   32  155 1    
    67   33  156 1    
    68   33  157 1    
    69   33  158 1    
    70   34   35 am   BACKBONE|DICT|INTERRES
    71   34  159 1    
    72   35   36 2    
    73   35   37 1    
    74   37   38 1    
    75   37   39 1    
    76   37  160 1    
    77   38  161 1    
    78   38  162 1    
    79   38  163 1    
    80   39   40 am   BACKBONE|DICT|INTERRES
    81   39  164 1    
    82   40   41 2    
    83   40   42 1    
    84   42   43 1    
    85   42   44 1    
    86   42  165 1    
    87   43  166 1    
    88   43  167 1    
    89   43  168 1    
    90   44   45 am   BACKBONE|DICT|INTERRES
    91   44  169 1    
    92   45   46 2    
    93   45   47 1    
    94   47   48 1    
    95   47   49 1    
    96   47  170 1    
    97   48  171 1    
    98   48  172 1    
    99   48  173 1    
   100   49   50 am   BACKBONE|DICT|INTERRES
   101   49  174 1    
   102   50   51 2    
   103   50   52 1    
   104   52   53 1    
   105   52   54 1    
   106   52  175 1    
   107   53  176 1    
   108   53  177 1    
   109   53  178 1    
   110   54   55 am   BACKBONE|DICT|INTERRES
   111   54  179 1    
   112   55   56 2    
   113   55   57 1    
   114   57   58 1    
   115   57   59 1    
   116   57  180 1    
   117   58  181 1    
   118   58  182 1    
   119   58  183 1    
   120   59   60 am   BACKBONE|DICT|INTERRES
   121   59  184 1    
   122   60   61 2    
   123   60   62 1    
   124   62   63 1    
   125   62   64 1    
   126   62  185 1    
   127   63  186 1    
   128   63  187 1    
   129   63  188 1    
   130   64   65 am   BACKBONE|DICT|INTERRES
   131   64  189 1    
   132   65   66 2    
   133   67   68 2    
   134   67   69 am   BACKBONE|DICT|INTERRES
   135   69   70 1    
   136   69  190 1    
   137   70   71 1    
   138   70   72 1    
   139   70  191 1    
   140   71  192 1    
   141   71  193 1    
   142   71  194 1    
   143   72   73 2    
   144   72   74 am   BACKBONE|DICT|INTERRES
   145   74   75 1    
   146   74  195 1    
   147   75   76 1    
   148   75   77 1    
   149   75  196 1    
   150   76  197 1    
   151   76  198 1    
   152   76  199 1    
   153   77   78 2    
   154   77   79 am   BACKBONE|DICT|INTERRES
   155   79   80 1    
   156   79  200 1    
   157   80   81 1    
   158   80   82 1    
   159   80  201 1    
   160   81  202 1    
   161   81  203 1    
   162   81  204 1    
   163   82   83 2    
   164   82   84 am   BACKBONE|DICT|INTERRES
   165   84   85 1    
   166   84  205 1    
   167   85   86 1    
   168   85   87 1    
   169   85  206 1    
   170   86  207 1    
   171   86  208 1    
   172   86  209 1    
   173   87   88 2    
   174   87   89 am   BACKBONE|DICT|INTERRES
   175   89   90 1    
   176   89  210 1    
   177   90   91 1    
   178   90   92 1    
   179   90  211 1    
   180   91  212 1    
   181   91  213 1    
   182   91  214 1    
   183   92   93 2    
   184   92   94 am   BACKBONE|DICT|INTERRES
   185   94   95 1    
   186   94  215 1    
   187   95   96 1    
   188   95   97 1    
   189   95  216 1    
   190   96  217 1    
   191   96  218 1    
   192   96  219 1    
   193   97   98 2    
   194   97   99 am   BACKBONE|DICT|INTERRES
   195   99  100 1    
   196   99  220 1    
   197  100  101 1    
   198  100  102 1    
   199  100  221 1    
   200  101  222 1    
   201  101  223 1    
   202  101  224 1    
   203  102  103 2    
   204  102  104 am   BACKBONE|DICT|INTERRES
   205  104  105 1    
   206  104  225 1    
   207  105  106 1    
   208  105  107 1    
   209  105  226 1    
   210  106  227 1    
   211  106  228 1    
   212  106  229 1    
   213  107  108 2    
   214  107  109 am   BACKBONE|DICT|INTERRES
   215  109  110 1    
   216  109  230 1    
   217  110  111 1    
   218  110  112 1    
   219  110  231 1    
   220  111  232 1    
   221  111  233 1    
   222  111  234 1    
   223  112  113 2    
   224  112  114 am   BACKBONE|DICT|INTERRES
   225  114  115 1    
   226  114  235 1    
   227  115  116 1    
   228  115  117 1    
   229  115  236 1    
   230  116  237 1    
   231  116  238 1    
   232  116  239 1    
   233  117  118 2    
   234  117  119 am   BACKBONE|DICT|INTERRES
   235  119  120 1    
   236  119  240 1    
   237  120  121 1    
   238  120  124 1    
   239  120  241 1    
   240  121  122 am   BACKBONE|DICT|INTERRES
   241  121  123 2    
   242  122  242 1    
   243  122  243 1    
   244  124  125 1    
   245  124  244 1    
   246  124  245 1    
   247  125  126 1    
   248  126  246 1    
   249  126  247 1    
@<TRIPOS>SUBSTRUCTURE
     1 UNK         1 GROUP             0       ****    0 ROOT    
