@<TRIPOS>MOLECULE
3R540
247   249    1
SMALL
USER_CHARGES


@<TRIPOS>ATOM
      1 CA         -1.9162  -11.2485  -45.2619 C.3       0 UNK        -0.1800 
      2 C          -0.4915  -11.3295  -45.7891 C.2       0 UNK         0.5000 
      3 O           0.2517  -10.3493  -45.7353 O.2       0 UNK        -0.5000 
      4 N          -0.1242  -12.4968  -46.3275 N.am      1 UNK        -0.5000 
      5 CA          1.1803  -12.7678  -46.9306 C.3       1 UNK         0.1400 
      6 C6          1.1131  -13.9886  -47.8805 C.3       23 UNK        -0.0398 
      7 S7          2.4035  -13.9636  -49.1679 S.3       23 UNK        -0.2404 
      8 C8          1.4179  -14.2376  -50.6774 C.3       23 UNK        -0.0205 
      9 C9          0.7261  -15.5951  -50.6736 C.ar      23 UNK        -0.0193 
     10 C10        -0.6636  -15.6850  -50.5474 C.ar      23 UNK        -0.1150 
     11 C11        -1.2999  -16.9297  -50.5413 C.ar      23 UNK        -0.0193 
     12 C12        -0.5268  -18.0897  -50.6571 C.ar      23 UNK        -0.1150 
     13 C13         0.8658  -18.0192  -50.7886 C.ar      23 UNK        -0.0193 
     14 C14         1.4800  -16.7642  -50.8007 C.ar      23 UNK        -0.1150 
     15 C15         1.7419  -19.2622  -50.9490 C.3       23 UNK        -0.0205 
     16 S16         1.0192  -20.8219  -50.3368 S.3       23 UNK        -0.2404 
     17 C17         0.8390  -20.4588  -48.5612 C.3       23 UNK        -0.0398 
     18 CA          0.5187  -21.7171  -47.7208 C.3       11 UNK         0.1400 
     19 N           0.9278  -21.5274  -46.3271 N.am      11 UNK        -0.5000 
     20 C           1.0510  -22.4999  -45.4145 C.2       10 UNK         0.5000 
     21 O           0.7786  -23.6810  -45.6312 O.2       10 UNK        -0.5000 
     22 CA          1.5506  -22.0700  -44.0244 C.3       10 UNK         0.1400 
     23 CB          3.0668  -21.8193  -44.0387 C.3       10 UNK        -0.1800 
     24 N           0.8654  -20.8661  -43.5575 N.am      10 UNK        -0.5000 
     25 C          -0.3678  -20.8580  -43.0343 C.2       9 UNK         0.5000 
     26 O          -1.0309  -21.8751  -42.8293 O.2       9 UNK        -0.5000 
     27 CA         -0.9730  -19.4811  -42.6981 C.3       9 UNK         0.1400 
     28 CB         -0.6107  -19.0715  -41.2628 C.3       9 UNK        -0.1800 
     29 N          -0.5682  -18.4178  -43.6210 N.am      9 UNK        -0.5000 
     30 C          -0.8486  -18.4045  -44.9317 C.2       8 UNK         0.5000 
     31 O          -1.4637  -19.2982  -45.5077 O.2       8 UNK        -0.5000 
     32 CA         -0.3067  -17.2243  -45.7536 C.3       8 UNK         0.1400 
     33 CB         -1.2005  -15.9875  -45.5820 C.3       8 UNK        -0.1800 
     34 N           1.0840  -16.8921  -45.4390 N.am      8 UNK        -0.5000 
     35 C           2.1178  -17.7370  -45.5738 C.2       7 UNK         0.5000 
     36 O           2.0061  -18.9065  -45.9385 O.2       7 UNK        -0.5000 
     37 CA          3.5040  -17.1976  -45.2011 C.3       7 UNK         0.1400 
     38 CB          4.1325  -16.4391  -46.3795 C.3       7 UNK        -0.1800 
     39 N           3.4194  -16.3329  -44.0264 N.am      7 UNK        -0.5000 
     40 C           3.4207  -16.7961  -42.7699 C.2       6 UNK         0.5000 
     41 O           3.5801  -17.9818  -42.4764 O.2       6 UNK        -0.5000 
     42 CA          3.1793  -15.7699  -41.6513 C.3       6 UNK         0.1400 
     43 CB          4.4972  -15.0953  -41.2404 C.3       6 UNK        -0.1800 
     44 N           2.1959  -14.7441  -42.0019 N.am      6 UNK        -0.5000 
     45 C           0.8861  -14.9713  -42.1788 C.2       5 UNK         0.5000 
     46 O           0.3997  -16.1026  -42.1828 O.2       5 UNK        -0.5000 
     47 CA         -0.0336  -13.7425  -42.3400 C.3       5 UNK         0.1400 
     48 CB         -1.4802  -14.0482  -41.8865 C.3       5 UNK        -0.1800 
     49 N           0.5187  -12.6021  -41.6046 N.am      5 UNK        -0.5000 
     50 C           0.0829  -11.3353  -41.6422 C.2       4 UNK         0.5000 
     51 O          -0.9009  -10.9561  -42.2738 O.2       4 UNK        -0.5000 
     52 CA          0.9200  -10.3079  -40.8711 C.3       4 UNK         0.1400 
     53 CB          0.7458  -10.4614  -39.3488 C.3       4 UNK        -0.1800 
     54 N           2.3167  -10.4612  -41.2563 N.am      4 UNK        -0.5000 
     55 C           3.2933   -9.5651  -41.1191 C.2       3 UNK         0.5000 
     56 O           3.1432   -8.4623  -40.5915 O.2       3 UNK        -0.5000 
     57 CA          4.6761   -9.9646  -41.6745 C.3       3 UNK         0.1400 
     58 CB          5.3947  -10.9295  -40.7113 C.3       3 UNK        -0.1800 
     59 N           4.6778  -10.4951  -43.0491 N.am      3 UNK        -0.5000 
     60 C           4.1256  -11.6205  -43.5261 C.2       2 UNK         0.5000 
     61 O           3.4393  -12.3867  -42.8480 O.2       2 UNK        -0.5000 
     62 CA          4.4386  -11.9562  -44.9959 C.3       2 UNK         0.1400 
     63 CB          5.3046  -13.2242  -45.0985 C.3       2 UNK        -0.1800 
     64 N           3.2491  -12.0463  -45.8495 N.am      2 UNK        -0.5000 
     65 C           2.2549  -12.9464  -45.8385 C.2       1 UNK         0.5000 
     66 O           2.1616  -13.8983  -45.0582 O.2       1 UNK        -0.5000 
     67 C          -0.9569  -22.1579  -47.8692 C.2       11 UNK         0.5000 
     68 O          -1.2915  -22.8194  -48.8502 O.2       11 UNK        -0.5000 
     69 N          -1.8038  -21.8279  -46.8826 N.am      12 UNK        -0.5000 
     70 CA         -3.2262  -22.1764  -46.8062 C.3       12 UNK         0.1400 
     71 CB         -3.8758  -21.3876  -45.6571 C.3       12 UNK        -0.1800 
     72 C          -3.5426  -23.6820  -46.6702 C.2       12 UNK         0.5000 
     73 O          -4.7217  -24.0394  -46.7086 O.2       12 UNK        -0.5000 
     74 N          -2.5221  -24.5400  -46.5286 N.am      13 UNK        -0.5000 
     75 CA         -2.6296  -26.0006  -46.4820 C.3       13 UNK         0.1400 
     76 CB         -1.2171  -26.6005  -46.4315 C.3       13 UNK        -0.1800 
     77 C          -3.4223  -26.5890  -47.6690 C.2       13 UNK         0.5000 
     78 O          -3.2295  -26.1616  -48.8105 O.2       13 UNK        -0.5000 
     79 N          -4.3176  -27.5402  -47.3645 N.am      14 UNK        -0.5000 
     80 CA         -5.2550  -28.1927  -48.2894 C.3       14 UNK         0.1400 
     81 CB         -4.4965  -29.1049  -49.2768 C.3       14 UNK        -0.1800 
     82 C          -6.1966  -27.1906  -48.9947 C.2       14 UNK         0.5000 
     83 O          -6.4520  -27.3213  -50.1928 O.2       14 UNK        -0.5000 
     84 N          -6.6614  -26.1823  -48.2389 N.am      15 UNK        -0.5000 
     85 CA         -7.4693  -25.0410  -48.6893 C.3       15 UNK         0.1400 
     86 CB         -8.8804  -25.4999  -49.1138 C.3       15 UNK        -0.1800 
     87 C          -6.7457  -24.2257  -49.7805 C.2       15 UNK         0.5000 
     88 O          -7.3211  -23.9389  -50.8302 O.2       15 UNK        -0.5000 
     89 N          -5.4667  -23.9244  -49.5200 N.am      16 UNK        -0.5000 
     90 CA         -4.4907  -23.3118  -50.4259 C.3       16 UNK         0.1400 
     91 CB         -4.8398  -21.8329  -50.6913 C.3       16 UNK        -0.1800 
     92 C          -4.3074  -24.1322  -51.7170 C.2       16 UNK         0.5000 
     93 O          -4.3830  -23.5799  -52.8163 O.2       16 UNK        -0.5000 
     94 N          -4.1116  -25.4487  -51.5541 N.am      17 UNK        -0.5000 
     95 CA         -4.0305  -26.4646  -52.6112 C.3       17 UNK         0.1400 
     96 CB         -2.7029  -26.3256  -53.3845 C.3       17 UNK        -0.1800 
     97 C          -5.2677  -26.4565  -53.5376 C.2       17 UNK         0.5000 
     98 O          -5.1251  -26.4705  -54.7608 O.2       17 UNK        -0.5000 
     99 N          -6.4577  -26.3990  -52.9225 N.am      18 UNK        -0.5000 
    100 CA        -7.7717  -26.2089  -53.5446 C.3       18 UNK         0.1400 
    101 CB        -8.1648  -27.4380  -54.3907 C.3       18 UNK        -0.1800 
    102 C         -7.8657  -24.8740  -54.3175 C.2       18 UNK         0.5000 
    103 O         -8.2524  -24.8557  -55.4879 O.2       18 UNK        -0.5000 
    104 N         -7.5079  -23.7828  -53.6252 N.am      19 UNK        -0.5000 
    105 CA        -7.5109  -22.3859  -54.0696 C.3       19 UNK         0.1400 
    106 CB        -8.9593  -21.8838  -54.2434 C.3       19 UNK        -0.1800 
    107 C         -6.6265  -22.1314  -55.3089 C.2       19 UNK         0.5000 
    108 O         -7.0593  -21.4611  -56.2491 O.2       19 UNK        -0.5000 
    109 N         -5.4041  -22.6753  -55.2864 N.am      20 UNK        -0.5000 
    110 CA        -4.4291  -22.5823  -56.3741 C.3       20 UNK         0.1400 
    111 CB        -4.2431  -23.9717  -57.0022 C.3       20 UNK        -0.1800 
    112 C         -3.0735  -22.0274  -55.9081 C.2       20 UNK         0.5000 
    113 O         -2.4000  -21.3627  -56.6976 O.2       20 UNK        -0.5000 
    114 N         -2.6833  -22.2912  -54.6514 N.am      21 UNK        -0.5000 
    115 CA        -1.3640  -21.9516  -54.1044 C.3       21 UNK         0.1400 
    116 CB        -1.1858  -22.6280  -52.7378 C.3       21 UNK        -0.1800 
    117 C         -1.1004  -20.4374  -54.0004 C.2       21 UNK         0.5000 
    118 O          0.0532  -20.0168  -54.0907 O.2       21 UNK        -0.5000 
    119 N         -2.1738  -19.6517  -53.8523 N.am      22 UNK        -0.5000 
    120 CA        -2.1447  -18.1805  -53.8599 C.3       22 UNK         0.1400 
    121 C         -1.9909  -17.5523  -55.2784 C.2       22 UNK         0.5000 
    122 N         -2.0079  -18.3189  -56.3641 N.am      22 UNK        -0.7600 
    123 O         -1.8478  -16.3388  -55.3987 O.2       22 UNK        -0.5000 
    124 C124       -3.3588  -17.5662  -53.1116 C.3       23 UNK        -0.0398 
    125 S125       -3.6220  -18.2534  -51.4388 S.3       23 UNK        -0.2404 
    126 C126       -2.8157  -17.0068  -50.3750 C.3       23 UNK        -0.0205 
    127 H127       -2.6271  -11.2447  -46.0880 H         1 UNK         0.0600 
    128 H128       -2.0623  -10.3358  -44.6839 H         1 UNK         0.0600 
    129 H129       -2.1381  -12.0975  -44.6149 H         1 UNK         0.0600 
    130 H130       -0.7785  -13.2642  -46.3233 H         1 UNK         0.3000 
    131 H131        1.4351  -11.8943  -47.5356 H         1 UNK         0.0600 
    132 H132        1.1790  -14.9341  -47.3434 H         1 UNK         0.0800 
    133 H133        0.1424  -14.0016  -48.3763 H         1 UNK         0.0800 
    134 H134        0.6925  -13.4298  -50.7871 H         1 UNK         0.0800 
    135 H135        2.0765  -14.1753  -51.5448 H         1 UNK         0.0800 
    136 H136       -1.2512  -14.7829  -50.4492 H         1 UNK         0.1150 
    137 H137       -1.0220  -19.0493  -50.6574 H         1 UNK         0.1150 
    138 H138        2.5539  -16.6929  -50.9044 H         1 UNK         0.1150 
    139 H139        1.9650  -19.3844  -52.0096 H         1 UNK         0.0800 
    140 H140        2.6984  -19.1074  -50.4472 H         1 UNK         0.0800 
    141 H141        0.0919  -19.6792  -48.4040 H         1 UNK         0.0800 
    142 H142        1.7909  -20.0338  -48.2420 H         1 UNK         0.0800 
    143 H143        1.1284  -22.5384  -48.1041 H         1 UNK         0.0600 
    144 H144        1.2005  -20.5814  -46.0707 H         1 UNK         0.3000 
    145 H145        1.3513  -22.8862  -43.3266 H         1 UNK         0.0600 
    146 H146        3.6056  -22.7079  -44.3698 H         1 UNK         0.0600 
    147 H147        3.3382  -21.0022  -44.7080 H         1 UNK         0.0600 
    148 H148        3.4330  -21.5688  -43.0428 H         1 UNK         0.0600 
    149 H149        1.3287  -19.9828  -43.7180 H         1 UNK         0.3000 
    150 H150       -2.0588  -19.5776  -42.7613 H         1 UNK         0.0600 
    151 H151       -0.9001  -19.8433  -40.5485 H         1 UNK         0.0600 
    152 H152       -1.1236  -18.1537  -40.9746 H         1 UNK         0.0600 
    153 H153        0.4616  -18.9035  -41.1526 H         1 UNK         0.0600 
    154 H154       -0.0807  -17.6247  -43.2104 H         1 UNK         0.3000 
    155 H155       -0.3421  -17.5196  -46.8047 H         1 UNK         0.0600 
    156 H156       -0.9588  -15.2217  -46.3149 H         1 UNK         0.0600 
    157 H157       -1.1006  -15.5525  -44.5888 H         1 UNK         0.0600 
    158 H158       -2.2518  -16.2415  -45.7248 H         1 UNK         0.0600 
    159 H159        1.2739  -15.9552  -45.1078 H         1 UNK         0.3000 
    160 H160        4.1466  -18.0527  -44.9799 H         1 UNK         0.0600 
    161 H161        3.5584  -15.5546  -46.6512 H         1 UNK         0.0600 
    162 H162        4.1894  -17.0738  -47.2648 H         1 UNK         0.0600 
    163 H163        5.1478  -16.1208  -46.1441 H         1 UNK         0.0600 
    164 H164        3.2073  -15.3529  -44.1900 H         1 UNK         0.3000 
    165 H165        2.7952  -16.3136  -40.7855 H         1 UNK         0.0600 
    166 H166        4.3456  -14.4073  -40.4087 H         1 UNK         0.0600 
    167 H167        5.2312  -15.8358  -40.9205 H         1 UNK         0.0600 
    168 H168        4.9373  -14.5331  -42.0645 H         1 UNK         0.0600 
    169 H169        2.5700  -13.8184  -42.2030 H         1 UNK         0.3000 
    170 H170       -0.0429  -13.4912  -43.4016 H         1 UNK         0.0600 
    171 H171       -1.8889  -14.9152  -42.4061 H         1 UNK         0.0600 
    172 H172       -1.5236  -14.2581  -40.8174 H         1 UNK         0.0600 
    173 H173       -2.1562  -13.2193  -42.0919 H         1 UNK         0.0600 
    174 H174        1.3166  -12.8209  -41.0246 H         1 UNK         0.3000 
    175 H175        0.5827   -9.3123  -41.1670 H         1 UNK         0.0600 
    176 H176        1.2701   -9.6730  -38.8089 H         1 UNK         0.0600 
    177 H177       -0.3067  -10.3997  -39.0694 H         1 UNK         0.0600 
    178 H178        1.1263  -11.4191  -38.9923 H         1 UNK         0.0600 
    179 H179        2.5482  -11.2991  -41.7878 H         1 UNK         0.3000 
    180 H180        5.2682   -9.0488  -41.7144 H         1 UNK         0.0600 
    181 H181        4.8657  -11.8775  -40.6109 H         1 UNK         0.0600 
    182 H182        5.4746  -10.4956  -39.7138 H         1 UNK         0.0600 
    183 H183        6.4067  -11.1463  -41.0531 H         1 UNK         0.0600 
    184 H184        5.1967   -9.9265  -43.7040 H         1 UNK         0.3000 
    185 H185        5.0265  -11.1356  -45.4101 H         1 UNK         0.0600 
    186 H186        6.2589  -13.0837  -44.5898 H         1 UNK         0.0600 
    187 H187        4.8208  -14.0834  -44.6384 H         1 UNK         0.0600 
    188 H188        5.5214  -13.4744  -46.1370 H         1 UNK         0.0600 
    189 H189        3.1736  -11.2985  -46.5248 H         1 UNK         0.3000 
    190 H190       -1.4633  -21.2096  -46.1534 H         1 UNK         0.3000 
    191 H191       -3.6902  -21.8488  -47.7374 H         1 UNK         0.0600 
    192 H192       -3.8444  -20.3157  -45.8499 H         1 UNK         0.0600 
    193 H193       -4.9265  -21.6527  -45.5322 H         1 UNK         0.0600 
    194 H194       -3.3733  -21.5756  -44.7075 H         1 UNK         0.0600 
    195 H195       -1.5853  -24.1614  -46.5211 H         1 UNK         0.3000 
    196 H196       -3.1465  -26.2548  -45.5547 H         1 UNK         0.0600 
    197 H197       -1.2542  -27.6893  -46.3777 H         1 UNK         0.0600 
    198 H198       -0.6698  -26.2499  -45.5561 H         1 UNK         0.0600 
    199 H199       -0.6380  -26.3336  -47.3167 H         1 UNK         0.0600 
    200 H200       -4.4045  -27.8207  -46.3972 H         1 UNK         0.3000 
    201 H201       -5.8977  -28.8309  -47.6814 H         1 UNK         0.0600 
    202 H202       -3.8792  -29.8297  -48.7462 H         1 UNK         0.0600 
    203 H203       -3.8455  -28.5353  -49.9397 H         1 UNK         0.0600 
    204 H204       -5.1895  -29.6681  -49.9029 H         1 UNK         0.0600 
    205 H205       -6.3526  -26.1374  -47.2775 H         1 UNK         0.3000 
    206 H206       -7.5795  -24.3772  -47.8306 H         1 UNK         0.0600 
    207 H207       -9.3696  -26.0577  -48.3155 H         1 UNK         0.0600 
    208 H208       -9.5140  -24.6434  -49.3467 H         1 UNK         0.0600 
    209 H209       -8.8544  -26.1354  -49.9994 H         1 UNK         0.0600 
    210 H210       -5.1037  -24.2150  -48.6176 H         1 UNK         0.3000 
    211 H211       -3.5319  -23.3424  -49.9125 H         1 UNK         0.0600 
    212 H212       -5.7861  -21.7266  -51.2206 H         1 UNK         0.0600 
    213 H213       -4.0710  -21.3533  -51.2976 H         1 UNK         0.0600 
    214 H214       -4.9144  -21.2697  -49.7617 H         1 UNK         0.0600 
    215 H215       -4.0254  -25.7952  -50.6026 H         1 UNK         0.3000 
    216 H216       -4.0258  -27.4335  -52.1111 H         1 UNK         0.0600 
    217 H217       -2.5686  -27.1551  -54.0795 H         1 UNK         0.0600 
    218 H218       -1.8493  -26.3283  -52.7069 H         1 UNK         0.0600 
    219 H219       -2.6681  -25.4046  -53.9670 H         1 UNK         0.0600 
    220 H220       -6.4616  -26.4542  -51.9069 H         1 UNK         0.3000 
    221 H221       -8.4860  -26.1364  -52.7232 H         1 UNK         0.0600 
    222 H222       -7.5186  -27.5590  -55.2604 H         1 UNK         0.0600 
    223 H223       -8.1107  -28.3539  -53.8022 H         1 UNK         0.0600 
    224 H224       -9.1884  -27.3467  -54.7557 H         1 UNK         0.0600 
    225 H225       -7.2423  -23.9149  -52.6505 H         1 UNK         0.3000 
    226 H226       -7.0627  -21.8111  -53.2589 H         1 UNK         0.0600 
    227 H227       -9.5414  -22.0419  -53.3354 H         1 UNK         0.0600 
    228 H228       -8.9802  -20.8148  -54.4584 H         1 UNK         0.0600 
    229 H229       -9.4690  -22.3932  -55.0618 H         1 UNK         0.0600 
    230 H230       -5.1202  -23.1858  -54.4531 H         1 UNK         0.3000 
    231 H231       -4.7910  -21.9083  -57.1530 H         1 UNK         0.0600 
    232 H232       -3.8204  -24.6800  -56.2890 H         1 UNK         0.0600 
    233 H233       -3.5698  -23.9270  -57.8590 H         1 UNK         0.0600 
    234 H234       -5.1927  -24.3770  -57.3523 H         1 UNK         0.0600 
    235 H235       -3.3019  -22.8126  -54.0347 H         1 UNK         0.3000 
    236 H236       -0.6154  -22.3662  -54.7826 H         1 UNK         0.0600 
    237 H237       -1.3850  -23.6974  -52.7904 H         1 UNK         0.0600 
    238 H238       -0.1613  -22.5144  -52.3854 H         1 UNK         0.0600 
    239 H239       -1.8427  -22.1969  -51.9819 H         1 UNK         0.0600 
    240 H240       -3.0828  -20.0841  -53.7885 H         1 UNK         0.3000 
    241 H241       -1.2483  -17.8726  -53.3206 H         1 UNK         0.0600 
    242 H242       -2.1067  -19.3251  -56.2994 H         1 UNK         0.3800 
    243 H243       -1.9030  -17.8900  -57.2699 H         1 UNK         0.3800 
    244 H244       -3.2502  -16.4830  -53.0334 H         1 UNK         0.0800 
    245 H245       -4.2731  -17.7356  -53.6826 H         1 UNK         0.0800 
    246 H246       -3.2754  -16.0356  -50.5642 H         1 UNK         0.0800 
    247 H247       -3.0313  -17.2510  -49.3341 H         1 UNK         0.0800 
@<TRIPOS>BOND
     1    1    2 1    
     2    1  127 1    
     3    1  128 1    
     4    1  129 1    
     5    2    3 2    
     6    2    4 am   BACKBONE|DICT|INTERRES
     7    4    5 1    
     8    4  130 1    
     9    5    6 1    
    10    5   65 1    
    11    5  131 1    
    12    6    7 1    
    13    6  132 1    
    14    6  133 1    
    15    7    8 1    
    16    8    9 1    
    17    8  134 1    
    18    8  135 1    
    19    9   10 ar   
    20    9   14 ar   
    21   10   11 ar   
    22   10  136 1    
    23   11   12 ar   
    24   11  126 1    
    25   12   13 ar   
    26   12  137 1    
    27   13   14 ar   
    28   13   15 1    
    29   14  138 1    
    30   15   16 1    
    31   15  139 1    
    32   15  140 1    
    33   16   17 1    
    34   17   18 1    
    35   17  141 1    
    36   17  142 1    
    37   18   19 1    
    38   18   67 1    
    39   18  143 1    
    40   19   20 am   BACKBONE|DICT|INTERRES
    41   19  144 1    
    42   20   21 2    
    43   20   22 1    
    44   22   23 1    
    45   22   24 1    
    46   22  145 1    
    47   23  146 1    
    48   23  147 1    
    49   23  148 1    
    50   24   25 am   BACKBONE|DICT|INTERRES
    51   24  149 1    
    52   25   26 2    
    53   25   27 1    
    54   27   28 1    
    55   27   29 1    
    56   27  150 1    
    57   28  151 1    
    58   28  152 1    
    59   28  153 1    
    60   29   30 am   BACKBONE|DICT|INTERRES
    61   29  154 1    
    62   30   31 2    
    63   30   32 1    
    64   32   33 1    
    65   32   34 1    
    66   32  155 1    
    67   33  156 1    
    68   33  157 1    
    69   33  158 1    
    70   34   35 am   BACKBONE|DICT|INTERRES
    71   34  159 1    
    72   35   36 2    
    73   35   37 1    
    74   37   38 1    
    75   37   39 1    
    76   37  160 1    
    77   38  161 1    
    78   38  162 1    
    79   38  163 1    
    80   39   40 am   BACKBONE|DICT|INTERRES
    81   39  164 1    
    82   40   41 2    
    83   40   42 1    
    84   42   43 1    
    85   42   44 1    
    86   42  165 1    
    87   43  166 1    
    88   43  167 1    
    89   43  168 1    
    90   44   45 am   BACKBONE|DICT|INTERRES
    91   44  169 1    
    92   45   46 2    
    93   45   47 1    
    94   47   48 1    
    95   47   49 1    
    96   47  170 1    
    97   48  171 1    
    98   48  172 1    
    99   48  173 1    
   100   49   50 am   BACKBONE|DICT|INTERRES
   101   49  174 1    
   102   50   51 2    
   103   50   52 1    
   104   52   53 1    
   105   52   54 1    
   106   52  175 1    
   107   53  176 1    
   108   53  177 1    
   109   53  178 1    
   110   54   55 am   BACKBONE|DICT|INTERRES
   111   54  179 1    
   112   55   56 2    
   113   55   57 1    
   114   57   58 1    
   115   57   59 1    
   116   57  180 1    
   117   58  181 1    
   118   58  182 1    
   119   58  183 1    
   120   59   60 am   BACKBONE|DICT|INTERRES
   121   59  184 1    
   122   60   61 2    
   123   60   62 1    
   124   62   63 1    
   125   62   64 1    
   126   62  185 1    
   127   63  186 1    
   128   63  187 1    
   129   63  188 1    
   130   64   65 am   BACKBONE|DICT|INTERRES
   131   64  189 1    
   132   65   66 2    
   133   67   68 2    
   134   67   69 am   BACKBONE|DICT|INTERRES
   135   69   70 1    
   136   69  190 1    
   137   70   71 1    
   138   70   72 1    
   139   70  191 1    
   140   71  192 1    
   141   71  193 1    
   142   71  194 1    
   143   72   73 2    
   144   72   74 am   BACKBONE|DICT|INTERRES
   145   74   75 1    
   146   74  195 1    
   147   75   76 1    
   148   75   77 1    
   149   75  196 1    
   150   76  197 1    
   151   76  198 1    
   152   76  199 1    
   153   77   78 2    
   154   77   79 am   BACKBONE|DICT|INTERRES
   155   79   80 1    
   156   79  200 1    
   157   80   81 1    
   158   80   82 1    
   159   80  201 1    
   160   81  202 1    
   161   81  203 1    
   162   81  204 1    
   163   82   83 2    
   164   82   84 am   BACKBONE|DICT|INTERRES
   165   84   85 1    
   166   84  205 1    
   167   85   86 1    
   168   85   87 1    
   169   85  206 1    
   170   86  207 1    
   171   86  208 1    
   172   86  209 1    
   173   87   88 2    
   174   87   89 am   BACKBONE|DICT|INTERRES
   175   89   90 1    
   176   89  210 1    
   177   90   91 1    
   178   90   92 1    
   179   90  211 1    
   180   91  212 1    
   181   91  213 1    
   182   91  214 1    
   183   92   93 2    
   184   92   94 am   BACKBONE|DICT|INTERRES
   185   94   95 1    
   186   94  215 1    
   187   95   96 1    
   188   95   97 1    
   189   95  216 1    
   190   96  217 1    
   191   96  218 1    
   192   96  219 1    
   193   97   98 2    
   194   97   99 am   BACKBONE|DICT|INTERRES
   195   99  100 1    
   196   99  220 1    
   197  100  101 1    
   198  100  102 1    
   199  100  221 1    
   200  101  222 1    
   201  101  223 1    
   202  101  224 1    
   203  102  103 2    
   204  102  104 am   BACKBONE|DICT|INTERRES
   205  104  105 1    
   206  104  225 1    
   207  105  106 1    
   208  105  107 1    
   209  105  226 1    
   210  106  227 1    
   211  106  228 1    
   212  106  229 1    
   213  107  108 2    
   214  107  109 am   BACKBONE|DICT|INTERRES
   215  109  110 1    
   216  109  230 1    
   217  110  111 1    
   218  110  112 1    
   219  110  231 1    
   220  111  232 1    
   221  111  233 1    
   222  111  234 1    
   223  112  113 2    
   224  112  114 am   BACKBONE|DICT|INTERRES
   225  114  115 1    
   226  114  235 1    
   227  115  116 1    
   228  115  117 1    
   229  115  236 1    
   230  116  237 1    
   231  116  238 1    
   232  116  239 1    
   233  117  118 2    
   234  117  119 am   BACKBONE|DICT|INTERRES
   235  119  120 1    
   236  119  240 1    
   237  120  121 1    
   238  120  124 1    
   239  120  241 1    
   240  121  122 am   BACKBONE|DICT|INTERRES
   241  121  123 2    
   242  122  242 1    
   243  122  243 1    
   244  124  125 1    
   245  124  244 1    
   246  124  245 1    
   247  125  126 1    
   248  126  246 1    
   249  126  247 1    
@<TRIPOS>SUBSTRUCTURE
     1 UNK         1 GROUP             0       ****    0 ROOT    
