@<TRIPOS>MOLECULE
3R540
247   249    1
SMALL
USER_CHARGES


@<TRIPOS>ATOM
      1 CA          4.3620  -16.5239  -45.9370 C.3       0 UNK        -0.1800 
      2 C           3.8852  -15.0835  -46.0472 C.2       0 UNK         0.5000 
      3 O           3.5749  -14.4641  -45.0309 O.2       0 UNK        -0.5000 
      4 N           3.8431  -14.5438  -47.2731 N.am      1 UNK        -0.5000 
      5 CA          3.2784  -13.2302  -47.6209 C.3       1 UNK         0.1400 
      6 C6          3.3042  -12.9480  -49.1500 C.3       23 UNK        -0.0398 
      7 S7          2.8654  -14.3756  -50.1996 S.3       23 UNK        -0.2404 
      8 C8          1.0759  -14.5189  -49.8850 C.3       23 UNK        -0.0205 
      9 C9          0.5338  -15.9388  -50.0254 C.ar      23 UNK        -0.0193 
     10 C10        -0.7912  -16.1206  -50.4325 C.ar      23 UNK        -0.1150 
     11 C11        -1.3502  -17.3994  -50.4964 C.ar      23 UNK        -0.0193 
     12 C12        -0.5630  -18.5080  -50.1689 C.ar      23 UNK        -0.1150 
     13 C13         0.7609  -18.3468  -49.7554 C.ar      23 UNK        -0.0193 
     14 C14         1.3015  -17.0607  -49.6833 C.ar      23 UNK        -0.1150 
     15 C15         1.5936  -19.5575  -49.3567 C.3       23 UNK        -0.0205 
     16 S16         1.8706  -19.5877  -47.5587 S.3       23 UNK        -0.2404 
     17 C17         2.1913  -21.3473  -47.2253 C.3       23 UNK        -0.0398 
     18 CA          0.9826  -22.1471  -46.6742 C.3       11 UNK         0.1400 
     19 N           0.3764  -21.5909  -45.4555 N.am      11 UNK        -0.5000 
     20 C          -0.4135  -22.3156  -44.6459 C.2       10 UNK         0.5000 
     21 O          -0.6745  -23.5019  -44.8436 O.2       10 UNK        -0.5000 
     22 CA         -1.0624  -21.6113  -43.4427 C.3       10 UNK         0.1400 
     23 CB         -0.0527  -21.4117  -42.3027 C.3       10 UNK        -0.1800 
     24 N          -1.6959  -20.3425  -43.7961 N.am      10 UNK        -0.5000 
     25 C          -2.7385  -20.2239  -44.6311 C.2       9 UNK         0.5000 
     26 O          -3.2805  -21.1806  -45.1851 O.2       9 UNK        -0.5000 
     27 CA         -3.2450  -18.7979  -44.9216 C.3       9 UNK         0.1400 
     28 CB         -4.2129  -18.3272  -43.8263 C.3       9 UNK        -0.1800 
     29 N          -2.1596  -17.8276  -45.0705 N.am      9 UNK        -0.5000 
     30 C          -1.2353  -17.8825  -46.0397 C.2       8 UNK         0.5000 
     31 O          -1.2481  -18.7281  -46.9317 O.2       8 UNK        -0.5000 
     32 CA         -0.0791  -16.8656  -45.9589 C.3       8 UNK         0.1400 
     33 CB         -0.5165  -15.4827  -46.4615 C.3       8 UNK        -0.1800 
     34 N           0.4676  -16.7491  -44.6060 N.am      8 UNK        -0.5000 
     35 C           1.0165  -17.7575  -43.9116 C.2       7 UNK         0.5000 
     36 O           1.1979  -18.8884  -44.3614 O.2       7 UNK        -0.5000 
     37 CA          1.3608  -17.4726  -42.4402 C.3       7 UNK         0.1400 
     38 CB          2.7160  -16.7632  -42.3105 C.3       7 UNK        -0.1800 
     39 N           0.3173  -16.6824  -41.7862 N.am      7 UNK        -0.5000 
     40 C          -0.8993  -17.1538  -41.4765 C.2       6 UNK         0.5000 
     41 O          -1.2471  -18.3181  -41.6665 O.2       6 UNK        -0.5000 
     42 CA         -1.9082  -16.1492  -40.8894 C.3       6 UNK         0.1400 
     43 CB         -1.7229  -16.0237  -39.3699 C.3       6 UNK        -0.1800 
     44 N          -1.8008  -14.8241  -41.5000 N.am      6 UNK        -0.5000 
     45 C          -2.1066  -14.5465  -42.7758 C.2       5 UNK         0.5000 
     46 O          -2.5828  -15.3696  -43.5561 O.2       5 UNK        -0.5000 
     47 CA         -1.7696  -13.1257  -43.2736 C.3       5 UNK         0.1400 
     48 CB         -2.9519  -12.1750  -43.0360 C.3       5 UNK        -0.1800 
     49 N          -0.5664  -12.5770  -42.6388 N.am      5 UNK        -0.5000 
     50 C           0.6582  -13.1031  -42.7723 C.2       4 UNK         0.5000 
     51 O           0.9100  -14.0591  -43.5071 O.2       4 UNK        -0.5000 
     52 CA          1.7437  -12.5380  -41.8491 C.3       4 UNK         0.1400 
     53 CB          1.5664  -13.1381  -40.4359 C.3       4 UNK        -0.1800 
     54 N           3.0710  -12.8535  -42.3772 N.am      4 UNK        -0.5000 
     55 C           4.2220  -12.3873  -41.8737 C.2       3 UNK         0.5000 
     56 O           4.2868  -11.5835  -40.9423 O.2       3 UNK        -0.5000 
     57 CA          5.5228  -12.8845  -42.5199 C.3       3 UNK         0.1400 
     58 CB          5.7111  -14.4006  -42.3427 C.3       3 UNK        -0.1800 
     59 N           5.5729  -12.5346  -43.9360 N.am      3 UNK        -0.5000 
     60 C           6.0239  -11.3626  -44.4057 C.2       2 UNK         0.5000 
     61 O           6.4362  -10.4541  -43.6830 O.2       2 UNK        -0.5000 
     62 CA          6.0557  -11.1669  -45.9340 C.3       2 UNK         0.1400 
     63 CB          7.5008  -11.2405  -46.4530 C.3       2 UNK        -0.1800 
     64 N           5.2533  -12.1536  -46.6547 N.am      2 UNK        -0.5000 
     65 C           3.9352  -12.0545  -46.8683 C.2       1 UNK         0.5000 
     66 O           3.2483  -11.1008  -46.5004 O.2       1 UNK        -0.5000 
     67 C          -0.0656  -22.4744  -47.7590 C.2       11 UNK         0.5000 
     68 O           0.0950  -23.4777  -48.4541 O.2       11 UNK        -0.5000 
     69 N          -1.1413  -21.6766  -47.8530 N.am      12 UNK        -0.5000 
     70 CA         -2.2739  -21.9315  -48.7480 C.3       12 UNK         0.1400 
     71 CB         -3.2419  -20.7406  -48.7182 C.3       12 UNK        -0.1800 
     72 C          -3.0280  -23.2301  -48.4044 C.2       12 UNK         0.5000 
     73 O          -3.4281  -23.9582  -49.3140 O.2       12 UNK        -0.5000 
     74 N          -3.1986  -23.4871  -47.1000 N.am      13 UNK        -0.5000 
     75 CA         -3.8367  -24.6846  -46.5572 C.3       13 UNK         0.1400 
     76 CB         -4.2777  -24.4071  -45.1119 C.3       13 UNK        -0.1800 
     77 C          -2.9310  -25.9284  -46.6153 C.2       13 UNK         0.5000 
     78 O          -3.4425  -27.0328  -46.8016 O.2       13 UNK        -0.5000 
     79 N          -1.6145  -25.7394  -46.4403 N.am      14 UNK        -0.5000 
     80 CA         -0.6056  -26.7988  -46.5272 C.3       14 UNK         0.1400 
     81 CB          0.7213  -26.2975  -45.9384 C.3       14 UNK        -0.1800 
     82 C          -0.3987  -27.3043  -47.9667 C.2       14 UNK         0.5000 
     83 O          -0.1543  -28.4958  -48.1645 O.2       14 UNK        -0.5000 
     84 N          -0.5106  -26.3933  -48.9417 N.am      15 UNK        -0.5000 
     85 CA         -0.5311  -26.6882  -50.3726 C.3       15 UNK         0.1400 
     86 CB         -0.3521  -25.3688  -51.1379 C.3       15 UNK        -0.1800 
     87 C          -1.8305  -27.4011  -50.8020 C.2       15 UNK         0.5000 
     88 O          -2.7964  -27.4636  -50.0373 O.2       15 UNK        -0.5000 
     89 N          -1.8433  -27.9134  -52.0388 N.am      16 UNK        -0.5000 
     90 CA         -2.9602  -28.6358  -52.6554 C.3       16 UNK         0.1400 
     91 CB         -2.4235  -29.4274  -53.8619 C.3       16 UNK        -0.1800 
     92 C          -4.1401  -27.7094  -53.0297 C.2       16 UNK         0.5000 
     93 O          -4.4438  -27.5402  -54.2120 O.2       16 UNK        -0.5000 
     94 N          -4.7693  -27.1193  -52.0035 N.am      17 UNK        -0.5000 
     95 CA         -5.9083  -26.1958  -52.0513 C.3       17 UNK         0.1400 
     96 CB         -7.1787  -26.9195  -52.5441 C.3       17 UNK        -0.1800 
     97 C          -5.6012  -24.9082  -52.8433 C.2       17 UNK         0.5000 
     98 O          -6.4455  -24.4258  -53.6015 O.2       17 UNK        -0.5000 
     99 N          -4.3897  -24.3666  -52.6442 N.am      18 UNK        -0.5000 
    100 CA        -3.8743  -23.1873  -53.3468 C.3       18 UNK         0.1400 
    101 CB        -2.3944  -22.9845  -52.9978 C.3       18 UNK        -0.1800 
    102 C         -4.6674  -21.8985  -53.0729 C.2       18 UNK         0.5000 
    103 O         -4.6647  -21.0067  -53.9213 O.2       18 UNK        -0.5000 
    104 N         -5.3656  -21.8421  -51.9277 N.am      19 UNK        -0.5000 
    105 CA        -6.2355  -20.7447  -51.4901 C.3       19 UNK         0.1400 
    106 CB        -6.9141  -21.1451  -50.1704 C.3       19 UNK        -0.1800 
    107 C         -7.3004  -20.3275  -52.5239 C.2       19 UNK         0.5000 
    108 O         -7.6470  -19.1485  -52.5954 O.2       19 UNK        -0.5000 
    109 N         -7.7678  -21.2893  -53.3321 N.am      20 UNK        -0.5000 
    110 CA        -8.6998  -21.0694  -54.4377 C.3       20 UNK         0.1400 
    111 CB        -9.2054  -22.4328  -54.9338 C.3       20 UNK        -0.1800 
    112 C         -8.0974  -20.2607  -55.6061 C.2       20 UNK         0.5000 
    113 O         -8.8554  -19.6513  -56.3621 O.2       20 UNK        -0.5000 
    114 N         -6.7641  -20.2707  -55.7403 N.am      21 UNK        -0.5000 
    115 CA        -6.0230  -19.5490  -56.7702 C.3       21 UNK         0.1400 
    116 CB        -4.9207  -20.4581  -57.3387 C.3       21 UNK        -0.1800 
    117 C         -5.4268  -18.2463  -56.2145 C.2       21 UNK         0.5000 
    118 O         -5.6034  -17.1964  -56.8344 O.2       21 UNK        -0.5000 
    119 N         -4.7267  -18.3274  -55.0733 N.am      22 UNK        -0.5000 
    120 CA        -4.0439  -17.1786  -54.4503 C.3       22 UNK         0.1400 
    121 C         -4.9593  -16.2346  -53.6170 C.2       22 UNK         0.5000 
    122 N         -6.1778  -16.6200  -53.2586 N.am      22 UNK        -0.7600 
    123 O         -4.5591  -15.1171  -53.3026 O.2       22 UNK        -0.5000 
    124 C124       -2.7634  -17.5962  -53.6792 C.3       23 UNK        -0.0398 
    125 S125       -3.0682  -18.7012  -52.2603 S.3       23 UNK        -0.2404 
    126 C126       -2.8199  -17.5743  -50.8551 C.3       23 UNK        -0.0205 
    127 H127        3.5477  -17.1596  -45.5896 H         1 UNK         0.0600 
    128 H128        5.1814  -16.5952  -45.2220 H         1 UNK         0.0600 
    129 H129        4.7086  -16.9110  -46.8954 H         1 UNK         0.0600 
    130 H130        4.1211  -15.1043  -48.0664 H         1 UNK         0.3000 
    131 H131        2.2364  -13.2545  -47.2976 H         1 UNK         0.0600 
    132 H132        2.6395  -12.1170  -49.3930 H         1 UNK         0.0800 
    133 H133        4.3021  -12.6343  -49.4631 H         1 UNK         0.0800 
    134 H134        0.8443  -14.1773  -48.8774 H         1 UNK         0.0800 
    135 H135        0.5558  -13.8445  -50.5671 H         1 UNK         0.0800 
    136 H136       -1.4001  -15.2593  -50.6695 H         1 UNK         0.1150 
    137 H137       -0.9896  -19.4989  -50.2146 H         1 UNK         0.1150 
    138 H138        2.3163  -16.9423  -49.3329 H         1 UNK         0.1150 
    139 H139        1.0958  -20.4758  -49.6706 H         1 UNK         0.0800 
    140 H140        2.5546  -19.5319  -49.8719 H         1 UNK         0.0800 
    141 H141        2.5941  -21.8225  -48.1216 H         1 UNK         0.0800 
    142 H142        2.9982  -21.3861  -46.4925 H         1 UNK         0.0800 
    143 H143        1.3998  -23.1128  -46.3826 H         1 UNK         0.0600 
    144 H144        0.5603  -20.6132  -45.2462 H         1 UNK         0.3000 
    145 H145       -1.8501  -22.2691  -43.0691 H         1 UNK         0.0600 
    146 H146       -0.5307  -20.9809  -41.4230 H         1 UNK         0.0600 
    147 H147        0.3835  -22.3645  -42.0003 H         1 UNK         0.0600 
    148 H148        0.7674  -20.7572  -42.5936 H         1 UNK         0.0600 
    149 H149       -1.3345  -19.5110  -43.3423 H         1 UNK         0.3000 
    150 H150       -3.7924  -18.8293  -45.8659 H         1 UNK         0.0600 
    151 H151       -5.0467  -19.0219  -43.7179 H         1 UNK         0.0600 
    152 H152       -4.6321  -17.3495  -44.0646 H         1 UNK         0.0600 
    153 H153       -3.7197  -18.2520  -42.8572 H         1 UNK         0.0600 
    154 H154       -2.1261  -17.0668  -44.3986 H         1 UNK         0.3000 
    155 H155        0.7241  -17.2091  -46.6095 H         1 UNK         0.0600 
    156 H156        0.3155  -14.7784  -46.4472 H         1 UNK         0.0600 
    157 H157       -1.3196  -15.0660  -45.8563 H         1 UNK         0.0600 
    158 H158       -0.8818  -15.5426  -47.4866 H         1 UNK         0.0600 
    159 H159        0.4258  -15.8310  -44.1735 H         1 UNK         0.3000 
    160 H160        1.4359  -18.4313  -41.9229 H         1 UNK         0.0600 
    161 H161        2.7117  -15.7943  -42.8064 H         1 UNK         0.0600 
    162 H162        3.5108  -17.3565  -42.7641 H         1 UNK         0.0600 
    163 H163        2.9827  -16.6040  -41.2657 H         1 UNK         0.0600 
    164 H164        0.5073  -15.7010  -41.6560 H         1 UNK         0.3000 
    165 H165       -2.9123  -16.5330  -41.0817 H         1 UNK         0.0600 
    166 H166       -2.4793  -15.3714  -38.9331 H         1 UNK         0.0600 
    167 H167       -1.8147  -16.9964  -38.8846 H         1 UNK         0.0600 
    168 H168       -0.7423  -15.6202  -39.1139 H         1 UNK         0.0600 
    169 H169       -1.4317  -14.0844  -40.9222 H         1 UNK         0.3000 
    170 H170       -1.5876  -13.1830  -44.3484 H         1 UNK         0.0600 
    171 H171       -3.8563  -12.5504  -43.5169 H         1 UNK         0.0600 
    172 H172       -3.1693  -12.0580  -41.9736 H         1 UNK         0.0600 
    173 H173       -2.7522  -11.1864  -43.4496 H         1 UNK         0.0600 
    174 H174       -0.7027  -11.7955  -42.0136 H         1 UNK         0.3000 
    175 H175        1.6310  -11.4528  -41.8085 H         1 UNK         0.0600 
    176 H176        1.7538  -14.2125  -40.4306 H         1 UNK         0.0600 
    177 H177        2.2425  -12.6819  -39.7136 H         1 UNK         0.0600 
    178 H178        0.5564  -12.9784  -40.0571 H         1 UNK         0.0600 
    179 H179        3.0775  -13.4754  -43.1827 H         1 UNK         0.3000 
    180 H180        6.3533  -12.3999  -42.0014 H         1 UNK         0.0600 
    181 H181        4.9611  -14.9756  -42.8823 H         1 UNK         0.0600 
    182 H182        5.6446  -14.6816  -41.2910 H         1 UNK         0.0600 
    183 H183        6.6904  -14.7167  -42.7022 H         1 UNK         0.0600 
    184 H184        5.1527  -13.1959  -44.5780 H         1 UNK         0.3000 
    185 H185        5.6710  -10.1667  -46.1451 H         1 UNK         0.0600 
    186 H186        8.1305  -10.4944  -45.9664 H         1 UNK         0.0600 
    187 H187        7.9466  -12.2183  -46.2662 H         1 UNK         0.0600 
    188 H188        7.5449  -11.0499  -47.5255 H         1 UNK         0.0600 
    189 H189        5.7332  -12.9796  -46.9825 H         1 UNK         0.3000 
    190 H190       -1.1854  -20.8369  -47.2843 H         1 UNK         0.3000 
    191 H191       -1.8731  -22.0221  -49.7586 H         1 UNK         0.0600 
    192 H192       -3.8397  -20.7190  -47.8068 H         1 UNK         0.0600 
    193 H193       -3.9251  -20.7822  -49.5648 H         1 UNK         0.0600 
    194 H194       -2.7134  -19.7938  -48.7798 H         1 UNK         0.0600 
    195 H195       -2.8926  -22.7932  -46.4257 H         1 UNK         0.3000 
    196 H196       -4.7295  -24.8964  -47.1495 H         1 UNK         0.0600 
    197 H197       -4.7756  -25.2761  -44.6802 H         1 UNK         0.0600 
    198 H198       -4.9794  -23.5739  -45.0678 H         1 UNK         0.0600 
    199 H199       -3.4285  -24.1617  -44.4728 H         1 UNK         0.0600 
    200 H200       -1.2839  -24.8136  -46.1874 H         1 UNK         0.3000 
    201 H201       -0.9466  -27.6424  -45.9234 H         1 UNK         0.0600 
    202 H202        0.6003  -25.9796  -44.9028 H         1 UNK         0.0600 
    203 H203        1.1181  -25.4560  -46.5060 H         1 UNK         0.0600 
    204 H204        1.4754  -27.0854  -45.9505 H         1 UNK         0.0600 
    205 H205       -0.6746  -25.4276  -48.6818 H         1 UNK         0.3000 
    206 H206        0.3096  -27.3458  -50.6025 H         1 UNK         0.0600 
    207 H207        0.5908  -24.8880  -50.8767 H         1 UNK         0.0600 
    208 H208       -0.3441  -25.5279  -52.2165 H         1 UNK         0.0600 
    209 H209       -1.1551  -24.6689  -50.9077 H         1 UNK         0.0600 
    210 H210       -1.0248  -27.7964  -52.6185 H         1 UNK         0.3000 
    211 H211       -3.3407  -29.3607  -51.9325 H         1 UNK         0.0600 
    212 H212       -1.9990  -28.7688  -54.6207 H         1 UNK         0.0600 
    213 H213       -3.2180  -30.0060  -54.3352 H         1 UNK         0.0600 
    214 H214       -1.6493  -30.1323  -53.5583 H         1 UNK         0.0600 
    215 H215       -4.3655  -27.2753  -51.0823 H         1 UNK         0.3000 
    216 H216       -6.0879  -25.8808  -51.0223 H         1 UNK         0.0600 
    217 H217       -8.0536  -26.2736  -52.4615 H         1 UNK         0.0600 
    218 H218       -7.3789  -27.8120  -51.9514 H         1 UNK         0.0600 
    219 H219       -7.0939  -27.2220  -53.5883 H         1 UNK         0.0600 
    220 H220       -3.7721  -24.8044  -51.9755 H         1 UNK         0.3000 
    221 H221       -3.9456  -23.3852  -54.4183 H         1 UNK         0.0600 
    222 H222       -2.2549  -22.8232  -51.9297 H         1 UNK         0.0600 
    223 H223       -1.7985  -23.8464  -53.2961 H         1 UNK         0.0600 
    224 H224       -1.9859  -22.1149  -53.5149 H         1 UNK         0.0600 
    225 H225       -5.2969  -22.6342  -51.3058 H         1 UNK         0.3000 
    226 H226       -5.6033  -19.8759  -51.3028 H         1 UNK         0.0600 
    227 H227       -6.1848  -21.3847  -49.3973 H         1 UNK         0.0600 
    228 H228       -7.5333  -20.3323  -49.7886 H         1 UNK         0.0600 
    229 H229       -7.5589  -22.0154  -50.2998 H         1 UNK         0.0600 
    230 H230       -7.4066  -22.2286  -53.2264 H         1 UNK         0.3000 
    231 H231       -9.5532  -20.5063  -54.0544 H         1 UNK         0.0600 
    232 H232       -9.9295  -22.3126  -55.7407 H         1 UNK         0.0600 
    233 H233       -9.6989  -22.9859  -54.1345 H         1 UNK         0.0600 
    234 H234       -8.3890  -23.0492  -55.3131 H         1 UNK         0.0600 
    235 H235       -6.2015  -20.7464  -55.0420 H         1 UNK         0.3000 
    236 H236       -6.6871  -19.2856  -57.5962 H         1 UNK         0.0600 
    237 H237       -5.3454  -21.3597  -57.7802 H         1 UNK         0.0600 
    238 H238       -4.3594  -19.9461  -58.1213 H         1 UNK         0.0600 
    239 H239       -4.2080  -20.7661  -56.5731 H         1 UNK         0.0600 
    240 H240       -4.6276  -19.2242  -54.6044 H         1 UNK         0.3000 
    241 H241       -3.6859  -16.5496  -55.2680 H         1 UNK         0.0600 
    242 H242       -6.7541  -15.9876  -52.7274 H         1 UNK         0.3800 
    243 H243       -6.5164  -17.5549  -53.4448 H         1 UNK         0.3800 
    244 H244       -2.0887  -18.1171  -54.3595 H         1 UNK         0.0800 
    245 H245       -2.2122  -16.7148  -53.3468 H         1 UNK         0.0800 
    246 H246       -3.2888  -16.6138  -51.0738 H         1 UNK         0.0800 
    247 H247       -3.3481  -17.9699  -49.9883 H         1 UNK         0.0800 
@<TRIPOS>BOND
     1    1    2 1    
     2    1  127 1    
     3    1  128 1    
     4    1  129 1    
     5    2    3 2    
     6    2    4 am   BACKBONE|DICT|INTERRES
     7    4    5 1    
     8    4  130 1    
     9    5    6 1    
    10    5   65 1    
    11    5  131 1    
    12    6    7 1    
    13    6  132 1    
    14    6  133 1    
    15    7    8 1    
    16    8    9 1    
    17    8  134 1    
    18    8  135 1    
    19    9   10 ar   
    20    9   14 ar   
    21   10   11 ar   
    22   10  136 1    
    23   11   12 ar   
    24   11  126 1    
    25   12   13 ar   
    26   12  137 1    
    27   13   14 ar   
    28   13   15 1    
    29   14  138 1    
    30   15   16 1    
    31   15  139 1    
    32   15  140 1    
    33   16   17 1    
    34   17   18 1    
    35   17  141 1    
    36   17  142 1    
    37   18   19 1    
    38   18   67 1    
    39   18  143 1    
    40   19   20 am   BACKBONE|DICT|INTERRES
    41   19  144 1    
    42   20   21 2    
    43   20   22 1    
    44   22   23 1    
    45   22   24 1    
    46   22  145 1    
    47   23  146 1    
    48   23  147 1    
    49   23  148 1    
    50   24   25 am   BACKBONE|DICT|INTERRES
    51   24  149 1    
    52   25   26 2    
    53   25   27 1    
    54   27   28 1    
    55   27   29 1    
    56   27  150 1    
    57   28  151 1    
    58   28  152 1    
    59   28  153 1    
    60   29   30 am   BACKBONE|DICT|INTERRES
    61   29  154 1    
    62   30   31 2    
    63   30   32 1    
    64   32   33 1    
    65   32   34 1    
    66   32  155 1    
    67   33  156 1    
    68   33  157 1    
    69   33  158 1    
    70   34   35 am   BACKBONE|DICT|INTERRES
    71   34  159 1    
    72   35   36 2    
    73   35   37 1    
    74   37   38 1    
    75   37   39 1    
    76   37  160 1    
    77   38  161 1    
    78   38  162 1    
    79   38  163 1    
    80   39   40 am   BACKBONE|DICT|INTERRES
    81   39  164 1    
    82   40   41 2    
    83   40   42 1    
    84   42   43 1    
    85   42   44 1    
    86   42  165 1    
    87   43  166 1    
    88   43  167 1    
    89   43  168 1    
    90   44   45 am   BACKBONE|DICT|INTERRES
    91   44  169 1    
    92   45   46 2    
    93   45   47 1    
    94   47   48 1    
    95   47   49 1    
    96   47  170 1    
    97   48  171 1    
    98   48  172 1    
    99   48  173 1    
   100   49   50 am   BACKBONE|DICT|INTERRES
   101   49  174 1    
   102   50   51 2    
   103   50   52 1    
   104   52   53 1    
   105   52   54 1    
   106   52  175 1    
   107   53  176 1    
   108   53  177 1    
   109   53  178 1    
   110   54   55 am   BACKBONE|DICT|INTERRES
   111   54  179 1    
   112   55   56 2    
   113   55   57 1    
   114   57   58 1    
   115   57   59 1    
   116   57  180 1    
   117   58  181 1    
   118   58  182 1    
   119   58  183 1    
   120   59   60 am   BACKBONE|DICT|INTERRES
   121   59  184 1    
   122   60   61 2    
   123   60   62 1    
   124   62   63 1    
   125   62   64 1    
   126   62  185 1    
   127   63  186 1    
   128   63  187 1    
   129   63  188 1    
   130   64   65 am   BACKBONE|DICT|INTERRES
   131   64  189 1    
   132   65   66 2    
   133   67   68 2    
   134   67   69 am   BACKBONE|DICT|INTERRES
   135   69   70 1    
   136   69  190 1    
   137   70   71 1    
   138   70   72 1    
   139   70  191 1    
   140   71  192 1    
   141   71  193 1    
   142   71  194 1    
   143   72   73 2    
   144   72   74 am   BACKBONE|DICT|INTERRES
   145   74   75 1    
   146   74  195 1    
   147   75   76 1    
   148   75   77 1    
   149   75  196 1    
   150   76  197 1    
   151   76  198 1    
   152   76  199 1    
   153   77   78 2    
   154   77   79 am   BACKBONE|DICT|INTERRES
   155   79   80 1    
   156   79  200 1    
   157   80   81 1    
   158   80   82 1    
   159   80  201 1    
   160   81  202 1    
   161   81  203 1    
   162   81  204 1    
   163   82   83 2    
   164   82   84 am   BACKBONE|DICT|INTERRES
   165   84   85 1    
   166   84  205 1    
   167   85   86 1    
   168   85   87 1    
   169   85  206 1    
   170   86  207 1    
   171   86  208 1    
   172   86  209 1    
   173   87   88 2    
   174   87   89 am   BACKBONE|DICT|INTERRES
   175   89   90 1    
   176   89  210 1    
   177   90   91 1    
   178   90   92 1    
   179   90  211 1    
   180   91  212 1    
   181   91  213 1    
   182   91  214 1    
   183   92   93 2    
   184   92   94 am   BACKBONE|DICT|INTERRES
   185   94   95 1    
   186   94  215 1    
   187   95   96 1    
   188   95   97 1    
   189   95  216 1    
   190   96  217 1    
   191   96  218 1    
   192   96  219 1    
   193   97   98 2    
   194   97   99 am   BACKBONE|DICT|INTERRES
   195   99  100 1    
   196   99  220 1    
   197  100  101 1    
   198  100  102 1    
   199  100  221 1    
   200  101  222 1    
   201  101  223 1    
   202  101  224 1    
   203  102  103 2    
   204  102  104 am   BACKBONE|DICT|INTERRES
   205  104  105 1    
   206  104  225 1    
   207  105  106 1    
   208  105  107 1    
   209  105  226 1    
   210  106  227 1    
   211  106  228 1    
   212  106  229 1    
   213  107  108 2    
   214  107  109 am   BACKBONE|DICT|INTERRES
   215  109  110 1    
   216  109  230 1    
   217  110  111 1    
   218  110  112 1    
   219  110  231 1    
   220  111  232 1    
   221  111  233 1    
   222  111  234 1    
   223  112  113 2    
   224  112  114 am   BACKBONE|DICT|INTERRES
   225  114  115 1    
   226  114  235 1    
   227  115  116 1    
   228  115  117 1    
   229  115  236 1    
   230  116  237 1    
   231  116  238 1    
   232  116  239 1    
   233  117  118 2    
   234  117  119 am   BACKBONE|DICT|INTERRES
   235  119  120 1    
   236  119  240 1    
   237  120  121 1    
   238  120  124 1    
   239  120  241 1    
   240  121  122 am   BACKBONE|DICT|INTERRES
   241  121  123 2    
   242  122  242 1    
   243  122  243 1    
   244  124  125 1    
   245  124  244 1    
   246  124  245 1    
   247  125  126 1    
   248  126  246 1    
   249  126  247 1    
@<TRIPOS>SUBSTRUCTURE
     1 UNK         1 GROUP             0       ****    0 ROOT    
