@<TRIPOS>MOLECULE
3R540
247   249    1
SMALL
USER_CHARGES


@<TRIPOS>ATOM
      1 CA          7.3765  -11.6594  -50.6455 C.3       0 UNK        -0.1800 
      2 C           6.8605  -12.1483  -49.2992 C.2       0 UNK         0.5000 
      3 O           7.5977  -12.8038  -48.5619 O.2       0 UNK        -0.5000 
      4 N           5.5972  -11.8406  -48.9819 N.am      1 UNK        -0.5000 
      5 CA          4.9386  -12.1811  -47.7167 C.3       1 UNK         0.1400 
      6 C6          3.4081  -11.9653  -47.7881 C.3       23 UNK        -0.0398 
      7 S7          2.6082  -13.0228  -49.0416 S.3       23 UNK        -0.2404 
      8 C8          2.1285  -14.4550  -48.0285 C.3       23 UNK        -0.0205 
      9 C9          1.3392  -15.4715  -48.8365 C.ar      23 UNK        -0.0193 
     10 C10        -0.0033  -15.2299  -49.1373 C.ar      23 UNK        -0.1150 
     11 C11        -0.7508  -16.1664  -49.8560 C.ar      23 UNK        -0.0193 
     12 C12        -0.1425  -17.3502  -50.2847 C.ar      23 UNK        -0.1150 
     13 C13         1.2008  -17.6035  -49.9899 C.ar      23 UNK        -0.0193 
     14 C14         1.9366  -16.6601  -49.2655 C.ar      23 UNK        -0.1150 
     15 C15         1.8661  -18.8882  -50.4612 C.3       23 UNK        -0.0205 
     16 S16         1.8802  -20.1655  -49.1635 S.3       23 UNK        -0.2404 
     17 C17         0.1699  -20.7894  -49.2532 C.3       23 UNK        -0.0398 
     18 CA          0.0038  -22.1376  -48.5092 C.3       11 UNK         0.1400 
     19 N           0.1086  -21.9944  -47.0535 N.am      11 UNK        -0.5000 
     20 C           0.0799  -23.0034  -46.1702 C.2       10 UNK         0.5000 
     21 O           0.0161  -24.1920  -46.4832 O.2       10 UNK        -0.5000 
     22 CA          0.0609  -22.6182  -44.6813 C.3       10 UNK         0.1400 
     23 CB          1.4693  -22.2652  -44.1786 C.3       10 UNK        -0.1800 
     24 N          -0.8574  -21.5117  -44.4120 N.am      10 UNK        -0.5000 
     25 C          -2.1915  -21.5925  -44.5185 C.2       9 UNK         0.5000 
     26 O          -2.7934  -22.6182  -44.8309 O.2       9 UNK        -0.5000 
     27 CA         -2.9853  -20.2984  -44.2754 C.3       9 UNK         0.1400 
     28 CB         -3.1876  -20.0558  -42.7726 C.3       9 UNK        -0.1800 
     29 N          -2.3385  -19.1333  -44.8736 N.am      9 UNK        -0.5000 
     30 C          -2.2021  -18.9387  -46.1931 C.2       8 UNK         0.5000 
     31 O          -2.6318  -19.7090  -47.0525 O.2       8 UNK        -0.5000 
     32 CA         -1.4090  -17.6916  -46.6190 C.3       8 UNK         0.1400 
     33 CB         -2.3321  -16.4642  -46.6160 C.3       8 UNK        -0.1800 
     34 N          -0.2416  -17.4254  -45.7744 N.am      8 UNK        -0.5000 
     35 C           0.7551  -18.2966  -45.5464 C.2       7 UNK         0.5000 
     36 O           0.8034  -19.4150  -46.0538 O.2       7 UNK        -0.5000 
     37 CA          1.8651  -17.8916  -44.5561 C.3       7 UNK         0.1400 
     38 CB          3.1317  -17.4767  -45.3190 C.3       7 UNK        -0.1800 
     39 N           1.4893  -16.8156  -43.6390 N.am      7 UNK        -0.5000 
     40 C           0.4868  -16.8508  -42.7488 C.2       6 UNK         0.5000 
     41 O          -0.2078  -17.8463  -42.5392 O.2       6 UNK        -0.5000 
     42 CA          0.1752  -15.5304  -42.0130 C.3       6 UNK         0.1400 
     43 CB          0.8046  -15.5318  -40.6120 C.3       6 UNK        -0.1800 
     44 N           0.6168  -14.3282  -42.7327 N.am      6 UNK        -0.5000 
     45 C           0.1891  -13.9464  -43.9462 C.2       5 UNK         0.5000 
     46 O          -0.6181  -14.5955  -44.6116 O.2       5 UNK        -0.5000 
     47 CA          0.8189  -12.6664  -44.5342 C.3       5 UNK         0.1400 
     48 CB         -0.0711  -11.9887  -45.5969 C.3       5 UNK        -0.1800 
     49 N           1.2645  -11.6980  -43.5262 N.am      5 UNK        -0.5000 
     50 C           0.5079  -11.0423  -42.6321 C.2       4 UNK         0.5000 
     51 O          -0.7084  -11.1904  -42.5122 O.2       4 UNK        -0.5000 
     52 CA          1.2442  -10.0570  -41.7050 C.3       4 UNK         0.1400 
     53 CB          1.5419  -10.7199  -40.3511 C.3       4 UNK        -0.1800 
     54 N           2.5001   -9.5649  -42.2756 N.am      4 UNK        -0.5000 
     55 C           2.6051   -8.6632  -43.2584 C.2       3 UNK         0.5000 
     56 O           1.6356   -8.1278  -43.7966 O.2       3 UNK        -0.5000 
     57 CA          4.0286   -8.2978  -43.7250 C.3       3 UNK         0.1400 
     58 CB          4.7501   -7.4266  -42.6788 C.3       3 UNK        -0.1800 
     59 N           4.8613   -9.4387  -44.1333 N.am      3 UNK        -0.5000 
     60 C           5.3316  -10.4618  -43.4070 C.2       2 UNK         0.5000 
     61 O           5.0645  -10.6330  -42.2159 O.2       2 UNK        -0.5000 
     62 CA          6.2427  -11.4671  -44.1483 C.3       2 UNK         0.1400 
     63 CB          6.6694  -12.6458  -43.2539 C.3       2 UNK        -0.1800 
     64 N           5.6393  -12.0095  -45.3703 N.am      2 UNK        -0.5000 
     65 C           5.5404  -11.3752  -46.5459 C.2       1 UNK         0.5000 
     66 O           5.8716  -10.1983  -46.7138 O.2       1 UNK        -0.5000 
     67 C          -1.3128  -22.8279  -48.9132 C.2       11 UNK         0.5000 
     68 O          -1.2753  -23.8037  -49.6632 O.2       11 UNK        -0.5000 
     69 N          -2.4407  -22.3441  -48.3714 N.am      12 UNK        -0.5000 
     70 CA         -3.7659  -22.9251  -48.5787 C.3       12 UNK         0.1400 
     71 CB         -4.8308  -22.0357  -47.9211 C.3       12 UNK        -0.1800 
     72 C          -3.8660  -24.3715  -48.0632 C.2       12 UNK         0.5000 
     73 O          -4.3437  -25.2353  -48.7968 O.2       12 UNK        -0.5000 
     74 N          -3.3865  -24.6209  -46.8353 N.am      13 UNK        -0.5000 
     75 CA         -3.3838  -25.9381  -46.1940 C.3       13 UNK         0.1400 
     76 CB         -2.9058  -25.8133  -44.7400 C.3       13 UNK        -0.1800 
     77 C          -2.5463  -26.9846  -46.9487 C.2       13 UNK         0.5000 
     78 O          -2.9998  -28.1190  -47.1025 O.2       13 UNK        -0.5000 
     79 N          -1.3695  -26.5813  -47.4493 N.am      14 UNK        -0.5000 
     80 CA         -0.4766  -27.4178  -48.2578 C.3       14 UNK         0.1400 
     81 CB          0.8404  -26.6661  -48.5027 C.3       14 UNK        -0.1800 
     82 C          -1.0984  -27.8658  -49.5956 C.2       14 UNK         0.5000 
     83 O          -0.7823  -28.9532  -50.0795 O.2       14 UNK        -0.5000 
     84 N          -1.9891  -27.0342  -50.1479 N.am      15 UNK        -0.5000 
     85 CA         -2.7587  -27.2990  -51.3621 C.3       15 UNK         0.1400 
     86 CB         -2.8650  -25.9852  -52.1466 C.3       15 UNK        -0.1800 
     87 C          -4.1590  -27.8775  -51.0689 C.2       15 UNK         0.5000 
     88 O          -4.9555  -28.0123  -51.9988 O.2       15 UNK        -0.5000 
     89 N          -4.4608  -28.1732  -49.7936 N.am      16 UNK        -0.5000 
     90 CA         -5.7385  -28.6797  -49.2725 C.3       16 UNK         0.1400 
     91 CB         -5.9572  -30.1380  -49.7248 C.3       16 UNK        -0.1800 
     92 C          -6.9459  -27.7685  -49.5955 C.2       16 UNK         0.5000 
     93 O          -8.0630  -28.2595  -49.7654 O.2       16 UNK        -0.5000 
     94 N          -6.6833  -26.4576  -49.7042 N.am      17 UNK        -0.5000 
     95 CA         -7.5841  -25.3715  -50.1028 C.3       17 UNK         0.1400 
     96 CB         -8.7079  -25.1849  -49.0636 C.3       17 UNK        -0.1800 
     97 C          -8.1267  -25.4762  -51.5472 C.2       17 UNK         0.5000 
     98 O          -9.0331  -24.7215  -51.9033 O.2       17 UNK        -0.5000 
     99 N          -7.5658  -26.3772  -52.3676 N.am      18 UNK        -0.5000 
    100 CA        -7.9450  -26.5696  -53.7703 C.3       18 UNK         0.1400 
    101 CB        -7.6266  -28.0168  -54.1773 C.3       18 UNK        -0.1800 
    102 C         -7.2406  -25.5763  -54.7147 C.2       18 UNK         0.5000 
    103 O         -7.6821  -25.3999  -55.8511 O.2       18 UNK        -0.5000 
    104 N         -6.1631  -24.9511  -54.2321 N.am      19 UNK        -0.5000 
    105 CA        -5.3351  -23.9661  -54.9153 C.3       19 UNK         0.1400 
    106 CB        -4.4040  -24.6724  -55.9229 C.3       19 UNK        -0.1800 
    107 C         -4.5521  -23.1848  -53.8459 C.2       19 UNK         0.5000 
    108 O         -4.8133  -23.3576  -52.6520 O.2       19 UNK        -0.5000 
    109 N         -3.6113  -22.3395  -54.2894 N.am      20 UNK        -0.5000 
    110 CA        -2.6027  -21.5895  -53.5204 C.3       20 UNK         0.1400 
    111 CB        -1.6634  -22.5538  -52.7770 C.3       20 UNK        -0.1800 
    112 C         -3.1326  -20.4976  -52.5666 C.2       20 UNK         0.5000 
    113 O         -2.3920  -19.5602  -52.2691 O.2       20 UNK        -0.5000 
    114 N         -4.3882  -20.6096  -52.1206 N.am      21 UNK        -0.5000 
    115 CA        -5.1192  -19.5914  -51.3728 C.3       21 UNK         0.1400 
    116 CB        -6.4586  -20.1833  -50.9064 C.3       21 UNK        -0.1800 
    117 C         -5.3461  -18.3374  -52.2389 C.2       21 UNK         0.5000 
    118 O         -5.7717  -18.4588  -53.3908 O.2       21 UNK        -0.5000 
    119 N         -5.0474  -17.1654  -51.6736 N.am      22 UNK        -0.5000 
    120 CA        -5.1778  -15.8615  -52.3383 C.3       22 UNK         0.1400 
    121 C         -6.6562  -15.3897  -52.4089 C.2       22 UNK         0.5000 
    122 N         -7.0442  -14.7030  -53.4749 N.am      22 UNK        -0.7600 
    123 O         -7.4437  -15.6038  -51.4895 O.2       22 UNK        -0.5000 
    124 C124       -4.2930  -14.7890  -51.6549 C.3       23 UNK        -0.0398 
    125 S125       -2.5078  -15.1699  -51.7542 S.3       23 UNK        -0.2404 
    126 C126       -2.2261  -15.9179  -50.1220 C.3       23 UNK        -0.0205 
    127 H127        7.6890  -12.5055  -51.2575 H         1 UNK         0.0600 
    128 H128        8.2360  -11.0045  -50.5023 H         1 UNK         0.0600 
    129 H129        6.6148  -11.1055  -51.1948 H         1 UNK         0.0600 
    130 H130        5.0445  -11.2939  -49.6261 H         1 UNK         0.3000 
    131 H131        5.1242  -13.2403  -47.5249 H         1 UNK         0.0600 
    132 H132        3.1815  -10.9251  -48.0297 H         1 UNK         0.0800 
    133 H133        2.9431  -12.1523  -46.8205 H         1 UNK         0.0800 
    134 H134        1.5222  -14.1274  -47.1845 H         1 UNK         0.0800 
    135 H135        3.0268  -14.9113  -47.6116 H         1 UNK         0.0800 
    136 H136       -0.4689  -14.3143  -48.8001 H         1 UNK         0.1150 
    137 H137       -0.7186  -18.0775  -50.8394 H         1 UNK         0.1150 
    138 H138        2.9739  -16.8559  -49.0327 H         1 UNK         0.1150 
    139 H139        1.3750  -19.2703  -51.3575 H         1 UNK         0.0800 
    140 H140        2.8961  -18.6754  -50.7509 H         1 UNK         0.0800 
    141 H141       -0.0892  -20.8975  -50.3076 H         1 UNK         0.0800 
    142 H142       -0.5051  -20.0348  -48.8471 H         1 UNK         0.0800 
    143 H143        0.8124  -22.8009  -48.8242 H         1 UNK         0.0600 
    144 H144        0.2242  -21.0456  -46.7029 H         1 UNK         0.3000 
    145 H145       -0.2875  -23.4863  -44.1179 H         1 UNK         0.0600 
    146 H146        1.4610  -22.0302  -43.1142 H         1 UNK         0.0600 
    147 H147        2.1518  -23.1039  -44.3209 H         1 UNK         0.0600 
    148 H148        1.8903  -21.4105  -44.7077 H         1 UNK         0.0600 
    149 H149       -0.4426  -20.6147  -44.2073 H         1 UNK         0.3000 
    150 H150       -3.9674  -20.4170  -44.7382 H         1 UNK         0.0600 
    151 H151       -3.6831  -20.9067  -42.3033 H         1 UNK         0.0600 
    152 H152       -3.8106  -19.1789  -42.5955 H         1 UNK         0.0600 
    153 H153       -2.2387  -19.9019  -42.2570 H         1 UNK         0.0600 
    154 H154       -1.9157  -18.4692  -44.2389 H         1 UNK         0.3000 
    155 H155       -1.0478  -17.8618  -47.6331 H         1 UNK         0.0600 
    156 H156       -2.7166  -16.2537  -45.6172 H         1 UNK         0.0600 
    157 H157       -3.1899  -16.6173  -47.2717 H         1 UNK         0.0600 
    158 H158       -1.8097  -15.5725  -46.9600 H         1 UNK         0.0600 
    159 H159       -0.2229  -16.5228  -45.3129 H         1 UNK         0.3000 
    160 H160        2.0984  -18.7728  -43.9551 H         1 UNK         0.0600 
    161 H161        2.9657  -16.5751  -45.9078 H         1 UNK         0.0600 
    162 H162        3.4498  -18.2623  -46.0062 H         1 UNK         0.0600 
    163 H163        3.9608  -17.2873  -44.6372 H         1 UNK         0.0600 
    164 H164        2.0029  -15.9523  -43.7284 H         1 UNK         0.3000 
    165 H165       -0.9094  -15.4700  -41.9027 H         1 UNK         0.0600 
    166 H166        0.5195  -14.6420  -40.0502 H         1 UNK         0.0600 
    167 H167        0.4745  -16.3974  -40.0361 H         1 UNK         0.0600 
    168 H168        1.8937  -15.5651  -40.6601 H         1 UNK         0.0600 
    169 H169        1.2844  -13.7395  -42.2572 H         1 UNK         0.3000 
    170 H170        1.7256  -13.0042  -45.0344 H         1 UNK         0.0600 
    171 H171       -0.2966  -12.6693  -46.4187 H         1 UNK         0.0600 
    172 H172       -1.0228  -11.6615  -45.1776 H         1 UNK         0.0600 
    173 H173        0.4232  -11.1175  -46.0268 H         1 UNK         0.0600 
    174 H174        2.2533  -11.4941  -43.5180 H         1 UNK         0.3000 
    175 H175        0.5826   -9.2053  -41.5333 H         1 UNK         0.0600 
    176 H176        2.2208  -11.5670  -40.4578 H         1 UNK         0.0600 
    177 H177        1.9968  -10.0118  -39.6582 H         1 UNK         0.0600 
    178 H178        0.6269  -11.0877  -39.8847 H         1 UNK         0.0600 
    179 H179        3.3644   -9.9746  -41.9280 H         1 UNK         0.3000 
    180 H180        3.9119   -7.6894  -44.6234 H         1 UNK         0.0600 
    181 H181        4.9199   -7.9624  -41.7445 H         1 UNK         0.0600 
    182 H182        4.1638   -6.5380  -42.4417 H         1 UNK         0.0600 
    183 H183        5.7172   -7.0873  -43.0499 H         1 UNK         0.0600 
    184 H184        5.1369   -9.4358  -45.1121 H         1 UNK         0.3000 
    185 H185        7.1482  -10.9227  -44.4245 H         1 UNK         0.0600 
    186 H186        7.1792  -12.2934  -42.3562 H         1 UNK         0.0600 
    187 H187        5.8127  -13.2403  -42.9341 H         1 UNK         0.0600 
    188 H188        7.3611  -13.3071  -43.7761 H         1 UNK         0.0600 
    189 H189        5.3260  -12.9673  -45.3093 H         1 UNK         0.3000 
    190 H190       -2.3953  -21.5228  -47.7749 H         1 UNK         0.3000 
    191 H191       -3.9550  -22.9417  -49.6547 H         1 UNK         0.0600 
    192 H192       -4.6833  -21.9591  -46.8433 H         1 UNK         0.0600 
    193 H193       -5.8319  -22.4346  -48.0899 H         1 UNK         0.0600 
    194 H194       -4.8073  -21.0260  -48.3308 H         1 UNK         0.0600 
    195 H195       -3.0336  -23.8489  -46.2756 H         1 UNK         0.3000 
    196 H196       -4.4156  -26.2953  -46.1793 H         1 UNK         0.0600 
    197 H197       -2.8927  -26.7859  -44.2464 H         1 UNK         0.0600 
    198 H198       -3.5666  -25.1667  -44.1627 H         1 UNK         0.0600 
    199 H199       -1.8981  -25.4010  -44.6826 H         1 UNK         0.0600 
    200 H200       -1.0466  -25.6383  -47.2480 H         1 UNK         0.3000 
    201 H201       -0.2535  -28.3185  -47.6823 H         1 UNK         0.0600 
    202 H202        1.3411  -26.4328  -47.5629 H         1 UNK         0.0600 
    203 H203        0.6739  -25.7286  -49.0345 H         1 UNK         0.0600 
    204 H204        1.5301  -27.2655  -49.0982 H         1 UNK         0.0600 
    205 H205       -2.1806  -26.1555  -49.6820 H         1 UNK         0.3000 
    206 H206       -2.2352  -28.0251  -51.9869 H         1 UNK         0.0600 
    207 H207       -1.8787  -25.6077  -52.4159 H         1 UNK         0.0600 
    208 H208       -3.4270  -26.1149  -53.0716 H         1 UNK         0.0600 
    209 H209       -3.3660  -25.2188  -51.5550 H         1 UNK         0.0600 
    210 H210       -3.7511  -28.0051  -49.0904 H         1 UNK         0.3000 
    211 H211       -5.6439  -28.6799  -48.1859 H         1 UNK         0.0600 
    212 H212       -6.1176  -30.2072  -50.8012 H         1 UNK         0.0600 
    213 H213       -6.8281  -30.5751  -49.2350 H         1 UNK         0.0600 
    214 H214       -5.0991  -30.7610  -49.4726 H         1 UNK         0.0600 
    215 H215       -5.7303  -26.1565  -49.5023 H         1 UNK         0.3000 
    216 H216       -6.9726  -24.4679  -50.0864 H         1 UNK         0.0600 
    217 H217       -9.2857  -24.2828  -49.2676 H         1 UNK         0.0600 
    218 H218       -8.3007  -25.0856  -48.0574 H         1 UNK         0.0600 
    219 H219       -9.4036  -26.0243  -49.0640 H         1 UNK         0.0600 
    220 H220       -6.8104  -26.9589  -52.0215 H         1 UNK         0.3000 
    221 H221       -9.0216  -26.4200  -53.8744 H         1 UNK         0.0600 
    222 H222       -6.5552  -28.2174  -54.1482 H         1 UNK         0.0600 
    223 H223       -8.1199  -28.7307  -53.5172 H         1 UNK         0.0600 
    224 H224       -7.9696  -28.2206  -55.1924 H         1 UNK         0.0600 
    225 H225       -5.9075  -25.0963  -53.2634 H         1 UNK         0.3000 
    226 H226       -5.9808  -23.2602  -55.4412 H         1 UNK         0.0600 
    227 H227       -4.9708  -25.2637  -56.6420 H         1 UNK         0.0600 
    228 H228       -3.8184  -23.9552  -56.4982 H         1 UNK         0.0600 
    229 H229       -3.7051  -25.3424  -55.4211 H         1 UNK         0.0600 
    230 H230       -3.5244  -22.2355  -55.2906 H         1 UNK         0.3000 
    231 H231       -2.0029  -21.0661  -54.2665 H         1 UNK         0.0600 
    232 H232       -1.2292  -23.2879  -53.4555 H         1 UNK         0.0600 
    233 H233       -2.1916  -23.0921  -51.9917 H         1 UNK         0.0600 
    234 H234       -0.8386  -22.0170  -52.3084 H         1 UNK         0.0600 
    235 H235       -4.8921  -21.4540  -52.3674 H         1 UNK         0.3000 
    236 H236       -4.5272  -19.3277  -50.4937 H         1 UNK         0.0600 
    237 H237       -7.0041  -19.4710  -50.2863 H         1 UNK         0.0600 
    238 H238       -7.0988  -20.4425  -51.7508 H         1 UNK         0.0600 
    239 H239       -6.3104  -21.0864  -50.3151 H         1 UNK         0.0600 
    240 H240       -4.7486  -17.1435  -50.7116 H         1 UNK         0.3000 
    241 H241       -4.8208  -15.9773  -53.3641 H         1 UNK         0.0600 
    242 H242       -7.9975  -14.3778  -53.5274 H         1 UNK         0.3800 
    243 H243       -6.4149  -14.5089  -54.2390 H         1 UNK         0.3800 
    244 H244       -4.4367  -13.8212  -52.1387 H         1 UNK         0.0800 
    245 H245       -4.5887  -14.6474  -50.6140 H         1 UNK         0.0800 
    246 H246       -2.7696  -16.8603  -50.0496 H         1 UNK         0.0800 
    247 H247       -2.6350  -15.2622  -49.3521 H         1 UNK         0.0800 
@<TRIPOS>BOND
     1    1    2 1    
     2    1  127 1    
     3    1  128 1    
     4    1  129 1    
     5    2    3 2    
     6    2    4 am   BACKBONE|DICT|INTERRES
     7    4    5 1    
     8    4  130 1    
     9    5    6 1    
    10    5   65 1    
    11    5  131 1    
    12    6    7 1    
    13    6  132 1    
    14    6  133 1    
    15    7    8 1    
    16    8    9 1    
    17    8  134 1    
    18    8  135 1    
    19    9   10 ar   
    20    9   14 ar   
    21   10   11 ar   
    22   10  136 1    
    23   11   12 ar   
    24   11  126 1    
    25   12   13 ar   
    26   12  137 1    
    27   13   14 ar   
    28   13   15 1    
    29   14  138 1    
    30   15   16 1    
    31   15  139 1    
    32   15  140 1    
    33   16   17 1    
    34   17   18 1    
    35   17  141 1    
    36   17  142 1    
    37   18   19 1    
    38   18   67 1    
    39   18  143 1    
    40   19   20 am   BACKBONE|DICT|INTERRES
    41   19  144 1    
    42   20   21 2    
    43   20   22 1    
    44   22   23 1    
    45   22   24 1    
    46   22  145 1    
    47   23  146 1    
    48   23  147 1    
    49   23  148 1    
    50   24   25 am   BACKBONE|DICT|INTERRES
    51   24  149 1    
    52   25   26 2    
    53   25   27 1    
    54   27   28 1    
    55   27   29 1    
    56   27  150 1    
    57   28  151 1    
    58   28  152 1    
    59   28  153 1    
    60   29   30 am   BACKBONE|DICT|INTERRES
    61   29  154 1    
    62   30   31 2    
    63   30   32 1    
    64   32   33 1    
    65   32   34 1    
    66   32  155 1    
    67   33  156 1    
    68   33  157 1    
    69   33  158 1    
    70   34   35 am   BACKBONE|DICT|INTERRES
    71   34  159 1    
    72   35   36 2    
    73   35   37 1    
    74   37   38 1    
    75   37   39 1    
    76   37  160 1    
    77   38  161 1    
    78   38  162 1    
    79   38  163 1    
    80   39   40 am   BACKBONE|DICT|INTERRES
    81   39  164 1    
    82   40   41 2    
    83   40   42 1    
    84   42   43 1    
    85   42   44 1    
    86   42  165 1    
    87   43  166 1    
    88   43  167 1    
    89   43  168 1    
    90   44   45 am   BACKBONE|DICT|INTERRES
    91   44  169 1    
    92   45   46 2    
    93   45   47 1    
    94   47   48 1    
    95   47   49 1    
    96   47  170 1    
    97   48  171 1    
    98   48  172 1    
    99   48  173 1    
   100   49   50 am   BACKBONE|DICT|INTERRES
   101   49  174 1    
   102   50   51 2    
   103   50   52 1    
   104   52   53 1    
   105   52   54 1    
   106   52  175 1    
   107   53  176 1    
   108   53  177 1    
   109   53  178 1    
   110   54   55 am   BACKBONE|DICT|INTERRES
   111   54  179 1    
   112   55   56 2    
   113   55   57 1    
   114   57   58 1    
   115   57   59 1    
   116   57  180 1    
   117   58  181 1    
   118   58  182 1    
   119   58  183 1    
   120   59   60 am   BACKBONE|DICT|INTERRES
   121   59  184 1    
   122   60   61 2    
   123   60   62 1    
   124   62   63 1    
   125   62   64 1    
   126   62  185 1    
   127   63  186 1    
   128   63  187 1    
   129   63  188 1    
   130   64   65 am   BACKBONE|DICT|INTERRES
   131   64  189 1    
   132   65   66 2    
   133   67   68 2    
   134   67   69 am   BACKBONE|DICT|INTERRES
   135   69   70 1    
   136   69  190 1    
   137   70   71 1    
   138   70   72 1    
   139   70  191 1    
   140   71  192 1    
   141   71  193 1    
   142   71  194 1    
   143   72   73 2    
   144   72   74 am   BACKBONE|DICT|INTERRES
   145   74   75 1    
   146   74  195 1    
   147   75   76 1    
   148   75   77 1    
   149   75  196 1    
   150   76  197 1    
   151   76  198 1    
   152   76  199 1    
   153   77   78 2    
   154   77   79 am   BACKBONE|DICT|INTERRES
   155   79   80 1    
   156   79  200 1    
   157   80   81 1    
   158   80   82 1    
   159   80  201 1    
   160   81  202 1    
   161   81  203 1    
   162   81  204 1    
   163   82   83 2    
   164   82   84 am   BACKBONE|DICT|INTERRES
   165   84   85 1    
   166   84  205 1    
   167   85   86 1    
   168   85   87 1    
   169   85  206 1    
   170   86  207 1    
   171   86  208 1    
   172   86  209 1    
   173   87   88 2    
   174   87   89 am   BACKBONE|DICT|INTERRES
   175   89   90 1    
   176   89  210 1    
   177   90   91 1    
   178   90   92 1    
   179   90  211 1    
   180   91  212 1    
   181   91  213 1    
   182   91  214 1    
   183   92   93 2    
   184   92   94 am   BACKBONE|DICT|INTERRES
   185   94   95 1    
   186   94  215 1    
   187   95   96 1    
   188   95   97 1    
   189   95  216 1    
   190   96  217 1    
   191   96  218 1    
   192   96  219 1    
   193   97   98 2    
   194   97   99 am   BACKBONE|DICT|INTERRES
   195   99  100 1    
   196   99  220 1    
   197  100  101 1    
   198  100  102 1    
   199  100  221 1    
   200  101  222 1    
   201  101  223 1    
   202  101  224 1    
   203  102  103 2    
   204  102  104 am   BACKBONE|DICT|INTERRES
   205  104  105 1    
   206  104  225 1    
   207  105  106 1    
   208  105  107 1    
   209  105  226 1    
   210  106  227 1    
   211  106  228 1    
   212  106  229 1    
   213  107  108 2    
   214  107  109 am   BACKBONE|DICT|INTERRES
   215  109  110 1    
   216  109  230 1    
   217  110  111 1    
   218  110  112 1    
   219  110  231 1    
   220  111  232 1    
   221  111  233 1    
   222  111  234 1    
   223  112  113 2    
   224  112  114 am   BACKBONE|DICT|INTERRES
   225  114  115 1    
   226  114  235 1    
   227  115  116 1    
   228  115  117 1    
   229  115  236 1    
   230  116  237 1    
   231  116  238 1    
   232  116  239 1    
   233  117  118 2    
   234  117  119 am   BACKBONE|DICT|INTERRES
   235  119  120 1    
   236  119  240 1    
   237  120  121 1    
   238  120  124 1    
   239  120  241 1    
   240  121  122 am   BACKBONE|DICT|INTERRES
   241  121  123 2    
   242  122  242 1    
   243  122  243 1    
   244  124  125 1    
   245  124  244 1    
   246  124  245 1    
   247  125  126 1    
   248  126  246 1    
   249  126  247 1    
@<TRIPOS>SUBSTRUCTURE
     1 UNK         1 GROUP             0       ****    0 ROOT    
