@<TRIPOS>MOLECULE
3R540
247   249    1
SMALL
USER_CHARGES


@<TRIPOS>ATOM
      1 CA          5.3162  -10.1810  -51.5342 C.3       0 UNK        -0.1800 
      2 C           5.2088  -11.5166  -50.8117 C.2       0 UNK         0.5000 
      3 O           6.2260  -12.1648  -50.5658 O.2       0 UNK        -0.5000 
      4 N           3.9849  -11.9282  -50.4709 N.am      1 UNK        -0.5000 
      5 CA          3.6646  -13.1510  -49.7380 C.3       1 UNK         0.1400 
      6 C6          3.7705  -14.4204  -50.6249 C.3       23 UNK        -0.0398 
      7 S7          4.2208  -15.8963  -49.6511 S.3       23 UNK        -0.2404 
      8 C8          3.5236  -17.2338  -50.6711 C.3       23 UNK        -0.0205 
      9 C9          2.0023  -17.2183  -50.6818 C.ar      23 UNK        -0.0193 
     10 C10         1.3032  -16.9775  -51.8683 C.ar      23 UNK        -0.1150 
     11 C11        -0.0947  -16.9708  -51.8785 C.ar      23 UNK        -0.0193 
     12 C12        -0.7939  -17.2034  -50.6911 C.ar      23 UNK        -0.1150 
     13 C13        -0.1048  -17.4453  -49.5009 C.ar      23 UNK        -0.0193 
     14 C14         1.2922  -17.4539  -49.5024 C.ar      23 UNK        -0.1150 
     15 C15        -0.8658  -17.6714  -48.2057 C.3       23 UNK        -0.0205 
     16 S16        -1.6331  -19.3185  -48.1267 S.3       23 UNK        -0.2404 
     17 C17        -0.1990  -20.4232  -48.3765 C.3       23 UNK        -0.0398 
     18 CA         -0.1700  -21.7326  -47.5490 C.3       11 UNK         0.1400 
     19 N           0.3395  -21.5627  -46.1851 N.am      11 UNK        -0.5000 
     20 C           0.8244  -22.5821  -45.4590 C.2       10 UNK         0.5000 
     21 O           0.8824  -23.7407  -45.8714 O.2       10 UNK        -0.5000 
     22 CA          1.2841  -22.2807  -44.0233 C.3       10 UNK         0.1400 
     23 CB          2.6584  -21.5954  -44.0168 C.3       10 UNK        -0.1800 
     24 N           0.3151  -21.4803  -43.2776 N.am      10 UNK        -0.5000 
     25 C          -0.9272  -21.8864  -42.9778 C.2       9 UNK         0.5000 
     26 O          -1.3753  -22.9940  -43.2753 O.2       9 UNK        -0.5000 
     27 CA         -1.8346  -20.8734  -42.2575 C.3       9 UNK         0.1400 
     28 CB         -1.5359  -20.8491  -40.7512 C.3       9 UNK        -0.1800 
     29 N          -1.7163  -19.5221  -42.8053 N.am      9 UNK        -0.5000 
     30 C          -2.0461  -19.1807  -44.0587 C.2       8 UNK         0.5000 
     31 O          -2.5312  -19.9649  -44.8724 O.2       8 UNK        -0.5000 
     32 CA         -1.7290  -17.7378  -44.4923 C.3       8 UNK         0.1400 
     33 CB         -2.7702  -16.7487  -43.9499 C.3       8 UNK        -0.1800 
     34 N          -0.3848  -17.3151  -44.0953 N.am      8 UNK        -0.5000 
     35 C           0.7500  -17.9014  -44.5057 C.2       7 UNK         0.5000 
     36 O           0.7940  -18.8280  -45.3145 O.2       7 UNK        -0.5000 
     37 CA          2.0534  -17.3977  -43.8655 C.3       7 UNK         0.1400 
     38 CB          2.5571  -16.1253  -44.5662 C.3       7 UNK        -0.1800 
     39 N           1.8899  -17.1533  -42.4317 N.am      7 UNK        -0.5000 
     40 C           1.7208  -18.1225  -41.5195 C.2       6 UNK         0.5000 
     41 O           1.7274  -19.3230  -41.7891 O.2       6 UNK        -0.5000 
     42 CA          1.4544  -17.6742  -40.0706 C.3       6 UNK         0.1400 
     43 CB          2.7715  -17.3387  -39.3554 C.3       6 UNK        -0.1800 
     44 N           0.5548  -16.5227  -39.9964 N.am      6 UNK        -0.5000 
     45 C          -0.7315  -16.5380  -40.3742 C.2       5 UNK         0.5000 
     46 O          -1.3135  -17.5463  -40.7697 O.2       5 UNK        -0.5000 
     47 CA         -1.4799  -15.1916  -40.3551 C.3       5 UNK         0.1400 
     48 CB         -2.1792  -14.9844  -39.0037 C.3       5 UNK        -0.1800 
     49 N          -0.6157  -14.0417  -40.6356 N.am      5 UNK        -0.5000 
     50 C           0.0649  -13.8534  -41.7735 C.2       4 UNK         0.5000 
     51 O           0.0406  -14.6354  -42.7291 O.2       4 UNK        -0.5000 
     52 CA          0.9682  -12.6160  -41.8156 C.3       4 UNK         0.1400 
     53 CB          2.2467  -12.8458  -40.9894 C.3       4 UNK        -0.1800 
     54 N           1.3333  -12.3256  -43.1968 N.am      4 UNK        -0.5000 
     55 C           1.5908  -11.1082  -43.6859 C.2       3 UNK         0.5000 
     56 O           1.5407  -10.0812  -43.0069 O.2       3 UNK        -0.5000 
     57 CA          1.9920  -11.0027  -45.1707 C.3       3 UNK         0.1400 
     58 CB          3.4652  -10.5826  -45.3016 C.3       3 UNK        -0.1800 
     59 N           1.7963  -12.2304  -45.9449 N.am      3 UNK        -0.5000 
     60 C           0.6193  -12.6763  -46.4048 C.2       2 UNK         0.5000 
     61 O          -0.4618  -12.1649  -46.1098 O.2       2 UNK        -0.5000 
     62 CA          0.6789  -13.8806  -47.3736 C.3       2 UNK         0.1400 
     63 CB         -0.5803  -13.9836  -48.2603 C.3       2 UNK        -0.1800 
     64 N           1.9040  -13.8898  -48.1914 N.am      2 UNK        -0.5000 
     65 C           2.2731  -12.9708  -49.0978 C.2       1 UNK         0.5000 
     66 O           1.5810  -11.9981  -49.4147 O.2       1 UNK        -0.5000 
     67 C          -1.4860  -22.5365  -47.5857 C.2       11 UNK         0.5000 
     68 O          -1.6649  -23.3425  -48.4975 O.2       11 UNK        -0.5000 
     69 N          -2.3551  -22.3608  -46.5784 N.am      12 UNK        -0.5000 
     70 CA         -3.5718  -23.1540  -46.3979 C.3       12 UNK         0.1400 
     71 CB         -4.4193  -22.5699  -45.2583 C.3       12 UNK        -0.1800 
     72 C          -3.2782  -24.6428  -46.1504 C.2       12 UNK         0.5000 
     73 O          -3.9814  -25.4911  -46.6946 O.2       12 UNK        -0.5000 
     74 N          -2.2313  -24.9397  -45.3700 N.am      13 UNK        -0.5000 
     75 CA         -1.7492  -26.3001  -45.1406 C.3       13 UNK         0.1400 
     76 CB         -0.7716  -26.3069  -43.9552 C.3       13 UNK        -0.1800 
     77 C          -1.0996  -26.9132  -46.3959 C.2       13 UNK         0.5000 
     78 O          -1.3751  -28.0698  -46.7167 O.2       13 UNK        -0.5000 
     79 N          -0.2478  -26.1342  -47.0761 N.am      14 UNK        -0.5000 
     80 CA          0.5339  -26.5777  -48.2296 C.3       14 UNK         0.1400 
     81 CB          1.6974  -25.6013  -48.4629 C.3       14 UNK        -0.1800 
     82 C          -0.2949  -26.7437  -49.5156 C.2       14 UNK         0.5000 
     83 O          -0.1745  -27.7729  -50.1815 O.2       14 UNK        -0.5000 
     84 N          -1.0921  -25.7244  -49.8606 N.am      15 UNK        -0.5000 
     85 CA         -1.8023  -25.6275  -51.1389 C.3       15 UNK         0.1400 
     86 CB         -1.6838  -24.1858  -51.6624 C.3       15 UNK        -0.1800 
     87 C          -3.2808  -26.0419  -51.0447 C.2       15 UNK         0.5000 
     88 O          -3.9606  -26.0478  -52.0719 O.2       15 UNK        -0.5000 
     89 N          -3.7676  -26.3453  -49.8319 N.am      16 UNK        -0.5000 
     90 CA         -5.1357  -26.7359  -49.4560 C.3       16 UNK         0.1400 
     91 CB         -5.5946  -28.0034  -50.2033 C.3       16 UNK        -0.1800 
     92 C          -6.1730  -25.6020  -49.5872 C.2       16 UNK         0.5000 
     93 O          -6.9486  -25.3756  -48.6583 O.2       16 UNK        -0.5000 
     94 N          -6.1681  -24.9084  -50.7303 N.am      17 UNK        -0.5000 
     95 CA         -7.0794  -23.8146  -51.0678 C.3       17 UNK         0.1400 
     96 CB         -7.3568  -23.8687  -52.5788 C.3       17 UNK        -0.1800 
     97 C          -6.5431  -22.4289  -50.6532 C.2       17 UNK         0.5000 
     98 O          -7.2552  -21.4388  -50.8229 O.2       17 UNK        -0.5000 
     99 N          -5.3076  -22.3671  -50.1322 N.am      18 UNK        -0.5000 
    100 CA        -4.5865  -21.1516  -49.7370 C.3       18 UNK         0.1400 
    101 CB        -5.2747  -20.4805  -48.5242 C.3       18 UNK        -0.1800 
    102 C         -4.3813  -20.2107  -50.9441 C.2       18 UNK         0.5000 
    103 O         -3.9458  -20.6743  -51.9985 O.2       18 UNK        -0.5000 
    104 N         -4.7280  -18.9243  -50.8011 N.am      19 UNK        -0.5000 
    105 CA        -4.6274  -17.9042  -51.8485 C.3       19 UNK         0.1400 
    106 CB        -4.9337  -16.5280  -51.2408 C.3       19 UNK        -0.1800 
    107 C         -5.5109  -18.1650  -53.0865 C.2       19 UNK         0.5000 
    108 O         -5.2141  -17.6324  -54.1568 O.2       19 UNK        -0.5000 
    109 N         -6.5462  -19.0079  -52.9564 N.am      20 UNK        -0.5000 
    110 CA        -7.3691  -19.4541  -54.0831 C.3       20 UNK         0.1400 
    111 CB        -8.6951  -20.0322  -53.5689 C.3       20 UNK        -0.1800 
    112 C         -6.6381  -20.4458  -55.0136 C.2       20 UNK         0.5000 
    113 O         -7.0753  -20.6193  -56.1517 O.2       20 UNK        -0.5000 
    114 N         -5.5285  -21.0476  -54.5512 N.am      21 UNK        -0.5000 
    115 CA        -4.6063  -21.8039  -55.4027 C.3       21 UNK         0.1400 
    116 CB        -3.7160  -22.7133  -54.5416 C.3       21 UNK        -0.1800 
    117 C         -3.7358  -20.8695  -56.2658 C.2       21 UNK         0.5000 
    118 O         -3.3898  -21.2345  -57.3902 O.2       21 UNK        -0.5000 
    119 N         -3.4067  -19.6847  -55.7316 N.am      22 UNK        -0.5000 
    120 CA        -2.6950  -18.6132  -56.4446 C.3       22 UNK         0.1400 
    121 C         -3.5987  -17.9215  -57.5005 C.2       22 UNK         0.5000 
    122 N         -4.8215  -17.5486  -57.1400 N.am      22 UNK        -0.7600 
    123 O         -3.1913  -17.7219  -58.6414 O.2       22 UNK        -0.5000 
    124 C124       -2.0984  -17.5441  -55.4920 C.3       23 UNK        -0.0398 
    125 S125       -1.1027  -18.2235  -54.1257 S.3       23 UNK        -0.2404 
    126 C126       -0.8484  -16.6984  -53.1682 C.3       23 UNK        -0.0205 
    127 H127        4.3386   -9.7223  -51.6850 H         1 UNK         0.0600 
    128 H128        5.9304   -9.4901  -50.9567 H         1 UNK         0.0600 
    129 H129        5.7812  -10.3186  -52.5103 H         1 UNK         0.0600 
    130 H130        3.1744  -11.3444  -50.6435 H         1 UNK         0.3000 
    131 H131        4.3807  -13.2214  -48.9161 H         1 UNK         0.0600 
    132 H132        4.5506  -14.2999  -51.3773 H         1 UNK         0.0800 
    133 H133        2.8483  -14.5878  -51.1833 H         1 UNK         0.0800 
    134 H134        3.8636  -18.1920  -50.2758 H         1 UNK         0.0800 
    135 H135        3.9243  -17.1602  -51.6833 H         1 UNK         0.0800 
    136 H136        1.8445  -16.7976  -52.7866 H         1 UNK         0.1150 
    137 H137       -1.8739  -17.1966  -50.6879 H         1 UNK         0.1150 
    138 H138        1.8313  -17.6375  -48.5834 H         1 UNK         0.1150 
    139 H139       -0.2024  -17.5363  -47.3527 H         1 UNK         0.0800 
    140 H140       -1.6466  -16.9164  -48.1070 H         1 UNK         0.0800 
    141 H141        0.7214  -19.8709  -48.1870 H         1 UNK         0.0800 
    142 H142       -0.1760  -20.6698  -49.4393 H         1 UNK         0.0800 
    143 H143        0.5640  -22.3627  -48.0562 H         1 UNK         0.0600 
    144 H144        0.3333  -20.6215  -45.7988 H         1 UNK         0.3000 
    145 H145        1.3867  -23.2365  -43.5051 H         1 UNK         0.0600 
    146 H146        3.0270  -21.4619  -42.9998 H         1 UNK         0.0600 
    147 H147        3.3951  -22.1951  -44.5527 H         1 UNK         0.0600 
    148 H148        2.6254  -20.6158  -44.4925 H         1 UNK         0.0600 
    149 H149        0.6272  -20.5695  -42.9577 H         1 UNK         0.3000 
    150 H150       -2.8681  -21.1984  -42.3933 H         1 UNK         0.0600 
    151 H151       -1.6275  -21.8459  -40.3181 H         1 UNK         0.0600 
    152 H152       -2.2332  -20.1991  -40.2224 H         1 UNK         0.0600 
    153 H153       -0.5261  -20.4920  -40.5464 H         1 UNK         0.0600 
    154 H154       -1.3738  -18.8036  -42.1726 H         1 UNK         0.3000 
    155 H155       -1.7803  -17.7028  -45.5795 H         1 UNK         0.0600 
    156 H156       -2.8183  -16.7675  -42.8621 H         1 UNK         0.0600 
    157 H157       -3.7654  -16.9923  -44.3236 H         1 UNK         0.0600 
    158 H158       -2.5456  -15.7277  -44.2596 H         1 UNK         0.0600 
    159 H159       -0.3193  -16.5336  -43.4522 H         1 UNK         0.3000 
    160 H160        2.8110  -18.1735  -43.9939 H         1 UNK         0.0600 
    161 H161        3.4981  -15.7840  -44.1346 H         1 UNK         0.0600 
    162 H162        1.8405  -15.3083  -44.4954 H         1 UNK         0.0600 
    163 H163        2.7352  -16.3124  -45.6260 H         1 UNK         0.0600 
    164 H164        1.8066  -16.1904  -42.1414 H         1 UNK         0.3000 
    165 H165        0.9823  -18.5074  -39.5457 H         1 UNK         0.0600 
    166 H166        2.5996  -17.0964  -38.3065 H         1 UNK         0.0600 
    167 H167        3.4573  -18.1866  -39.3837 H         1 UNK         0.0600 
    168 H168        3.2784  -16.4906  -39.8175 H         1 UNK         0.0600 
    169 H169        0.9507  -15.6524  -39.6746 H         1 UNK         0.3000 
    170 H170       -2.2450  -15.2274  -41.1324 H         1 UNK         0.0600 
    171 H171       -2.8483  -15.8162  -38.7792 H         1 UNK         0.0600 
    172 H172       -1.4619  -14.9099  -38.1855 H         1 UNK         0.0600 
    173 H173       -2.7824  -14.0763  -39.0064 H         1 UNK         0.0600 
    174 H174       -0.5334  -13.3559  -39.8987 H         1 UNK         0.3000 
    175 H175        0.4064  -11.7778  -41.3978 H         1 UNK         0.0600 
    176 H176        2.8285  -13.6843  -41.3746 H         1 UNK         0.0600 
    177 H177        2.8870  -11.9636  -41.0014 H         1 UNK         0.0600 
    178 H178        2.0128  -13.0579  -39.9456 H         1 UNK         0.0600 
    179 H179        1.3133  -13.1202  -43.8210 H         1 UNK         0.3000 
    180 H180        1.3761  -10.2171  -45.6138 H         1 UNK         0.0600 
    181 H181        4.1358  -11.3321  -44.8792 H         1 UNK         0.0600 
    182 H182        3.6540   -9.6430  -44.7805 H         1 UNK         0.0600 
    183 H183        3.7420  -10.4327  -46.3455 H         1 UNK         0.0600 
    184 H184        2.6339  -12.7159  -46.2291 H         1 UNK         0.3000 
    185 H185        0.7175  -14.7773  -46.7538 H         1 UNK         0.0600 
    186 H186       -1.4572  -14.2358  -47.6633 H         1 UNK         0.0600 
    187 H187       -0.7944  -13.0449  -48.7721 H         1 UNK         0.0600 
    188 H188       -0.4693  -14.7520  -49.0227 H         1 UNK         0.0600 
    189 H189        2.5323  -14.6650  -48.0273 H         1 UNK         0.3000 
    190 H190       -2.1792  -21.6317  -45.8928 H         1 UNK         0.3000 
    191 H191       -4.1499  -23.0906  -47.3210 H         1 UNK         0.0600 
    192 H192       -3.8883  -22.5974  -44.3069 H         1 UNK         0.0600 
    193 H193       -5.3461  -23.1312  -45.1345 H         1 UNK         0.0600 
    194 H194       -4.6915  -21.5336  -45.4572 H         1 UNK         0.0600 
    195 H195       -1.7318  -24.1882  -44.9058 H         1 UNK         0.3000 
    196 H196       -2.6050  -26.9228  -44.8710 H         1 UNK         0.0600 
    197 H197       -0.4120  -27.3161  -43.7512 H         1 UNK         0.0600 
    198 H198       -1.2528  -25.9425  -43.0474 H         1 UNK         0.0600 
    199 H199        0.0995  -25.6793  -44.1441 H         1 UNK         0.0600 
    200 H200       -0.0372  -25.2083  -46.7133 H         1 UNK         0.3000 
    201 H201        0.9653  -27.5517  -47.9886 H         1 UNK         0.0600 
    202 H202        2.3454  -25.5448  -47.5880 H         1 UNK         0.0600 
    203 H203        1.3410  -24.5940  -48.6796 H         1 UNK         0.0600 
    204 H204        2.3140  -25.9202  -49.3042 H         1 UNK         0.0600 
    205 H205       -1.1685  -24.9118  -49.2504 H         1 UNK         0.3000 
    206 H206       -1.3320  -26.2833  -51.8744 H         1 UNK         0.0600 
    207 H207       -0.6471  -23.8490  -51.6697 H         1 UNK         0.0600 
    208 H208       -2.0511  -24.1174  -52.6860 H         1 UNK         0.0600 
    209 H209       -2.2616  -23.4824  -51.0621 H         1 UNK         0.0600 
    210 H210       -3.1273  -26.2644  -49.0536 H         1 UNK         0.3000 
    211 H211       -5.0913  -27.0017  -48.4001 H         1 UNK         0.0600 
    212 H212       -5.7170  -27.8317  -51.2728 H         1 UNK         0.0600 
    213 H213       -6.5554  -28.3498  -49.8209 H         1 UNK         0.0600 
    214 H214       -4.8810  -28.8169  -50.0731 H         1 UNK         0.0600 
    215 H215       -5.4893  -25.1823  -51.4370 H         1 UNK         0.3000 
    216 H216       -8.0280  -23.9629  -50.5478 H         1 UNK         0.0600 
    217 H217       -8.1377  -23.1637  -52.8602 H         1 UNK         0.0600 
    218 H218       -7.6981  -24.8585  -52.8824 H         1 UNK         0.0600 
    219 H219       -6.4694  -23.6276  -53.1623 H         1 UNK         0.0600 
    220 H220       -4.7894  -23.2301  -50.0655 H         1 UNK         0.3000 
    221 H221       -3.5917  -21.4701  -49.4261 H         1 UNK         0.0600 
    222 H222       -6.2357  -20.0365  -48.7856 H         1 UNK         0.0600 
    223 H223       -5.4641  -21.2014  -47.7313 H         1 UNK         0.0600 
    224 H224       -4.6493  -19.6958  -48.0979 H         1 UNK         0.0600 
    225 H225       -5.0995  -18.6231  -49.9122 H         1 UNK         0.3000 
    226 H226       -3.5942  -17.8993  -52.1994 H         1 UNK         0.0600 
    227 H227       -5.9520  -16.4781  -50.8534 H         1 UNK         0.0600 
    228 H228       -4.2506  -16.2949  -50.4237 H         1 UNK         0.0600 
    229 H229       -4.8263  -15.7390  -51.9864 H         1 UNK         0.0600 
    230 H230       -6.7243  -19.4428  -52.0600 H         1 UNK         0.3000 
    231 H231       -7.6135  -18.5777  -54.6874 H         1 UNK         0.0600 
    232 H232       -9.2306  -19.3070  -52.9561 H         1 UNK         0.0600 
    233 H233       -8.5430  -20.9273  -52.9712 H         1 UNK         0.0600 
    234 H234       -9.3496  -20.3026  -54.3984 H         1 UNK         0.0600 
    235 H235       -5.2142  -20.8611  -53.6048 H         1 UNK         0.3000 
    236 H236       -5.1898  -22.4406  -56.0712 H         1 UNK         0.0600 
    237 H237       -3.1157  -23.3715  -55.1706 H         1 UNK         0.0600 
    238 H238       -3.0236  -22.1367  -53.9281 H         1 UNK         0.0600 
    239 H239       -4.3029  -23.3474  -53.8788 H         1 UNK         0.0600 
    240 H240       -3.7382  -19.4570  -54.8064 H         1 UNK         0.3000 
    241 H241       -1.8611  -19.0731  -56.9787 H         1 UNK         0.0600 
    242 H242       -5.4258  -17.1003  -57.8101 H         1 UNK         0.3800 
    243 H243       -5.1221  -17.6549  -56.1770 H         1 UNK         0.3800 
    244 H244       -1.4659  -16.8575  -56.0575 H         1 UNK         0.0800 
    245 H245       -2.8902  -16.9322  -55.0582 H         1 UNK         0.0800 
    246 H246       -0.2979  -15.9774  -53.7746 H         1 UNK         0.0800 
    247 H247       -1.8128  -16.2394  -52.9450 H         1 UNK         0.0800 
@<TRIPOS>BOND
     1    1    2 1    
     2    1  127 1    
     3    1  128 1    
     4    1  129 1    
     5    2    3 2    
     6    2    4 am   BACKBONE|DICT|INTERRES
     7    4    5 1    
     8    4  130 1    
     9    5    6 1    
    10    5   65 1    
    11    5  131 1    
    12    6    7 1    
    13    6  132 1    
    14    6  133 1    
    15    7    8 1    
    16    8    9 1    
    17    8  134 1    
    18    8  135 1    
    19    9   10 ar   
    20    9   14 ar   
    21   10   11 ar   
    22   10  136 1    
    23   11   12 ar   
    24   11  126 1    
    25   12   13 ar   
    26   12  137 1    
    27   13   14 ar   
    28   13   15 1    
    29   14  138 1    
    30   15   16 1    
    31   15  139 1    
    32   15  140 1    
    33   16   17 1    
    34   17   18 1    
    35   17  141 1    
    36   17  142 1    
    37   18   19 1    
    38   18   67 1    
    39   18  143 1    
    40   19   20 am   BACKBONE|DICT|INTERRES
    41   19  144 1    
    42   20   21 2    
    43   20   22 1    
    44   22   23 1    
    45   22   24 1    
    46   22  145 1    
    47   23  146 1    
    48   23  147 1    
    49   23  148 1    
    50   24   25 am   BACKBONE|DICT|INTERRES
    51   24  149 1    
    52   25   26 2    
    53   25   27 1    
    54   27   28 1    
    55   27   29 1    
    56   27  150 1    
    57   28  151 1    
    58   28  152 1    
    59   28  153 1    
    60   29   30 am   BACKBONE|DICT|INTERRES
    61   29  154 1    
    62   30   31 2    
    63   30   32 1    
    64   32   33 1    
    65   32   34 1    
    66   32  155 1    
    67   33  156 1    
    68   33  157 1    
    69   33  158 1    
    70   34   35 am   BACKBONE|DICT|INTERRES
    71   34  159 1    
    72   35   36 2    
    73   35   37 1    
    74   37   38 1    
    75   37   39 1    
    76   37  160 1    
    77   38  161 1    
    78   38  162 1    
    79   38  163 1    
    80   39   40 am   BACKBONE|DICT|INTERRES
    81   39  164 1    
    82   40   41 2    
    83   40   42 1    
    84   42   43 1    
    85   42   44 1    
    86   42  165 1    
    87   43  166 1    
    88   43  167 1    
    89   43  168 1    
    90   44   45 am   BACKBONE|DICT|INTERRES
    91   44  169 1    
    92   45   46 2    
    93   45   47 1    
    94   47   48 1    
    95   47   49 1    
    96   47  170 1    
    97   48  171 1    
    98   48  172 1    
    99   48  173 1    
   100   49   50 am   BACKBONE|DICT|INTERRES
   101   49  174 1    
   102   50   51 2    
   103   50   52 1    
   104   52   53 1    
   105   52   54 1    
   106   52  175 1    
   107   53  176 1    
   108   53  177 1    
   109   53  178 1    
   110   54   55 am   BACKBONE|DICT|INTERRES
   111   54  179 1    
   112   55   56 2    
   113   55   57 1    
   114   57   58 1    
   115   57   59 1    
   116   57  180 1    
   117   58  181 1    
   118   58  182 1    
   119   58  183 1    
   120   59   60 am   BACKBONE|DICT|INTERRES
   121   59  184 1    
   122   60   61 2    
   123   60   62 1    
   124   62   63 1    
   125   62   64 1    
   126   62  185 1    
   127   63  186 1    
   128   63  187 1    
   129   63  188 1    
   130   64   65 am   BACKBONE|DICT|INTERRES
   131   64  189 1    
   132   65   66 2    
   133   67   68 2    
   134   67   69 am   BACKBONE|DICT|INTERRES
   135   69   70 1    
   136   69  190 1    
   137   70   71 1    
   138   70   72 1    
   139   70  191 1    
   140   71  192 1    
   141   71  193 1    
   142   71  194 1    
   143   72   73 2    
   144   72   74 am   BACKBONE|DICT|INTERRES
   145   74   75 1    
   146   74  195 1    
   147   75   76 1    
   148   75   77 1    
   149   75  196 1    
   150   76  197 1    
   151   76  198 1    
   152   76  199 1    
   153   77   78 2    
   154   77   79 am   BACKBONE|DICT|INTERRES
   155   79   80 1    
   156   79  200 1    
   157   80   81 1    
   158   80   82 1    
   159   80  201 1    
   160   81  202 1    
   161   81  203 1    
   162   81  204 1    
   163   82   83 2    
   164   82   84 am   BACKBONE|DICT|INTERRES
   165   84   85 1    
   166   84  205 1    
   167   85   86 1    
   168   85   87 1    
   169   85  206 1    
   170   86  207 1    
   171   86  208 1    
   172   86  209 1    
   173   87   88 2    
   174   87   89 am   BACKBONE|DICT|INTERRES
   175   89   90 1    
   176   89  210 1    
   177   90   91 1    
   178   90   92 1    
   179   90  211 1    
   180   91  212 1    
   181   91  213 1    
   182   91  214 1    
   183   92   93 2    
   184   92   94 am   BACKBONE|DICT|INTERRES
   185   94   95 1    
   186   94  215 1    
   187   95   96 1    
   188   95   97 1    
   189   95  216 1    
   190   96  217 1    
   191   96  218 1    
   192   96  219 1    
   193   97   98 2    
   194   97   99 am   BACKBONE|DICT|INTERRES
   195   99  100 1    
   196   99  220 1    
   197  100  101 1    
   198  100  102 1    
   199  100  221 1    
   200  101  222 1    
   201  101  223 1    
   202  101  224 1    
   203  102  103 2    
   204  102  104 am   BACKBONE|DICT|INTERRES
   205  104  105 1    
   206  104  225 1    
   207  105  106 1    
   208  105  107 1    
   209  105  226 1    
   210  106  227 1    
   211  106  228 1    
   212  106  229 1    
   213  107  108 2    
   214  107  109 am   BACKBONE|DICT|INTERRES
   215  109  110 1    
   216  109  230 1    
   217  110  111 1    
   218  110  112 1    
   219  110  231 1    
   220  111  232 1    
   221  111  233 1    
   222  111  234 1    
   223  112  113 2    
   224  112  114 am   BACKBONE|DICT|INTERRES
   225  114  115 1    
   226  114  235 1    
   227  115  116 1    
   228  115  117 1    
   229  115  236 1    
   230  116  237 1    
   231  116  238 1    
   232  116  239 1    
   233  117  118 2    
   234  117  119 am   BACKBONE|DICT|INTERRES
   235  119  120 1    
   236  119  240 1    
   237  120  121 1    
   238  120  124 1    
   239  120  241 1    
   240  121  122 am   BACKBONE|DICT|INTERRES
   241  121  123 2    
   242  122  242 1    
   243  122  243 1    
   244  124  125 1    
   245  124  244 1    
   246  124  245 1    
   247  125  126 1    
   248  126  246 1    
   249  126  247 1    
@<TRIPOS>SUBSTRUCTURE
     1 UNK         1 GROUP             0       ****    0 ROOT    
