@<TRIPOS>MOLECULE
3R540
247   249    1
SMALL
USER_CHARGES


@<TRIPOS>ATOM
      1 CA         -1.0682  -18.5881  -43.0348 C.3       0 UNK        -0.1800 
      2 C          -1.7886  -18.0886  -44.2766 C.2       0 UNK         0.5000 
      3 O          -3.0028  -18.2445  -44.3945 O.2       0 UNK        -0.5000 
      4 N          -1.0294  -17.5016  -45.2059 N.am      1 UNK        -0.5000 
      5 CA         -1.5229  -16.9130  -46.4487 C.3       1 UNK         0.1400 
      6 C6         -0.3598  -16.7507  -47.4465 C.3       23 UNK        -0.0398 
      7 S7         -0.7840  -16.0136  -49.0629 S.3       23 UNK        -0.2404 
      8 C8          0.8416  -15.9387  -49.8895 C.3       23 UNK        -0.0205 
      9 C9          1.6232  -17.2346  -49.7327 C.ar      23 UNK        -0.0193 
     10 C10         1.3754  -18.3247  -50.5715 C.ar      23 UNK        -0.1150 
     11 C11         2.0410  -19.5382  -50.3690 C.ar      23 UNK        -0.0193 
     12 C12         2.9624  -19.6511  -49.3239 C.ar      23 UNK        -0.1150 
     13 C13         3.1876  -18.5789  -48.4559 C.ar      23 UNK        -0.0193 
     14 C14         2.5432  -17.3634  -48.6891 C.ar      23 UNK        -0.1150 
     15 C15         4.0760  -18.7350  -47.2293 C.3       23 UNK        -0.0205 
     16 S16         3.6278  -20.1685  -46.1899 S.3       23 UNK        -0.2404 
     17 C17         1.8100  -20.0307  -45.9898 C.3       23 UNK        -0.0398 
     18 CA          1.0209  -21.1385  -46.7384 C.3       11 UNK         0.1400 
     19 N           1.5704  -22.4743  -46.4923 N.am      11 UNK        -0.5000 
     20 C           1.2835  -23.5675  -47.2116 C.2       10 UNK         0.5000 
     21 O           0.5107  -23.5717  -48.1699 O.2       10 UNK        -0.5000 
     22 CA          1.9512  -24.8855  -46.7706 C.3       10 UNK         0.1400 
     23 CB          3.2640  -25.0951  -47.5397 C.3       10 UNK        -0.1800 
     24 N           2.2230  -24.9741  -45.3327 N.am      10 UNK        -0.5000 
     25 C           1.3166  -24.8636  -44.3512 C.2       9 UNK         0.5000 
     26 O           0.1177  -24.6626  -44.5523 O.2       9 UNK        -0.5000 
     27 CA          1.8285  -24.9308  -42.8954 C.3       9 UNK         0.1400 
     28 CB          3.3328  -25.2618  -42.7688 C.3       9 UNK        -0.1800 
     29 N           1.5222  -23.7037  -42.1496 N.am      9 UNK        -0.5000 
     30 C           1.8416  -22.4502  -42.5044 C.2       8 UNK         0.5000 
     31 O           2.4043  -22.1679  -43.5649 O.2       8 UNK        -0.5000 
     32 CA          1.4174  -21.3200  -41.5397 C.3       8 UNK         0.1400 
     33 CB          1.5491  -21.7027  -40.0490 C.3       8 UNK        -0.1800 
     34 N           2.1107  -20.0575  -41.8294 N.am      8 UNK        -0.5000 
     35 C           3.4243  -19.8009  -41.7177 C.2       7 UNK         0.5000 
     36 O           4.2375  -20.5769  -41.2135 O.2       7 UNK        -0.5000 
     37 CA          3.9031  -18.4490  -42.2884 C.3       7 UNK         0.1400 
     38 CB          5.3801  -18.4994  -42.7234 C.3       7 UNK        -0.1800 
     39 N           3.0899  -18.0786  -43.4507 N.am      7 UNK        -0.5000 
     40 C           2.3759  -16.9686  -43.6736 C.2       6 UNK         0.5000 
     41 O           1.6952  -16.8628  -44.6962 O.2       6 UNK        -0.5000 
     42 CA          2.3784  -15.8073  -42.6580 C.3       6 UNK         0.1400 
     43 CB          3.7102  -15.0313  -42.7004 C.3       6 UNK        -0.1800 
     44 N           1.2914  -14.9011  -43.0129 N.am      6 UNK        -0.5000 
     45 C           0.7584  -13.9377  -42.2523 C.2       5 UNK         0.5000 
     46 O           1.0619  -13.7552  -41.0719 O.2       5 UNK        -0.5000 
     47 CA         -0.2725  -13.0192  -42.9494 C.3       5 UNK         0.1400 
     48 CB         -0.4843  -11.6743  -42.2234 C.3       5 UNK        -0.1800 
     49 N           0.0378  -12.8167  -44.3718 N.am      5 UNK        -0.5000 
     50 C           1.1407  -12.2480  -44.8848 C.2       4 UNK         0.5000 
     51 O           1.9893  -11.6604  -44.2135 O.2       4 UNK        -0.5000 
     52 CA          1.3722  -12.4036  -46.3971 C.3       4 UNK         0.1400 
     53 CB          2.2697  -13.6236  -46.6612 C.3       4 UNK        -0.1800 
     54 N           0.1329  -12.5450  -47.1660 N.am      4 UNK        -0.5000 
     55 C          -0.5207  -11.5134  -47.7186 C.2       3 UNK         0.5000 
     56 O          -0.2008  -10.3347  -47.5590 O.2       3 UNK        -0.5000 
     57 CA         -1.7170  -11.8524  -48.6262 C.3       3 UNK         0.1400 
     58 CB         -1.2344  -12.2025  -50.0426 C.3       3 UNK        -0.1800 
     59 N          -2.5236  -12.9550  -48.1071 N.am      3 UNK        -0.5000 
     60 C          -3.4217  -12.8299  -47.1204 C.2       2 UNK         0.5000 
     61 O          -3.6766  -11.7651  -46.5569 O.2       2 UNK        -0.5000 
     62 CA         -4.1550  -14.1122  -46.6822 C.3       2 UNK         0.1400 
     63 CB         -5.4633  -14.2826  -47.4693 C.3       2 UNK        -0.1800 
     64 N          -3.3495  -15.3245  -46.8321 N.am      2 UNK        -0.5000 
     65 C          -2.2259  -15.5786  -46.1513 C.2       1 UNK         0.5000 
     66 O          -1.7172  -14.7937  -45.3489 O.2       1 UNK        -0.5000 
     67 C          -0.4804  -21.0795  -46.3846 C.2       11 UNK         0.5000 
     68 O          -1.2415  -20.3849  -47.0579 O.2       11 UNK        -0.5000 
     69 N          -0.8774  -21.8305  -45.3464 N.am      12 UNK        -0.5000 
     70 CA         -2.2638  -21.9803  -44.9122 C.3       12 UNK         0.1400 
     71 CB         -2.2981  -22.3036  -43.4108 C.3       12 UNK        -0.1800 
     72 C          -2.9929  -23.0660  -45.7207 C.2       12 UNK         0.5000 
     73 O          -4.1351  -22.8479  -46.1264 O.2       12 UNK        -0.5000 
     74 N          -2.3139  -24.1977  -45.9701 N.am      13 UNK        -0.5000 
     75 CA         -2.8334  -25.3843  -46.6655 C.3       13 UNK         0.1400 
     76 CB         -1.7921  -26.5098  -46.5963 C.3       13 UNK        -0.1800 
     77 C          -3.2643  -25.1457  -48.1271 C.2       13 UNK         0.5000 
     78 O          -4.0499  -25.9271  -48.6624 O.2       13 UNK        -0.5000 
     79 N          -2.7978  -24.0424  -48.7251 N.am      14 UNK        -0.5000 
     80 CA         -3.2290  -23.4979  -50.0162 C.3       14 UNK         0.1400 
     81 CB         -2.1659  -22.4727  -50.4534 C.3       14 UNK        -0.1800 
     82 C          -4.6463  -22.8649  -49.9926 C.2       14 UNK         0.5000 
     83 O          -5.0353  -22.2148  -50.9674 O.2       14 UNK        -0.5000 
     84 N          -5.3601  -23.0130  -48.8644 N.am      15 UNK        -0.5000 
     85 CA         -6.6112  -22.3613  -48.4647 C.3       15 UNK         0.1400 
     86 CB         -7.7578  -22.6693  -49.4454 C.3       15 UNK        -0.1800 
     87 C          -6.3725  -20.8576  -48.2604 C.2       15 UNK         0.5000 
     88 O          -7.0635  -20.0278  -48.8500 O.2       15 UNK        -0.5000 
     89 N          -5.3074  -20.5437  -47.5076 N.am      16 UNK        -0.5000 
     90 CA         -4.7202  -19.2098  -47.3210 C.3       16 UNK         0.1400 
     91 CB         -5.6703  -18.3107  -46.5045 C.3       16 UNK        -0.1800 
     92 C          -4.2752  -18.5489  -48.6483 C.2       16 UNK         0.5000 
     93 O          -4.2097  -17.3217  -48.7312 O.2       16 UNK        -0.5000 
     94 N          -4.0058  -19.3907  -49.6576 N.am      17 UNK        -0.5000 
     95 CA         -3.7306  -19.0877  -51.0636 C.3       17 UNK         0.1400 
     96 CB         -2.4675  -18.2244  -51.2227 C.3       17 UNK        -0.1800 
     97 C          -4.9389  -18.5223  -51.8369 C.2       17 UNK         0.5000 
     98 O          -4.7558  -18.0396  -52.9539 O.2       17 UNK        -0.5000 
     99 N          -6.1547  -18.6173  -51.2790 N.am      18 UNK        -0.5000 
    100 CA        -7.3808  -18.1694  -51.9400 C.3       18 UNK         0.1400 
    101 CB        -8.4828  -17.9473  -50.8930 C.3       18 UNK        -0.1800 
    102 C         -7.8571  -19.1511  -53.0261 C.2       18 UNK         0.5000 
    103 O         -8.4618  -18.7100  -54.0044 O.2       18 UNK        -0.5000 
    104 N         -7.5855  -20.4517  -52.8398 N.am      19 UNK        -0.5000 
    105 CA        -7.9865  -21.5077  -53.7693 C.3       19 UNK         0.1400 
    106 CB        -8.4908  -22.7351  -52.9919 C.3       19 UNK        -0.1800 
    107 C         -6.8307  -21.8951  -54.7006 C.2       19 UNK         0.5000 
    108 O         -6.9964  -21.8539  -55.9202 O.2       19 UNK        -0.5000 
    109 N         -5.6891  -22.2872  -54.1160 N.am      20 UNK        -0.5000 
    110 CA        -4.5687  -22.8681  -54.8607 C.3       20 UNK         0.1400 
    111 CB        -3.7665  -23.7804  -53.9218 C.3       20 UNK        -0.1800 
    112 C         -3.6451  -21.8239  -55.5127 C.2       20 UNK         0.5000 
    113 O         -2.8813  -22.1828  -56.4104 O.2       20 UNK        -0.5000 
    114 N         -3.6871  -20.5717  -55.0279 N.am      21 UNK        -0.5000 
    115 CA        -2.8887  -19.4179  -55.4787 C.3       21 UNK         0.1400 
    116 CB        -3.3343  -18.9843  -56.8903 C.3       21 UNK        -0.1800 
    117 C         -1.3579  -19.6221  -55.3844 C.2       21 UNK         0.5000 
    118 O         -0.6020  -18.9234  -56.0612 O.2       21 UNK        -0.5000 
    119 N         -0.9319  -20.5869  -54.5574 N.am      22 UNK        -0.5000 
    120 CA         0.4412  -21.1058  -54.4644 C.3       22 UNK         0.1400 
    121 C          0.9343  -21.8642  -55.7391 C.2       22 UNK         0.5000 
    122 N          0.0507  -22.3277  -56.6167 N.am      22 UNK        -0.7600 
    123 O          2.1306  -22.0629  -55.9317 O.2       22 UNK        -0.5000 
    124 C124        1.4465  -20.0425  -53.9308 C.3       23 UNK        -0.0398 
    125 S125        2.6643  -20.7655  -52.7797 S.3       23 UNK        -0.2404 
    126 C126        1.7202  -20.7534  -51.2243 C.3       23 UNK        -0.0205 
    127 H127       -0.4689  -17.7932  -42.5909 H         1 UNK         0.0600 
    128 H128       -1.7810  -18.9346  -42.2863 H         1 UNK         0.0600 
    129 H129       -0.4153  -19.4190  -43.2979 H         1 UNK         0.0600 
    130 H130       -0.0416  -17.3462  -45.0205 H         1 UNK         0.3000 
    131 H131       -2.2437  -17.6034  -46.8826 H         1 UNK         0.0600 
    132 H132        0.4455  -16.1683  -47.0020 H         1 UNK         0.0800 
    133 H133        0.0425  -17.7450  -47.6378 H         1 UNK         0.0800 
    134 H134        1.4109  -15.1014  -49.4844 H         1 UNK         0.0800 
    135 H135        0.6921  -15.7214  -50.9480 H         1 UNK         0.0800 
    136 H136        0.6412  -18.2340  -51.3581 H         1 UNK         0.1150 
    137 H137        3.4606  -20.5940  -49.1465 H         1 UNK         0.1150 
    138 H138        2.7111  -16.5312  -48.0197 H         1 UNK         0.1150 
    139 H139        5.1119  -18.8419  -47.5528 H         1 UNK         0.0800 
    140 H140        4.0371  -17.8385  -46.6082 H         1 UNK         0.0800 
    141 H141        1.5948  -20.0737  -44.9222 H         1 UNK         0.0800 
    142 H142        1.4818  -19.0447  -46.3176 H         1 UNK         0.0800 
    143 H143        1.0979  -20.9454  -47.8091 H         1 UNK         0.0600 
    144 H144        2.1953  -22.5540  -45.6976 H         1 UNK         0.3000 
    145 H145        1.2770  -25.7021  -47.0280 H         1 UNK         0.0600 
    146 H146        3.7063  -26.0648  -47.3108 H         1 UNK         0.0600 
    147 H147        3.0953  -25.0628  -48.6171 H         1 UNK         0.0600 
    148 H148        3.9977  -24.3245  -47.2993 H         1 UNK         0.0600 
    149 H149        3.1892  -25.1017  -45.0697 H         1 UNK         0.3000 
    150 H150        1.2699  -25.7361  -42.4166 H         1 UNK         0.0600 
    151 H151        3.5729  -26.2105  -43.2507 H         1 UNK         0.0600 
    152 H152        3.6203  -25.3571  -41.7217 H         1 UNK         0.0600 
    153 H153        3.9636  -24.4892  -43.2105 H         1 UNK         0.0600 
    154 H154        1.0195  -23.8402  -41.2845 H         1 UNK         0.3000 
    155 H155        0.3613  -21.1352  -41.7364 H         1 UNK         0.0600 
    156 H156        1.3381  -20.8492  -39.4045 H         1 UNK         0.0600 
    157 H157        2.5492  -22.0636  -39.8069 H         1 UNK         0.0600 
    158 H158        0.8429  -22.4871  -39.7761 H         1 UNK         0.0600 
    159 H159        1.5470  -19.3491  -42.2719 H         1 UNK         0.3000 
    160 H160        3.8074  -17.7252  -41.4799 H         1 UNK         0.0600 
    161 H161        5.5525  -19.2886  -43.4566 H         1 UNK         0.0600 
    162 H162        6.0353  -18.6904  -41.8727 H         1 UNK         0.0600 
    163 H163        5.6992  -17.5592  -43.1722 H         1 UNK         0.0600 
    164 H164        3.0826  -18.7843  -44.1741 H         1 UNK         0.3000 
    165 H165        2.1887  -16.1974  -41.6571 H         1 UNK         0.0600 
    166 H166        4.5519  -15.6524  -42.3993 H         1 UNK         0.0600 
    167 H167        3.9207  -14.6562  -43.7029 H         1 UNK         0.0600 
    168 H168        3.6952  -14.1758  -42.0251 H         1 UNK         0.0600 
    169 H169        0.9521  -15.0264  -43.9583 H         1 UNK         0.3000 
    170 H170       -1.2210  -13.5571  -42.9205 H         1 UNK         0.0600 
    171 H171       -0.8677  -11.8329  -41.2149 H         1 UNK         0.0600 
    172 H172        0.4431  -11.1085  -42.1327 H         1 UNK         0.0600 
    173 H173       -1.2075  -11.0522  -42.7507 H         1 UNK         0.0600 
    174 H174       -0.5914  -13.3079  -45.0011 H         1 UNK         0.3000 
    175 H175        1.9137  -11.5190  -46.7397 H         1 UNK         0.0600 
    176 H176        1.8275  -14.5421  -46.2785 H         1 UNK         0.0600 
    177 H177        2.4610  -13.7539  -47.7260 H         1 UNK         0.0600 
    178 H178        3.2374  -13.5059  -46.1718 H         1 UNK         0.0600 
    179 H179       -0.2084  -13.4800  -47.3284 H         1 UNK         0.3000 
    180 H180       -2.3454  -10.9618  -48.6979 H         1 UNK         0.0600 
    181 H181       -0.6623  -11.3798  -50.4733 H         1 UNK         0.0600 
    182 H182       -0.5927  -13.0840  -50.0469 H         1 UNK         0.0600 
    183 H183       -2.0750  -12.3967  -50.7090 H         1 UNK         0.0600 
    184 H184       -2.3804  -13.8666  -48.5185 H         1 UNK         0.3000 
    185 H185       -4.4027  -14.0041  -45.6242 H         1 UNK         0.0600 
    186 H186       -5.2746  -14.4384  -48.5323 H         1 UNK         0.0600 
    187 H187       -6.0355  -15.1356  -47.1042 H         1 UNK         0.0600 
    188 H188       -6.0976  -13.4006  -47.3721 H         1 UNK         0.0600 
    189 H189       -3.6777  -16.0018  -47.5185 H         1 UNK         0.3000 
    190 H190       -0.1980  -22.4364  -44.9050 H         1 UNK         0.3000 
    191 H191       -2.7931  -21.0372  -45.0636 H         1 UNK         0.0600 
    192 H192       -3.3245  -22.4279  -43.0633 H         1 UNK         0.0600 
    193 H193       -1.8556  -21.4997  -42.8245 H         1 UNK         0.0600 
    194 H194       -1.7598  -23.2232  -43.1788 H         1 UNK         0.0600 
    195 H195       -1.3892  -24.3003  -45.5580 H         1 UNK         0.3000 
    196 H196       -3.7209  -25.7113  -46.1203 H         1 UNK         0.0600 
    197 H197       -2.1915  -27.4371  -47.0089 H         1 UNK         0.0600 
    198 H198       -1.4928  -26.7149  -45.5684 H         1 UNK         0.0600 
    199 H199       -0.9000  -26.2578  -47.1672 H         1 UNK         0.0600 
    200 H200       -2.1192  -23.4929  -48.2159 H         1 UNK         0.3000 
    201 H201       -3.2509  -24.3099  -50.7454 H         1 UNK         0.0600 
    202 H202       -1.1821  -22.9373  -50.5259 H         1 UNK         0.0600 
    203 H203       -2.0867  -21.6471  -49.7447 H         1 UNK         0.0600 
    204 H204       -2.3862  -22.0471  -51.4304 H         1 UNK         0.0600 
    205 H205       -4.9128  -23.5308  -48.1194 H         1 UNK         0.3000 
    206 H206       -6.8820  -22.7756  -47.4925 H         1 UNK         0.0600 
    207 H207       -7.8308  -23.7365  -49.6540 H         1 UNK         0.0600 
    208 H208       -8.7149  -22.3476  -49.0338 H         1 UNK         0.0600 
    209 H209       -7.6237  -22.1455  -50.3893 H         1 UNK         0.0600 
    210 H210       -4.8159  -21.3101  -47.0545 H         1 UNK         0.3000 
    211 H211       -3.8150  -19.3628  -46.7339 H         1 UNK         0.0600 
    212 H212       -6.5567  -18.0314  -47.0749 H         1 UNK         0.0600 
    213 H213       -5.1726  -17.3906  -46.1993 H         1 UNK         0.0600 
    214 H214       -5.9986  -18.8110  -45.5936 H         1 UNK         0.0600 
    215 H215       -4.1246  -20.3724  -49.4584 H         1 UNK         0.3000 
    216 H216       -3.5188  -20.0461  -51.5344 H         1 UNK         0.0600 
    217 H217       -2.6587  -17.1885  -50.9440 H         1 UNK         0.0600 
    218 H218       -2.1193  -18.2231  -52.2560 H         1 UNK         0.0600 
    219 H219       -1.6530  -18.6000  -50.6036 H         1 UNK         0.0600 
    220 H220       -6.2637  -19.0416  -50.3628 H         1 UNK         0.3000 
    221 H221       -7.1832  -17.2087  -52.4209 H         1 UNK         0.0600 
    222 H222       -8.8040  -18.8848  -50.4383 H         1 UNK         0.0600 
    223 H223       -8.1452  -17.2845  -50.0959 H         1 UNK         0.0600 
    224 H224       -9.3622  -17.4901  -51.3478 H         1 UNK         0.0600 
    225 H225       -7.0634  -20.7266  -52.0197 H         1 UNK         0.3000 
    226 H226       -8.8148  -21.1624  -54.3919 H         1 UNK         0.0600 
    227 H227       -9.2952  -22.4662  -52.3071 H         1 UNK         0.0600 
    228 H228       -8.8864  -23.4873  -53.6755 H         1 UNK         0.0600 
    229 H229       -7.6985  -23.2119  -52.4143 H         1 UNK         0.0600 
    230 H230       -5.6175  -22.2922  -53.1052 H         1 UNK         0.3000 
    231 H231       -4.9652  -23.4923  -55.6647 H         1 UNK         0.0600 
    232 H232       -3.3223  -23.2181  -53.1040 H         1 UNK         0.0600 
    233 H233       -4.3976  -24.5579  -53.4908 H         1 UNK         0.0600 
    234 H234       -2.9561  -24.2787  -54.4556 H         1 UNK         0.0600 
    235 H235       -4.3576  -20.3768  -54.2982 H         1 UNK         0.3000 
    236 H236       -3.1127  -18.5956  -54.8013 H         1 UNK         0.0600 
    237 H237       -4.4120  -18.8255  -56.9305 H         1 UNK         0.0600 
    238 H238       -2.8599  -18.0469  -57.1828 H         1 UNK         0.0600 
    239 H239       -3.0765  -19.7302  -57.6428 H         1 UNK         0.0600 
    240 H240       -1.6319  -21.1105  -54.0551 H         1 UNK         0.3000 
    241 H241        0.3596  -21.8919  -53.7132 H         1 UNK         0.0600 
    242 H242       -0.9484  -22.1950  -56.4876 H         1 UNK         0.3800 
    243 H243        0.3809  -22.8220  -57.4302 H         1 UNK         0.3800 
    244 H244        0.9221  -19.2428  -53.4086 H         1 UNK         0.0800 
    245 H245        1.9733  -19.5515  -54.7506 H         1 UNK         0.0800 
    246 H246        0.6485  -20.7951  -51.4250 H         1 UNK         0.0800 
    247 H247        1.9512  -21.6661  -50.6722 H         1 UNK         0.0800 
@<TRIPOS>BOND
     1    1    2 1    
     2    1  127 1    
     3    1  128 1    
     4    1  129 1    
     5    2    3 2    
     6    2    4 am   BACKBONE|DICT|INTERRES
     7    4    5 1    
     8    4  130 1    
     9    5    6 1    
    10    5   65 1    
    11    5  131 1    
    12    6    7 1    
    13    6  132 1    
    14    6  133 1    
    15    7    8 1    
    16    8    9 1    
    17    8  134 1    
    18    8  135 1    
    19    9   10 ar   
    20    9   14 ar   
    21   10   11 ar   
    22   10  136 1    
    23   11   12 ar   
    24   11  126 1    
    25   12   13 ar   
    26   12  137 1    
    27   13   14 ar   
    28   13   15 1    
    29   14  138 1    
    30   15   16 1    
    31   15  139 1    
    32   15  140 1    
    33   16   17 1    
    34   17   18 1    
    35   17  141 1    
    36   17  142 1    
    37   18   19 1    
    38   18   67 1    
    39   18  143 1    
    40   19   20 am   BACKBONE|DICT|INTERRES
    41   19  144 1    
    42   20   21 2    
    43   20   22 1    
    44   22   23 1    
    45   22   24 1    
    46   22  145 1    
    47   23  146 1    
    48   23  147 1    
    49   23  148 1    
    50   24   25 am   BACKBONE|DICT|INTERRES
    51   24  149 1    
    52   25   26 2    
    53   25   27 1    
    54   27   28 1    
    55   27   29 1    
    56   27  150 1    
    57   28  151 1    
    58   28  152 1    
    59   28  153 1    
    60   29   30 am   BACKBONE|DICT|INTERRES
    61   29  154 1    
    62   30   31 2    
    63   30   32 1    
    64   32   33 1    
    65   32   34 1    
    66   32  155 1    
    67   33  156 1    
    68   33  157 1    
    69   33  158 1    
    70   34   35 am   BACKBONE|DICT|INTERRES
    71   34  159 1    
    72   35   36 2    
    73   35   37 1    
    74   37   38 1    
    75   37   39 1    
    76   37  160 1    
    77   38  161 1    
    78   38  162 1    
    79   38  163 1    
    80   39   40 am   BACKBONE|DICT|INTERRES
    81   39  164 1    
    82   40   41 2    
    83   40   42 1    
    84   42   43 1    
    85   42   44 1    
    86   42  165 1    
    87   43  166 1    
    88   43  167 1    
    89   43  168 1    
    90   44   45 am   BACKBONE|DICT|INTERRES
    91   44  169 1    
    92   45   46 2    
    93   45   47 1    
    94   47   48 1    
    95   47   49 1    
    96   47  170 1    
    97   48  171 1    
    98   48  172 1    
    99   48  173 1    
   100   49   50 am   BACKBONE|DICT|INTERRES
   101   49  174 1    
   102   50   51 2    
   103   50   52 1    
   104   52   53 1    
   105   52   54 1    
   106   52  175 1    
   107   53  176 1    
   108   53  177 1    
   109   53  178 1    
   110   54   55 am   BACKBONE|DICT|INTERRES
   111   54  179 1    
   112   55   56 2    
   113   55   57 1    
   114   57   58 1    
   115   57   59 1    
   116   57  180 1    
   117   58  181 1    
   118   58  182 1    
   119   58  183 1    
   120   59   60 am   BACKBONE|DICT|INTERRES
   121   59  184 1    
   122   60   61 2    
   123   60   62 1    
   124   62   63 1    
   125   62   64 1    
   126   62  185 1    
   127   63  186 1    
   128   63  187 1    
   129   63  188 1    
   130   64   65 am   BACKBONE|DICT|INTERRES
   131   64  189 1    
   132   65   66 2    
   133   67   68 2    
   134   67   69 am   BACKBONE|DICT|INTERRES
   135   69   70 1    
   136   69  190 1    
   137   70   71 1    
   138   70   72 1    
   139   70  191 1    
   140   71  192 1    
   141   71  193 1    
   142   71  194 1    
   143   72   73 2    
   144   72   74 am   BACKBONE|DICT|INTERRES
   145   74   75 1    
   146   74  195 1    
   147   75   76 1    
   148   75   77 1    
   149   75  196 1    
   150   76  197 1    
   151   76  198 1    
   152   76  199 1    
   153   77   78 2    
   154   77   79 am   BACKBONE|DICT|INTERRES
   155   79   80 1    
   156   79  200 1    
   157   80   81 1    
   158   80   82 1    
   159   80  201 1    
   160   81  202 1    
   161   81  203 1    
   162   81  204 1    
   163   82   83 2    
   164   82   84 am   BACKBONE|DICT|INTERRES
   165   84   85 1    
   166   84  205 1    
   167   85   86 1    
   168   85   87 1    
   169   85  206 1    
   170   86  207 1    
   171   86  208 1    
   172   86  209 1    
   173   87   88 2    
   174   87   89 am   BACKBONE|DICT|INTERRES
   175   89   90 1    
   176   89  210 1    
   177   90   91 1    
   178   90   92 1    
   179   90  211 1    
   180   91  212 1    
   181   91  213 1    
   182   91  214 1    
   183   92   93 2    
   184   92   94 am   BACKBONE|DICT|INTERRES
   185   94   95 1    
   186   94  215 1    
   187   95   96 1    
   188   95   97 1    
   189   95  216 1    
   190   96  217 1    
   191   96  218 1    
   192   96  219 1    
   193   97   98 2    
   194   97   99 am   BACKBONE|DICT|INTERRES
   195   99  100 1    
   196   99  220 1    
   197  100  101 1    
   198  100  102 1    
   199  100  221 1    
   200  101  222 1    
   201  101  223 1    
   202  101  224 1    
   203  102  103 2    
   204  102  104 am   BACKBONE|DICT|INTERRES
   205  104  105 1    
   206  104  225 1    
   207  105  106 1    
   208  105  107 1    
   209  105  226 1    
   210  106  227 1    
   211  106  228 1    
   212  106  229 1    
   213  107  108 2    
   214  107  109 am   BACKBONE|DICT|INTERRES
   215  109  110 1    
   216  109  230 1    
   217  110  111 1    
   218  110  112 1    
   219  110  231 1    
   220  111  232 1    
   221  111  233 1    
   222  111  234 1    
   223  112  113 2    
   224  112  114 am   BACKBONE|DICT|INTERRES
   225  114  115 1    
   226  114  235 1    
   227  115  116 1    
   228  115  117 1    
   229  115  236 1    
   230  116  237 1    
   231  116  238 1    
   232  116  239 1    
   233  117  118 2    
   234  117  119 am   BACKBONE|DICT|INTERRES
   235  119  120 1    
   236  119  240 1    
   237  120  121 1    
   238  120  124 1    
   239  120  241 1    
   240  121  122 am   BACKBONE|DICT|INTERRES
   241  121  123 2    
   242  122  242 1    
   243  122  243 1    
   244  124  125 1    
   245  124  244 1    
   246  124  245 1    
   247  125  126 1    
   248  126  246 1    
   249  126  247 1    
@<TRIPOS>SUBSTRUCTURE
     1 UNK         1 GROUP             0       ****    0 ROOT    
