@<TRIPOS>MOLECULE
3R540
247   249    1
SMALL
USER_CHARGES


@<TRIPOS>ATOM
      1 CA         -4.0344  -13.9566  -47.7333 C.3       0 UNK        -0.1800 
      2 C          -2.9242  -13.2613  -48.5093 C.2       0 UNK         0.5000 
      3 O          -3.1840  -12.2842  -49.2118 O.2       0 UNK        -0.5000 
      4 N          -1.6925  -13.7703  -48.3914 N.am      1 UNK        -0.5000 
      5 CA         -0.4774  -13.1820  -48.9609 C.3       1 UNK         0.1400 
      6 C6          0.6580  -14.2330  -49.0930 C.3       23 UNK        -0.0398 
      7 S7          1.1042  -15.0834  -47.5358 S.3       23 UNK        -0.2404 
      8 C8          0.3205  -16.7184  -47.7307 C.3       23 UNK        -0.0205 
      9 C9          1.1354  -17.6480  -48.6136 C.ar      23 UNK        -0.0193 
     10 C10         0.8313  -17.7816  -49.9701 C.ar      23 UNK        -0.1150 
     11 C11         1.5816  -18.6310  -50.7886 C.ar      23 UNK        -0.0193 
     12 C12         2.6333  -19.3629  -50.2325 C.ar      23 UNK        -0.1150 
     13 C13         2.9261  -19.2649  -48.8682 C.ar      23 UNK        -0.0193 
     14 C14         2.1794  -18.3984  -48.0656 C.ar      23 UNK        -0.1150 
     15 C15         4.0452  -20.1025  -48.2646 C.3       23 UNK        -0.0205 
     16 S16         3.4253  -21.4720  -47.2293 S.3       23 UNK        -0.2404 
     17 C17         2.3472  -22.3966  -48.3831 C.3       23 UNK        -0.0398 
     18 CA          0.9298  -22.6820  -47.8211 C.3       11 UNK         0.1400 
     19 N           0.3395  -21.5399  -47.1086 N.am      11 UNK        -0.5000 
     20 C          -0.8331  -21.5565  -46.4585 C.2       10 UNK         0.5000 
     21 O          -1.6517  -22.4718  -46.5530 O.2       10 UNK        -0.5000 
     22 CA         -1.0825  -20.3835  -45.4874 C.3       10 UNK         0.1400 
     23 CB         -2.4777  -20.4278  -44.8339 C.3       10 UNK        -0.1800 
     24 N          -0.0368  -20.2988  -44.4595 N.am      10 UNK        -0.5000 
     25 C           0.3800  -21.2695  -43.6307 C.2       9 UNK         0.5000 
     26 O          -0.1382  -22.3833  -43.5476 O.2       9 UNK        -0.5000 
     27 CA          1.5945  -20.9488  -42.7483 C.3       9 UNK         0.1400 
     28 CB          2.8593  -20.6975  -43.5883 C.3       9 UNK        -0.1800 
     29 N           1.3494  -19.8085  -41.8634 N.am      9 UNK        -0.5000 
     30 C           1.7661  -19.7584  -40.5898 C.2       8 UNK         0.5000 
     31 O           2.3533  -20.6878  -40.0330 O.2       8 UNK        -0.5000 
     32 CA          1.5229  -18.4679  -39.7836 C.3       8 UNK         0.1400 
     33 CB          2.8343  -17.6865  -39.6006 C.3       8 UNK        -0.1800 
     34 N           0.5131  -17.5713  -40.3450 N.am      8 UNK        -0.5000 
     35 C          -0.8088  -17.7568  -40.2232 C.2       7 UNK         0.5000 
     36 O          -1.3151  -18.7707  -39.7418 O.2       7 UNK        -0.5000 
     37 CA         -1.7160  -16.6121  -40.7001 C.3       7 UNK         0.1400 
     38 CB         -1.7949  -15.5109  -39.6309 C.3       7 UNK        -0.1800 
     39 N          -1.2140  -16.0327  -41.9427 N.am      7 UNK        -0.5000 
     40 C          -1.7470  -16.2483  -43.1517 C.2       6 UNK         0.5000 
     41 O          -2.7740  -16.8982  -43.3463 O.2       6 UNK        -0.5000 
     42 CA         -0.9986  -15.6471  -44.3559 C.3       6 UNK         0.1400 
     43 CB         -1.5522  -14.2541  -44.6828 C.3       6 UNK        -0.1800 
     44 N           0.4497  -15.5519  -44.1537 N.am      6 UNK        -0.5000 
     45 C           1.2673  -16.5985  -43.9607 C.2       5 UNK         0.5000 
     46 O           0.8945  -17.7663  -44.0370 O.2       5 UNK        -0.5000 
     47 CA          2.7320  -16.3223  -43.5691 C.3       5 UNK         0.1400 
     48 CB          3.6597  -16.5334  -44.7739 C.3       5 UNK        -0.1800 
     49 N           2.9682  -14.9894  -43.0161 N.am      5 UNK        -0.5000 
     50 C           2.3539  -14.4360  -41.9598 C.2       4 UNK         0.5000 
     51 O           1.5461  -15.0357  -41.2476 O.2       4 UNK        -0.5000 
     52 CA          2.6394  -12.9408  -41.7073 C.3       4 UNK         0.1400 
     53 CB          3.6501  -12.7768  -40.5630 C.3       4 UNK        -0.1800 
     54 N           3.1331  -12.2281  -42.8951 N.am      4 UNK        -0.5000 
     55 C           2.4538  -12.0813  -44.0422 C.2       3 UNK         0.5000 
     56 O           1.3056  -12.4986  -44.2135 O.2       3 UNK        -0.5000 
     57 CA          3.2181  -11.4364  -45.2061 C.3       3 UNK         0.1400 
     58 CB          4.2143  -12.4429  -45.8156 C.3       3 UNK        -0.1800 
     59 N           2.2678  -11.0055  -46.2246 N.am      3 UNK        -0.5000 
     60 C           2.5063  -10.1308  -47.2063 C.2       2 UNK         0.5000 
     61 O           3.5907   -9.5638  -47.3558 O.2       2 UNK        -0.5000 
     62 CA          1.3460   -9.8612  -48.1919 C.3       2 UNK         0.1400 
     63 CB          1.7453   -8.9097  -49.3350 C.3       2 UNK        -0.1800 
     64 N           0.8119  -11.0953  -48.7774 N.am      2 UNK        -0.5000 
     65 C          -0.0406  -11.9281  -48.1675 C.2       1 UNK         0.5000 
     66 O          -0.4608  -11.7334  -47.0241 O.2       1 UNK        -0.5000 
     67 C           0.0271  -23.2628  -48.9287 C.2       11 UNK         0.5000 
     68 O          -0.0371  -24.4819  -49.0773 O.2       11 UNK        -0.5000 
     69 N          -0.6746  -22.3899  -49.6649 N.am      12 UNK        -0.5000 
     70 CA         -1.6098  -22.7830  -50.7205 C.3       12 UNK         0.1400 
     71 CB         -1.9202  -21.5688  -51.6047 C.3       12 UNK        -0.1800 
     72 C          -2.8939  -23.4353  -50.1710 C.2       12 UNK         0.5000 
     73 O          -3.3939  -24.3834  -50.7770 O.2       12 UNK        -0.5000 
     74 N          -3.3736  -22.9689  -49.0081 N.am      13 UNK        -0.5000 
     75 CA         -4.4867  -23.5818  -48.2804 C.3       13 UNK         0.1400 
     76 CB         -4.9742  -22.6484  -47.1601 C.3       13 UNK        -0.1800 
     77 C          -4.0941  -24.9532  -47.7052 C.2       13 UNK         0.5000 
     78 O          -4.8669  -25.9034  -47.8243 O.2       13 UNK        -0.5000 
     79 N          -2.8823  -25.0405  -47.1374 N.am      14 UNK        -0.5000 
     80 CA         -2.2886  -26.2697  -46.6055 C.3       14 UNK         0.1400 
     81 CB         -0.9821  -25.9288  -45.8732 C.3       14 UNK        -0.1800 
     82 C          -2.0502  -27.3401  -47.6893 C.2       14 UNK         0.5000 
     83 O          -2.2721  -28.5243  -47.4353 O.2       14 UNK        -0.5000 
     84 N          -1.6446  -26.8999  -48.8882 N.am      15 UNK        -0.5000 
     85 CA         -1.4891  -27.7281  -50.0864 C.3       15 UNK         0.1400 
     86 CB         -0.6048  -26.9767  -51.0945 C.3       15 UNK        -0.1800 
     87 C          -2.8269  -28.1255  -50.7460 C.2       15 UNK         0.5000 
     88 O          -2.8201  -28.9774  -51.6356 O.2       15 UNK        -0.5000 
     89 N          -3.9350  -27.5027  -50.3162 N.am      16 UNK        -0.5000 
     90 CA         -5.3005  -27.6492  -50.8270 C.3       16 UNK         0.1400 
     91 CB         -5.8447  -29.0671  -50.5532 C.3       16 UNK        -0.1800 
     92 C          -5.4302  -27.2141  -52.3016 C.2       16 UNK         0.5000 
     93 O          -6.0656  -27.9032  -53.1033 O.2       16 UNK        -0.5000 
     94 N          -4.8148  -26.0711  -52.6319 N.am      17 UNK        -0.5000 
     95 CA         -4.8979  -25.4203  -53.9382 C.3       17 UNK         0.1400 
     96 CB         -3.7557  -24.3958  -54.0456 C.3       17 UNK        -0.1800 
     97 C          -6.2690  -24.7494  -54.1705 C.2       17 UNK         0.5000 
     98 O          -7.1074  -24.6932  -53.2668 O.2       17 UNK        -0.5000 
     99 N          -6.4645  -24.2305  -55.3903 N.am      18 UNK        -0.5000 
    100 CA        -7.6886  -23.5584  -55.8421 C.3       18 UNK         0.1400 
    101 CB        -7.6011  -23.3495  -57.3623 C.3       18 UNK        -0.1800 
    102 C         -7.9929  -22.2209  -55.1319 C.2       18 UNK         0.5000 
    103 O         -9.1285  -21.7484  -55.2039 O.2       18 UNK        -0.5000 
    104 N         -6.9919  -21.6389  -54.4636 N.am      19 UNK        -0.5000 
    105 CA        -7.1026  -20.4520  -53.6250 C.3       19 UNK         0.1400 
    106 CB        -6.5850  -19.2306  -54.4010 C.3       19 UNK        -0.1800 
    107 C         -6.2811  -20.6832  -52.3496 C.2       19 UNK         0.5000 
    108 O         -5.3215  -21.4571  -52.3722 O.2       19 UNK        -0.5000 
    109 N         -6.6609  -19.9974  -51.2646 N.am      20 UNK        -0.5000 
    110 CA        -6.0084  -20.0927  -49.9549 C.3       20 UNK         0.1400 
    111 CB        -6.9525  -19.5209  -48.8858 C.3       20 UNK        -0.1800 
    112 C         -4.6366  -19.3924  -49.8890 C.2       20 UNK         0.5000 
    113 O         -3.8429  -19.6976  -48.9978 O.2       20 UNK        -0.5000 
    114 N         -4.3779  -18.4773  -50.8285 N.am      21 UNK        -0.5000 
    115 CA        -3.1227  -17.7595  -50.9905 C.3       21 UNK         0.1400 
    116 CB        -3.1254  -16.4957  -50.1162 C.3       21 UNK        -0.1800 
    117 C         -2.9361  -17.4131  -52.4732 C.2       21 UNK         0.5000 
    118 O         -3.9127  -17.3502  -53.2235 O.2       21 UNK        -0.5000 
    119 N         -1.6773  -17.1865  -52.8522 N.am      22 UNK        -0.5000 
    120 CA        -1.2198  -16.8374  -54.2061 C.3       22 UNK         0.1400 
    121 C         -1.2390  -15.3113  -54.5213 C.2       22 UNK         0.5000 
    122 N         -1.6358  -14.4423  -53.5992 N.am      22 UNK        -0.7600 
    123 O         -0.9068  -14.9074  -55.6324 O.2       22 UNK        -0.5000 
    124 C124        0.1607  -17.4884  -54.5072 C.3       23 UNK        -0.0398 
    125 S125        1.4034  -17.2305  -53.1865 S.3       23 UNK        -0.2404 
    126 C126        1.2267  -18.7909  -52.2594 C.3       23 UNK        -0.0205 
    127 H127       -3.6760  -14.8541  -47.2285 H         1 UNK         0.0600 
    128 H128       -4.8403  -14.2466  -48.4076 H         1 UNK         0.0600 
    129 H129       -4.4433  -13.2829  -46.9804 H         1 UNK         0.0600 
    130 H130       -1.5321  -14.5328  -47.7519 H         1 UNK         0.3000 
    131 H131       -0.7194  -12.8430  -49.9707 H         1 UNK         0.0600 
    132 H132        0.3698  -14.9744  -49.8366 H         1 UNK         0.0800 
    133 H133        1.5621  -13.7719  -49.4936 H         1 UNK         0.0800 
    134 H134       -0.6935  -16.6081  -48.1159 H         1 UNK         0.0800 
    135 H135        0.2224  -17.1792  -46.7488 H         1 UNK         0.0800 
    136 H136        0.0140  -17.2175  -50.3908 H         1 UNK         0.1150 
    137 H137        3.2111  -20.0292  -50.8577 H         1 UNK         0.1150 
    138 H138        2.4058  -18.3143  -47.0128 H         1 UNK         0.1150 
    139 H139        4.6852  -20.5120  -49.0477 H         1 UNK         0.0800 
    140 H140        4.6836  -19.4616  -47.6549 H         1 UNK         0.0800 
    141 H141        2.8452  -23.3392  -48.6169 H         1 UNK         0.0800 
    142 H142        2.2824  -21.8642  -49.3306 H         1 UNK         0.0800 
    143 H143        1.0392  -23.4656  -47.0686 H         1 UNK         0.0600 
    144 H144        0.9651  -20.7616  -46.9582 H         1 UNK         0.3000 
    145 H145       -1.0210  -19.4667  -46.0757 H         1 UNK         0.0600 
    146 H146       -3.2615  -20.3860  -45.5911 H         1 UNK         0.0600 
    147 H147       -2.6257  -19.5793  -44.1663 H         1 UNK         0.0600 
    148 H148       -2.6268  -21.3395  -44.2545 H         1 UNK         0.0600 
    149 H149        0.4319  -19.3949  -44.4013 H         1 UNK         0.3000 
    150 H150        1.7733  -21.8460  -42.1517 H         1 UNK         0.0600 
    151 H151        3.0675  -21.5493  -44.2361 H         1 UNK         0.0600 
    152 H152        3.7327  -20.5551  -42.9519 H         1 UNK         0.0600 
    153 H153        2.7625  -19.8160  -44.2224 H         1 UNK         0.0600 
    154 H154        0.8599  -19.0181  -42.2641 H         1 UNK         0.3000 
    155 H155        1.1861  -18.7754  -38.7912 H         1 UNK         0.0600 
    156 H156        3.2445  -17.3515  -40.5520 H         1 UNK         0.0600 
    157 H157        3.5932  -18.3028  -39.1170 H         1 UNK         0.0600 
    158 H158        2.6850  -16.8069  -38.9739 H         1 UNK         0.0600 
    159 H159        0.8550  -16.6889  -40.7156 H         1 UNK         0.3000 
    160 H160       -2.7202  -17.0176  -40.8402 H         1 UNK         0.0600 
    161 H161       -0.8201  -15.0586  -39.4423 H         1 UNK         0.0600 
    162 H162       -2.1615  -15.9104  -38.6845 H         1 UNK         0.0600 
    163 H163       -2.4776  -14.7174  -39.9352 H         1 UNK         0.0600 
    164 H164       -0.3526  -15.5025  -41.8783 H         1 UNK         0.3000 
    165 H165       -1.1861  -16.2984  -45.2095 H         1 UNK         0.0600 
    166 H166       -1.0678  -13.8396  -45.5649 H         1 UNK         0.0600 
    167 H167       -2.6235  -14.2912  -44.8828 H         1 UNK         0.0600 
    168 H168       -1.3933  -13.5554  -43.8604 H         1 UNK         0.0600 
    169 H169        0.8334  -14.6148  -44.1078 H         1 UNK         0.3000 
    170 H170        3.0017  -17.0509  -42.8044 H         1 UNK         0.0600 
    171 H171        3.5774  -17.5516  -45.1545 H         1 UNK         0.0600 
    172 H172        3.4196  -15.8539  -45.5925 H         1 UNK         0.0600 
    173 H173        4.7038  -16.3777  -44.5024 H         1 UNK         0.0600 
    174 H174        3.6099  -14.4068  -43.5316 H         1 UNK         0.3000 
    175 H175        1.6977  -12.4779  -41.4054 H         1 UNK         0.0600 
    176 H176        4.6208  -13.2037  -40.8186 H         1 UNK         0.0600 
    177 H177        3.7989  -11.7257  -40.3150 H         1 UNK         0.0600 
    178 H178        3.3002  -13.2760  -39.6582 H         1 UNK         0.0600 
    179 H179        4.0728  -11.8621  -42.8351 H         1 UNK         0.3000 
    180 H180        3.7552  -10.5653  -44.8252 H         1 UNK         0.0600 
    181 H181        3.7008  -13.3161  -46.2210 H         1 UNK         0.0600 
    182 H182        4.9291  -12.7959  -45.0717 H         1 UNK         0.0600 
    183 H183        4.7917  -11.9933  -46.6233 H         1 UNK         0.0600 
    184 H184        1.3403  -11.4174  -46.1429 H         1 UNK         0.3000 
    185 H185        0.5544   -9.3704  -47.6215 H         1 UNK         0.0600 
    186 H186        2.0998   -7.9547  -48.9449 H         1 UNK         0.0600 
    187 H187        2.5414   -9.3305  -49.9504 H         1 UNK         0.0600 
    188 H188        0.8963   -8.6958  -49.9846 H         1 UNK         0.0600 
    189 H189        1.1427  -11.3207  -49.7043 H         1 UNK         0.3000 
    190 H190       -0.5879  -21.4044  -49.4650 H         1 UNK         0.3000 
    191 H191       -1.1165  -23.5269  -51.3498 H         1 UNK         0.0600 
    192 H192       -2.6310  -21.8231  -52.3903 H         1 UNK         0.0600 
    193 H193       -1.0191  -21.2006  -52.0934 H         1 UNK         0.0600 
    194 H194       -2.3479  -20.7533  -51.0266 H         1 UNK         0.0600 
    195 H195       -2.8824  -22.2211  -48.5374 H         1 UNK         0.3000 
    196 H196       -5.3095  -23.7277  -48.9837 H         1 UNK         0.0600 
    197 H197       -4.2460  -22.5622  -46.3543 H         1 UNK         0.0600 
    198 H198       -5.1767  -21.6449  -47.5280 H         1 UNK         0.0600 
    199 H199       -5.8976  -23.0263  -46.7198 H         1 UNK         0.0600 
    200 H200       -2.3352  -24.1879  -47.0442 H         1 UNK         0.3000 
    201 H201       -2.9881  -26.6851  -45.8772 H         1 UNK         0.0600 
    202 H202       -1.1495  -25.1922  -45.0866 H         1 UNK         0.0600 
    203 H203       -0.2326  -25.5251  -46.5534 H         1 UNK         0.0600 
    204 H204       -0.5551  -26.8163  -45.4046 H         1 UNK         0.0600 
    205 H205       -1.3979  -25.9198  -48.9858 H         1 UNK         0.3000 
    206 H206       -0.9774  -28.6505  -49.8045 H         1 UNK         0.0600 
    207 H207        0.3702  -26.7424  -50.6669 H         1 UNK         0.0600 
    208 H208       -0.4300  -27.5760  -51.9888 H         1 UNK         0.0600 
    209 H209       -1.0668  -26.0411  -51.4114 H         1 UNK         0.0600 
    210 H210       -3.8279  -26.8157  -49.5810 H         1 UNK         0.3000 
    211 H211       -5.9124  -26.9506  -50.2547 H         1 UNK         0.0600 
    212 H212       -6.9023  -29.1344  -50.8107 H         1 UNK         0.0600 
    213 H213       -5.7510  -29.3268  -49.4987 H         1 UNK         0.0600 
    214 H214       -5.3190  -29.8254  -51.1340 H         1 UNK         0.0600 
    215 H215       -4.3284  -25.5484  -51.9065 H         1 UNK         0.3000 
    216 H216       -4.7571  -26.1796  -54.7101 H         1 UNK         0.0600 
    217 H217       -3.8996  -23.5697  -53.3499 H         1 UNK         0.0600 
    218 H218       -3.6898  -23.9726  -55.0481 H         1 UNK         0.0600 
    219 H219       -2.7910  -24.8533  -53.8247 H         1 UNK         0.0600 
    220 H220       -5.7265  -24.3096  -56.0750 H         1 UNK         0.3000 
    221 H221       -8.5283  -24.2262  -55.6386 H         1 UNK         0.0600 
    222 H222       -7.4774  -24.2978  -57.8856 H         1 UNK         0.0600 
    223 H223       -6.7642  -22.7038  -57.6313 H         1 UNK         0.0600 
    224 H224       -8.5101  -22.8853  -57.7475 H         1 UNK         0.0600 
    225 H225       -6.1088  -22.1255  -54.3849 H         1 UNK         0.3000 
    226 H226       -8.1432  -20.2871  -53.3374 H         1 UNK         0.0600 
    227 H227       -5.5382  -19.3486  -54.6846 H         1 UNK         0.0600 
    228 H228       -7.1623  -19.0690  -55.3115 H         1 UNK         0.0600 
    229 H229       -6.6618  -18.3225  -53.8020 H         1 UNK         0.0600 
    230 H230       -7.4551  -19.3763  -51.3266 H         1 UNK         0.3000 
    231 H231       -5.8428  -21.1496  -49.7379 H         1 UNK         0.0600 
    232 H232       -7.1828  -18.4714  -49.0729 H         1 UNK         0.0600 
    233 H233       -6.5069  -19.5848  -47.8922 H         1 UNK         0.0600 
    234 H234       -7.8925  -20.0721  -48.8542 H         1 UNK         0.0600 
    235 H235       -5.0514  -18.3154  -51.5658 H         1 UNK         0.3000 
    236 H236       -2.2949  -18.4031  -50.6860 H         1 UNK         0.0600 
    237 H237       -3.2220  -16.7481  -49.0602 H         1 UNK         0.0600 
    238 H238       -2.1982  -15.9346  -50.2326 H         1 UNK         0.0600 
    239 H239       -3.9488  -15.8301  -50.3781 H         1 UNK         0.0600 
    240 H240       -0.9378  -17.2303  -52.1688 H         1 UNK         0.3000 
    241 H241       -1.9275  -17.2701  -54.9158 H         1 UNK         0.0600 
    242 H242       -1.6527  -13.4596  -53.8227 H         1 UNK         0.3800 
    243 H243       -1.9403  -14.7565  -52.6937 H         1 UNK         0.3800 
    244 H244        0.5727  -17.1219  -55.4490 H         1 UNK         0.0800 
    245 H245        0.0269  -18.5602  -54.6592 H         1 UNK         0.0800 
    246 H246        1.8501  -19.5512  -52.7326 H         1 UNK         0.0800 
    247 H247        0.2024  -19.1569  -52.3235 H         1 UNK         0.0800 
@<TRIPOS>BOND
     1    1    2 1    
     2    1  127 1    
     3    1  128 1    
     4    1  129 1    
     5    2    3 2    
     6    2    4 am   BACKBONE|DICT|INTERRES
     7    4    5 1    
     8    4  130 1    
     9    5    6 1    
    10    5   65 1    
    11    5  131 1    
    12    6    7 1    
    13    6  132 1    
    14    6  133 1    
    15    7    8 1    
    16    8    9 1    
    17    8  134 1    
    18    8  135 1    
    19    9   10 ar   
    20    9   14 ar   
    21   10   11 ar   
    22   10  136 1    
    23   11   12 ar   
    24   11  126 1    
    25   12   13 ar   
    26   12  137 1    
    27   13   14 ar   
    28   13   15 1    
    29   14  138 1    
    30   15   16 1    
    31   15  139 1    
    32   15  140 1    
    33   16   17 1    
    34   17   18 1    
    35   17  141 1    
    36   17  142 1    
    37   18   19 1    
    38   18   67 1    
    39   18  143 1    
    40   19   20 am   BACKBONE|DICT|INTERRES
    41   19  144 1    
    42   20   21 2    
    43   20   22 1    
    44   22   23 1    
    45   22   24 1    
    46   22  145 1    
    47   23  146 1    
    48   23  147 1    
    49   23  148 1    
    50   24   25 am   BACKBONE|DICT|INTERRES
    51   24  149 1    
    52   25   26 2    
    53   25   27 1    
    54   27   28 1    
    55   27   29 1    
    56   27  150 1    
    57   28  151 1    
    58   28  152 1    
    59   28  153 1    
    60   29   30 am   BACKBONE|DICT|INTERRES
    61   29  154 1    
    62   30   31 2    
    63   30   32 1    
    64   32   33 1    
    65   32   34 1    
    66   32  155 1    
    67   33  156 1    
    68   33  157 1    
    69   33  158 1    
    70   34   35 am   BACKBONE|DICT|INTERRES
    71   34  159 1    
    72   35   36 2    
    73   35   37 1    
    74   37   38 1    
    75   37   39 1    
    76   37  160 1    
    77   38  161 1    
    78   38  162 1    
    79   38  163 1    
    80   39   40 am   BACKBONE|DICT|INTERRES
    81   39  164 1    
    82   40   41 2    
    83   40   42 1    
    84   42   43 1    
    85   42   44 1    
    86   42  165 1    
    87   43  166 1    
    88   43  167 1    
    89   43  168 1    
    90   44   45 am   BACKBONE|DICT|INTERRES
    91   44  169 1    
    92   45   46 2    
    93   45   47 1    
    94   47   48 1    
    95   47   49 1    
    96   47  170 1    
    97   48  171 1    
    98   48  172 1    
    99   48  173 1    
   100   49   50 am   BACKBONE|DICT|INTERRES
   101   49  174 1    
   102   50   51 2    
   103   50   52 1    
   104   52   53 1    
   105   52   54 1    
   106   52  175 1    
   107   53  176 1    
   108   53  177 1    
   109   53  178 1    
   110   54   55 am   BACKBONE|DICT|INTERRES
   111   54  179 1    
   112   55   56 2    
   113   55   57 1    
   114   57   58 1    
   115   57   59 1    
   116   57  180 1    
   117   58  181 1    
   118   58  182 1    
   119   58  183 1    
   120   59   60 am   BACKBONE|DICT|INTERRES
   121   59  184 1    
   122   60   61 2    
   123   60   62 1    
   124   62   63 1    
   125   62   64 1    
   126   62  185 1    
   127   63  186 1    
   128   63  187 1    
   129   63  188 1    
   130   64   65 am   BACKBONE|DICT|INTERRES
   131   64  189 1    
   132   65   66 2    
   133   67   68 2    
   134   67   69 am   BACKBONE|DICT|INTERRES
   135   69   70 1    
   136   69  190 1    
   137   70   71 1    
   138   70   72 1    
   139   70  191 1    
   140   71  192 1    
   141   71  193 1    
   142   71  194 1    
   143   72   73 2    
   144   72   74 am   BACKBONE|DICT|INTERRES
   145   74   75 1    
   146   74  195 1    
   147   75   76 1    
   148   75   77 1    
   149   75  196 1    
   150   76  197 1    
   151   76  198 1    
   152   76  199 1    
   153   77   78 2    
   154   77   79 am   BACKBONE|DICT|INTERRES
   155   79   80 1    
   156   79  200 1    
   157   80   81 1    
   158   80   82 1    
   159   80  201 1    
   160   81  202 1    
   161   81  203 1    
   162   81  204 1    
   163   82   83 2    
   164   82   84 am   BACKBONE|DICT|INTERRES
   165   84   85 1    
   166   84  205 1    
   167   85   86 1    
   168   85   87 1    
   169   85  206 1    
   170   86  207 1    
   171   86  208 1    
   172   86  209 1    
   173   87   88 2    
   174   87   89 am   BACKBONE|DICT|INTERRES
   175   89   90 1    
   176   89  210 1    
   177   90   91 1    
   178   90   92 1    
   179   90  211 1    
   180   91  212 1    
   181   91  213 1    
   182   91  214 1    
   183   92   93 2    
   184   92   94 am   BACKBONE|DICT|INTERRES
   185   94   95 1    
   186   94  215 1    
   187   95   96 1    
   188   95   97 1    
   189   95  216 1    
   190   96  217 1    
   191   96  218 1    
   192   96  219 1    
   193   97   98 2    
   194   97   99 am   BACKBONE|DICT|INTERRES
   195   99  100 1    
   196   99  220 1    
   197  100  101 1    
   198  100  102 1    
   199  100  221 1    
   200  101  222 1    
   201  101  223 1    
   202  101  224 1    
   203  102  103 2    
   204  102  104 am   BACKBONE|DICT|INTERRES
   205  104  105 1    
   206  104  225 1    
   207  105  106 1    
   208  105  107 1    
   209  105  226 1    
   210  106  227 1    
   211  106  228 1    
   212  106  229 1    
   213  107  108 2    
   214  107  109 am   BACKBONE|DICT|INTERRES
   215  109  110 1    
   216  109  230 1    
   217  110  111 1    
   218  110  112 1    
   219  110  231 1    
   220  111  232 1    
   221  111  233 1    
   222  111  234 1    
   223  112  113 2    
   224  112  114 am   BACKBONE|DICT|INTERRES
   225  114  115 1    
   226  114  235 1    
   227  115  116 1    
   228  115  117 1    
   229  115  236 1    
   230  116  237 1    
   231  116  238 1    
   232  116  239 1    
   233  117  118 2    
   234  117  119 am   BACKBONE|DICT|INTERRES
   235  119  120 1    
   236  119  240 1    
   237  120  121 1    
   238  120  124 1    
   239  120  241 1    
   240  121  122 am   BACKBONE|DICT|INTERRES
   241  121  123 2    
   242  122  242 1    
   243  122  243 1    
   244  124  125 1    
   245  124  244 1    
   246  124  245 1    
   247  125  126 1    
   248  126  246 1    
   249  126  247 1    
@<TRIPOS>SUBSTRUCTURE
     1 UNK         1 GROUP             0       ****    0 ROOT    
