@<TRIPOS>MOLECULE
3R540
247   249    1
SMALL
USER_CHARGES


@<TRIPOS>ATOM
      1 CA         -4.7763  -17.7804  -45.3614 C.3       0 UNK        -0.1800 
      2 C          -4.6270  -16.4836  -46.1445 C.2       0 UNK         0.5000 
      3 O          -5.5907  -15.7286  -46.2736 O.2       0 UNK        -0.5000 
      4 N          -3.4265  -16.2332  -46.6779 N.am      1 UNK        -0.5000 
      5 CA         -3.0619  -15.0123  -47.3991 C.3       1 UNK         0.1400 
      6 C6         -1.8282  -15.2489  -48.3105 C.3       23 UNK        -0.0398 
      7 S7         -0.3242  -15.7735  -47.4161 S.3       23 UNK        -0.2404 
      8 C8          0.9292  -15.6494  -48.7262 C.3       23 UNK        -0.0205 
      9 C9          0.8901  -16.8579  -49.6466 C.ar      23 UNK        -0.0193 
     10 C10         0.2354  -16.8003  -50.8809 C.ar      23 UNK        -0.1150 
     11 C11         0.2189  -17.9165  -51.7232 C.ar      23 UNK        -0.0193 
     12 C12         0.8477  -19.0963  -51.3139 C.ar      23 UNK        -0.1150 
     13 C13         1.5046  -19.1678  -50.0831 C.ar      23 UNK        -0.0193 
     14 C14         1.5290  -18.0380  -49.2594 C.ar      23 UNK        -0.1150 
     15 C15         2.2120  -20.4578  -49.6779 C.3       23 UNK        -0.0205 
     16 S16         1.9785  -20.9014  -47.9251 S.3       23 UNK        -0.2404 
     17 C17         0.1736  -21.1531  -47.8383 C.3       23 UNK        -0.0398 
     18 CA         -0.1858  -22.5257  -47.2294 C.3       11 UNK         0.1400 
     19 N           0.2954  -22.6657  -45.8513 N.am      11 UNK        -0.5000 
     20 C           0.2896  -23.8102  -45.1553 C.2       10 UNK         0.5000 
     21 O          -0.1028  -24.8837  -45.6081 O.2       10 UNK        -0.5000 
     22 CA          0.7408  -23.7301  -43.6894 C.3       10 UNK         0.1400 
     23 CB          2.2727  -23.7063  -43.5804 C.3       10 UNK        -0.1800 
     24 N           0.1726  -22.5603  -43.0219 N.am      10 UNK        -0.5000 
     25 C          -1.1219  -22.4381  -42.6969 C.2       9 UNK         0.5000 
     26 O          -1.9614  -23.3178  -42.8929 O.2       9 UNK        -0.5000 
     27 CA         -1.5573  -21.0943  -42.0836 C.3       9 UNK         0.1400 
     28 CB         -1.3206  -21.0896  -40.5662 C.3       9 UNK        -0.1800 
     29 N          -0.8778  -19.9448  -42.6841 N.am      9 UNK        -0.5000 
     30 C          -1.0458  -19.5500  -43.9534 C.2       8 UNK         0.5000 
     31 O          -1.7896  -20.1126  -44.7538 O.2       8 UNK        -0.5000 
     32 CA         -0.2162  -18.3457  -44.4243 C.3       8 UNK         0.1400 
     33 CB         -0.9114  -17.0400  -44.0256 C.3       8 UNK        -0.1800 
     34 N           1.1676  -18.3296  -43.9425 N.am      8 UNK        -0.5000 
     35 C           2.0601  -19.3119  -44.1377 C.2       7 UNK         0.5000 
     36 O           1.7625  -20.4144  -44.6004 O.2       7 UNK        -0.5000 
     37 CA          3.5210  -19.0189  -43.7343 C.3       7 UNK         0.1400 
     38 CB          4.5265  -19.9550  -44.4362 C.3       7 UNK        -0.1800 
     39 N           3.9188  -17.6172  -43.9139 N.am      7 UNK        -0.5000 
     40 C           3.9254  -16.8929  -45.0438 C.2       6 UNK         0.5000 
     41 O           3.5556  -17.3316  -46.1333 O.2       6 UNK        -0.5000 
     42 CA          4.4383  -15.4342  -44.9370 C.3       6 UNK         0.1400 
     43 CB          4.0096  -14.5762  -46.1414 C.3       6 UNK        -0.1800 
     44 N           4.0198  -14.7514  -43.7080 N.am      6 UNK        -0.5000 
     45 C           4.5198  -14.9521  -42.4793 C.2       5 UNK         0.5000 
     46 O           5.4494  -15.7262  -42.2505 O.2       5 UNK        -0.5000 
     47 CA          3.8473  -14.2214  -41.2973 C.3       5 UNK         0.1400 
     48 CB          4.6724  -12.9916  -40.8891 C.3       5 UNK        -0.1800 
     49 N           2.4695  -13.7997  -41.5559 N.am      5 UNK        -0.5000 
     50 C           1.4465  -14.6021  -41.8819 C.2       4 UNK         0.5000 
     51 O           1.5252  -15.8314  -41.9260 O.2       4 UNK        -0.5000 
     52 CA          0.1208  -13.9141  -42.2658 C.3       4 UNK         0.1400 
     53 CB         -0.8572  -13.9428  -41.0826 C.3       4 UNK        -0.1800 
     54 N           0.2208  -12.5386  -42.7699 N.am      4 UNK        -0.5000 
     55 C           0.9913  -12.1034  -43.7787 C.2       3 UNK         0.5000 
     56 O           1.8652  -12.7787  -44.3245 O.2       3 UNK        -0.5000 
     57 CA          0.6697  -10.6801  -44.2746 C.3       3 UNK         0.1400 
     58 CB          1.7631  -10.0852  -45.1879 C.3       3 UNK        -0.1800 
     59 N          -0.6526  -10.6612  -44.9147 N.am      3 UNK        -0.5000 
     60 C          -1.0178  -11.3294  -46.0194 C.2       2 UNK         0.5000 
     61 O          -0.2345  -11.9025  -46.7801 O.2       2 UNK        -0.5000 
     62 CA         -2.5273  -11.3560  -46.3310 C.3       2 UNK         0.1400 
     63 CB         -2.9198  -10.1638  -47.2174 C.3       2 UNK        -0.1800 
     64 N          -2.9049  -12.5985  -47.0079 N.am      2 UNK        -0.5000 
     65 C          -2.8594  -13.8137  -46.4429 C.2       1 UNK         0.5000 
     66 O          -2.6449  -13.9996  -45.2411 O.2       1 UNK        -0.5000 
     67 C          -1.7000  -22.7986  -47.3430 C.2       11 UNK         0.5000 
     68 O          -2.1336  -23.4046  -48.3257 O.2       11 UNK        -0.5000 
     69 N          -2.4727  -22.3752  -46.3313 N.am      12 UNK        -0.5000 
     70 CA         -3.9031  -22.6440  -46.2040 C.3       12 UNK         0.1400 
     71 CB         -4.5062  -21.8176  -45.0599 C.3       12 UNK        -0.1800 
     72 C          -4.1983  -24.1396  -46.0224 C.2       12 UNK         0.5000 
     73 O          -5.0547  -24.6754  -46.7265 O.2       12 UNK        -0.5000 
     74 N          -3.4540  -24.7908  -45.1183 N.am      13 UNK        -0.5000 
     75 CA         -3.5273  -26.2317  -44.8761 C.3       13 UNK         0.1400 
     76 CB         -2.6795  -26.5856  -43.6448 C.3       13 UNK        -0.1800 
     77 C          -3.0960  -27.0674  -46.0964 C.2       13 UNK         0.5000 
     78 O          -3.7064  -28.1025  -46.3667 O.2       13 UNK        -0.5000 
     79 N          -2.0624  -26.6004  -46.8096 N.am      14 UNK        -0.5000 
     80 CA         -1.5244  -27.2344  -48.0086 C.3       14 UNK         0.1400 
     81 CB         -0.1545  -26.6268  -48.3511 C.3       14 UNK        -0.1800 
     82 C          -2.4749  -27.1487  -49.2142 C.2       14 UNK         0.5000 
     83 O          -2.7880  -28.1865  -49.8005 O.2       14 UNK        -0.5000 
     84 N          -2.8919  -25.9293  -49.5862 N.am      15 UNK        -0.5000 
     85 CA         -3.6076  -25.6796  -50.8395 C.3       15 UNK         0.1400 
     86 CB         -2.6265  -25.7593  -52.0314 C.3       15 UNK        -0.1800 
     87 C          -4.4205  -24.3723  -50.8229 C.2       15 UNK         0.5000 
     88 O          -4.5314  -23.7226  -51.8593 O.2       15 UNK        -0.5000 
     89 N          -4.9971  -24.0080  -49.6685 N.am      16 UNK        -0.5000 
     90 CA         -5.9399  -22.8923  -49.4784 C.3       16 UNK         0.1400 
     91 CB         -7.2383  -23.1275  -50.2795 C.3       16 UNK        -0.1800 
     92 C          -5.3592  -21.4726  -49.6929 C.2       16 UNK         0.5000 
     93 O          -6.1308  -20.5160  -49.7710 O.2       16 UNK        -0.5000 
     94 N          -4.0237  -21.3488  -49.7149 N.am      17 UNK        -0.5000 
     95 CA         -3.2468  -20.1066  -49.7817 C.3       17 UNK         0.1400 
     96 CB         -3.3097  -19.3582  -48.4303 C.3       17 UNK        -0.1800 
     97 C          -3.5824  -19.2255  -51.0075 C.2       17 UNK         0.5000 
     98 O          -3.4394  -19.6978  -52.1370 O.2       17 UNK        -0.5000 
     99 N          -3.9569  -17.9591  -50.7674 N.am      18 UNK        -0.5000 
    100 CA        -4.1451  -16.8832  -51.7449 C.3       18 UNK         0.1400 
    101 CB        -4.7728  -15.6675  -51.0462 C.3       18 UNK        -0.1800 
    102 C         -4.9691  -17.2789  -52.9844 C.2       18 UNK         0.5000 
    103 O         -6.1323  -17.6613  -52.8514 O.2       18 UNK        -0.5000 
    104 N         -4.3259  -17.1816  -54.1575 N.am      19 UNK        -0.5000 
    105 CA        -4.8357  -17.4736  -55.5049 C.3       19 UNK         0.1400 
    106 CB        -6.0154  -16.5435  -55.8565 C.3       19 UNK        -0.1800 
    107 C         -5.1746  -18.9557  -55.7826 C.2       19 UNK         0.5000 
    108 O         -5.5993  -19.2657  -56.8981 O.2       19 UNK        -0.5000 
    109 N         -4.9695  -19.8442  -54.8009 N.am      20 UNK        -0.5000 
    110 CA        -5.2362  -21.2765  -54.9011 C.3       20 UNK         0.1400 
    111 CB        -6.1271  -21.7040  -53.7269 C.3       20 UNK        -0.1800 
    112 C         -3.9096  -22.0470  -54.9329 C.2       20 UNK         0.5000 
    113 O         -3.6370  -22.7494  -55.9073 O.2       20 UNK        -0.5000 
    114 N         -3.0650  -21.8336  -53.9147 N.am      21 UNK        -0.5000 
    115 CA        -1.7106  -22.3840  -53.8172 C.3       21 UNK         0.1400 
    116 CB        -1.1985  -22.1964  -52.3798 C.3       21 UNK        -0.1800 
    117 C         -0.7453  -21.7317  -54.8263 C.2       21 UNK         0.5000 
    118 O          0.2368  -22.3555  -55.2288 O.2       21 UNK        -0.5000 
    119 N         -1.0700  -20.4974  -55.2263 N.am      22 UNK        -0.5000 
    120 CA        -0.3946  -19.7162  -56.2716 C.3       22 UNK         0.1400 
    121 C         -1.0168  -19.9192  -57.6866 C.2       22 UNK         0.5000 
    122 N         -1.9967  -20.7967  -57.8752 N.am      22 UNK        -0.7600 
    123 O         -0.5934  -19.2760  -58.6430 O.2       22 UNK        -0.5000 
    124 C124       -0.3234  -18.2145  -55.8839 C.3       23 UNK        -0.0398 
    125 S125        0.7467  -17.9274  -54.4333 S.3       23 UNK        -0.2404 
    126 C126       -0.4670  -17.8587  -53.0791 C.3       23 UNK        -0.0205 
    127 H127       -5.0307  -17.5670  -44.3243 H         1 UNK         0.0600 
    128 H128       -3.8579  -18.3649  -45.3723 H         1 UNK         0.0600 
    129 H129       -5.5698  -18.3909  -45.7907 H         1 UNK         0.0600 
    130 H130       -2.6586  -16.8623  -46.4978 H         1 UNK         0.3000 
    131 H131       -3.9029  -14.7534  -48.0448 H         1 UNK         0.0600 
    132 H132       -2.0621  -16.0162  -49.0493 H         1 UNK         0.0800 
    133 H133       -1.6008  -14.3479  -48.8828 H         1 UNK         0.0800 
    134 H134        0.7977  -14.7231  -49.2874 H         1 UNK         0.0800 
    135 H135        1.9135  -15.5849  -48.2602 H         1 UNK         0.0800 
    136 H136       -0.2502  -15.8849  -51.1881 H         1 UNK         0.1150 
    137 H137        0.8474  -19.9529  -51.9725 H         1 UNK         0.1150 
    138 H138        2.0432  -18.0744  -48.3086 H         1 UNK         0.1150 
    139 H139        1.8771  -21.2927  -50.2955 H         1 UNK         0.0800 
    140 H140        3.2794  -20.3402  -49.8680 H         1 UNK         0.0800 
    141 H141       -0.2407  -21.0671  -48.8433 H         1 UNK         0.0800 
    142 H142       -0.2611  -20.3405  -47.2535 H         1 UNK         0.0800 
    143 H143        0.3149  -23.2920  -47.8243 H         1 UNK         0.0600 
    144 H144        0.6830  -21.8316  -45.4179 H         1 UNK         0.3000 
    145 H145        0.3807  -24.6253  -43.1777 H         1 UNK         0.0600 
    146 H146        2.5943  -23.6684  -42.5397 H         1 UNK         0.0600 
    147 H147        2.7057  -24.6043  -44.0225 H         1 UNK         0.0600 
    148 H148        2.7040  -22.8493  -44.0973 H         1 UNK         0.0600 
    149 H149        0.7810  -21.7619  -42.9089 H         1 UNK         0.3000 
    150 H150       -2.6290  -20.9819  -42.2606 H         1 UNK         0.0600 
    151 H151       -1.8335  -21.9259  -40.0891 H         1 UNK         0.0600 
    152 H152       -1.7002  -20.1748  -40.1108 H         1 UNK         0.0600 
    153 H153       -0.2607  -21.1720  -40.3225 H         1 UNK         0.0600 
    154 H154       -0.2364  -19.4296  -42.0991 H         1 UNK         0.3000 
    155 H155       -0.1749  -18.3888  -45.5147 H         1 UNK         0.0600 
    156 H156       -1.9546  -17.0301  -44.3399 H         1 UNK         0.0600 
    157 H157       -0.4247  -16.1890  -44.4992 H         1 UNK         0.0600 
    158 H158       -0.8954  -16.8887  -42.9459 H         1 UNK         0.0600 
    159 H159        1.4853  -17.4712  -43.5091 H         1 UNK         0.3000 
    160 H160        3.5811  -19.2152  -42.6631 H         1 UNK         0.0600 
    161 H161        4.4629  -19.8719  -45.5219 H         1 UNK         0.0600 
    162 H162        4.3392  -20.9974  -44.1778 H         1 UNK         0.0600 
    163 H163        5.5509  -19.7288  -44.1407 H         1 UNK         0.0600 
    164 H164        4.2754  -17.1553  -43.0849 H         1 UNK         0.3000 
    165 H165        5.5287  -15.4862  -44.9418 H         1 UNK         0.0600 
    166 H166        2.9232  -14.5137  -46.2185 H         1 UNK         0.0600 
    167 H167        4.3966  -13.5603  -46.0612 H         1 UNK         0.0600 
    168 H168        4.3839  -14.9916  -47.0778 H         1 UNK         0.0600 
    169 H169        3.2425  -14.1044  -43.8110 H         1 UNK         0.3000 
    170 H170        3.8260  -14.9170  -40.4562 H         1 UNK         0.0600 
    171 H171        5.7025  -13.2691  -40.6610 H         1 UNK         0.0600 
    172 H172        4.7018  -12.2461  -41.6849 H         1 UNK         0.0600 
    173 H173        4.2609  -12.5173  -39.9980 H         1 UNK         0.0600 
    174 H174        2.3015  -12.8047  -41.5658 H         1 UNK         0.3000 
    175 H175       -0.3182  -14.4934  -43.0749 H         1 UNK         0.0600 
    176 H176       -0.5044  -13.3258  -40.2557 H         1 UNK         0.0600 
    177 H177       -1.8433  -13.5828  -41.3761 H         1 UNK         0.0600 
    178 H178       -0.9849  -14.9580  -40.7045 H         1 UNK         0.0600 
    179 H179       -0.4605  -11.8956  -42.3938 H         1 UNK         0.3000 
    180 H180        0.6022  -10.0406  -43.3932 H         1 UNK         0.0600 
    181 H181        1.9457  -10.6962  -46.0718 H         1 UNK         0.0600 
    182 H182        2.7095  -10.0065  -44.6519 H         1 UNK         0.0600 
    183 H183        1.4940   -9.0836  -45.5229 H         1 UNK         0.0600 
    184 H184       -1.3785  -10.2033  -44.3811 H         1 UNK         0.3000 
    185 H185       -3.0837  -11.2951  -45.3932 H         1 UNK         0.0600 
    186 H186       -2.3936  -10.1819  -48.1727 H         1 UNK         0.0600 
    187 H187       -3.9904  -10.1593  -47.4228 H         1 UNK         0.0600 
    188 H188       -2.6798   -9.2184  -46.7294 H         1 UNK         0.0600 
    189 H189       -3.0657  -12.5246  -48.0014 H         1 UNK         0.3000 
    190 H190       -2.0579  -21.8011  -45.6023 H         1 UNK         0.3000 
    191 H191       -4.3795  -22.3183  -47.1252 H         1 UNK         0.0600 
    192 H192       -4.3916  -20.7508  -45.2460 H         1 UNK         0.0600 
    193 H193       -4.0355  -22.0433  -44.1035 H         1 UNK         0.0600 
    194 H194       -5.5739  -22.0143  -44.9558 H         1 UNK         0.0600 
    195 H195       -2.7891  -24.2681  -44.5581 H         1 UNK         0.3000 
    196 H196       -4.5674  -26.4802  -44.6552 H         1 UNK         0.0600 
    197 H197       -2.7338  -27.6527  -43.4262 H         1 UNK         0.0600 
    198 H198       -3.0291  -26.0534  -42.7599 H         1 UNK         0.0600 
    199 H199       -1.6292  -26.3327  -43.7925 H         1 UNK         0.0600 
    200 H200       -1.5627  -25.7855  -46.4649 H         1 UNK         0.3000 
    201 H201       -1.3688  -28.2919  -47.7847 H         1 UNK         0.0600 
    202 H202        0.5574  -26.7788  -47.5398 H         1 UNK         0.0600 
    203 H203       -0.2227  -25.5555  -48.5398 H         1 UNK         0.0600 
    204 H204        0.2670  -27.0909  -49.2436 H         1 UNK         0.0600 
    205 H205       -2.6012  -25.1087  -49.0586 H         1 UNK         0.3000 
    206 H206       -4.3541  -26.4653  -50.9718 H         1 UNK         0.0600 
    207 H207       -2.1872  -26.7525  -52.1206 H         1 UNK         0.0600 
    208 H208       -3.1248  -25.5519  -52.9792 H         1 UNK         0.0600 
    209 H209       -1.8098  -25.0467  -51.9221 H         1 UNK         0.0600 
    210 H210       -4.8424  -24.5798  -48.8452 H         1 UNK         0.3000 
    211 H211       -6.2241  -22.9265  -48.4269 H         1 UNK         0.0600 
    212 H212       -7.0714  -23.0701  -51.3542 H         1 UNK         0.0600 
    213 H213       -7.6635  -24.1065  -50.0592 H         1 UNK         0.0600 
    214 H214       -7.9966  -22.3849  -50.0291 H         1 UNK         0.0600 
    215 H215       -3.4820  -22.2013  -49.6453 H         1 UNK         0.3000 
    216 H216       -2.2122  -20.4146  -49.9295 H         1 UNK         0.0600 
    217 H217       -2.9927  -19.9979  -47.6088 H         1 UNK         0.0600 
    218 H218       -4.3177  -19.0113  -48.2011 H         1 UNK         0.0600 
    219 H219       -2.6424  -18.4954  -48.4259 H         1 UNK         0.0600 
    220 H220       -4.1003  -17.6993  -49.8039 H         1 UNK         0.3000 
    221 H221       -3.1484  -16.5877  -52.0753 H         1 UNK         0.0600 
    222 H222       -5.7129  -15.9255  -50.5565 H         1 UNK         0.0600 
    223 H223       -4.1013  -15.2549  -50.2963 H         1 UNK         0.0600 
    224 H224       -4.9826  -14.8689  -51.7593 H         1 UNK         0.0600 
    225 H225       -3.3708  -16.8558  -54.1375 H         1 UNK         0.3000 
    226 H226       -4.0185  -17.2301  -56.1856 H         1 UNK         0.0600 
    227 H227       -5.7567  -15.4976  -55.6916 H         1 UNK         0.0600 
    228 H228       -6.2953  -16.6444  -56.9059 H         1 UNK         0.0600 
    229 H229       -6.9014  -16.7685  -55.2623 H         1 UNK         0.0600 
    230 H230       -4.6131  -19.5163  -53.9098 H         1 UNK         0.3000 
    231 H231       -5.7736  -21.5103  -55.8223 H         1 UNK         0.0600 
    232 H232       -6.3024  -22.7802  -53.7419 H         1 UNK         0.0600 
    233 H233       -7.0994  -21.2138  -53.7742 H         1 UNK         0.0600 
    234 H234       -5.6778  -21.4520  -52.7660 H         1 UNK         0.0600 
    235 H235       -3.3478  -21.2102  -53.1623 H         1 UNK         0.3000 
    236 H236       -1.7559  -23.4530  -54.0343 H         1 UNK         0.0600 
    237 H237       -1.8628  -22.6679  -51.6563 H         1 UNK         0.0600 
    238 H238       -0.2093  -22.6378  -52.2535 H         1 UNK         0.0600 
    239 H239       -1.1261  -21.1418  -52.1184 H         1 UNK         0.0600 
    240 H240       -1.9126  -20.0963  -54.8449 H         1 UNK         0.3000 
    241 H241        0.6319  -20.0759  -56.3636 H         1 UNK         0.0600 
    242 H242       -2.3780  -20.9120  -58.8010 H         1 UNK         0.3800 
    243 H243       -2.3429  -21.3734  -57.1212 H         1 UNK         0.3800 
    244 H244        0.0970  -17.6258  -56.7010 H         1 UNK         0.0800 
    245 H245       -1.3198  -17.8092  -55.7027 H         1 UNK         0.0800 
    246 H246       -1.1631  -18.6928  -53.1575 H         1 UNK         0.0800 
    247 H247       -1.0537  -16.9455  -53.1787 H         1 UNK         0.0800 
@<TRIPOS>BOND
     1    1    2 1    
     2    1  127 1    
     3    1  128 1    
     4    1  129 1    
     5    2    3 2    
     6    2    4 am   BACKBONE|DICT|INTERRES
     7    4    5 1    
     8    4  130 1    
     9    5    6 1    
    10    5   65 1    
    11    5  131 1    
    12    6    7 1    
    13    6  132 1    
    14    6  133 1    
    15    7    8 1    
    16    8    9 1    
    17    8  134 1    
    18    8  135 1    
    19    9   10 ar   
    20    9   14 ar   
    21   10   11 ar   
    22   10  136 1    
    23   11   12 ar   
    24   11  126 1    
    25   12   13 ar   
    26   12  137 1    
    27   13   14 ar   
    28   13   15 1    
    29   14  138 1    
    30   15   16 1    
    31   15  139 1    
    32   15  140 1    
    33   16   17 1    
    34   17   18 1    
    35   17  141 1    
    36   17  142 1    
    37   18   19 1    
    38   18   67 1    
    39   18  143 1    
    40   19   20 am   BACKBONE|DICT|INTERRES
    41   19  144 1    
    42   20   21 2    
    43   20   22 1    
    44   22   23 1    
    45   22   24 1    
    46   22  145 1    
    47   23  146 1    
    48   23  147 1    
    49   23  148 1    
    50   24   25 am   BACKBONE|DICT|INTERRES
    51   24  149 1    
    52   25   26 2    
    53   25   27 1    
    54   27   28 1    
    55   27   29 1    
    56   27  150 1    
    57   28  151 1    
    58   28  152 1    
    59   28  153 1    
    60   29   30 am   BACKBONE|DICT|INTERRES
    61   29  154 1    
    62   30   31 2    
    63   30   32 1    
    64   32   33 1    
    65   32   34 1    
    66   32  155 1    
    67   33  156 1    
    68   33  157 1    
    69   33  158 1    
    70   34   35 am   BACKBONE|DICT|INTERRES
    71   34  159 1    
    72   35   36 2    
    73   35   37 1    
    74   37   38 1    
    75   37   39 1    
    76   37  160 1    
    77   38  161 1    
    78   38  162 1    
    79   38  163 1    
    80   39   40 am   BACKBONE|DICT|INTERRES
    81   39  164 1    
    82   40   41 2    
    83   40   42 1    
    84   42   43 1    
    85   42   44 1    
    86   42  165 1    
    87   43  166 1    
    88   43  167 1    
    89   43  168 1    
    90   44   45 am   BACKBONE|DICT|INTERRES
    91   44  169 1    
    92   45   46 2    
    93   45   47 1    
    94   47   48 1    
    95   47   49 1    
    96   47  170 1    
    97   48  171 1    
    98   48  172 1    
    99   48  173 1    
   100   49   50 am   BACKBONE|DICT|INTERRES
   101   49  174 1    
   102   50   51 2    
   103   50   52 1    
   104   52   53 1    
   105   52   54 1    
   106   52  175 1    
   107   53  176 1    
   108   53  177 1    
   109   53  178 1    
   110   54   55 am   BACKBONE|DICT|INTERRES
   111   54  179 1    
   112   55   56 2    
   113   55   57 1    
   114   57   58 1    
   115   57   59 1    
   116   57  180 1    
   117   58  181 1    
   118   58  182 1    
   119   58  183 1    
   120   59   60 am   BACKBONE|DICT|INTERRES
   121   59  184 1    
   122   60   61 2    
   123   60   62 1    
   124   62   63 1    
   125   62   64 1    
   126   62  185 1    
   127   63  186 1    
   128   63  187 1    
   129   63  188 1    
   130   64   65 am   BACKBONE|DICT|INTERRES
   131   64  189 1    
   132   65   66 2    
   133   67   68 2    
   134   67   69 am   BACKBONE|DICT|INTERRES
   135   69   70 1    
   136   69  190 1    
   137   70   71 1    
   138   70   72 1    
   139   70  191 1    
   140   71  192 1    
   141   71  193 1    
   142   71  194 1    
   143   72   73 2    
   144   72   74 am   BACKBONE|DICT|INTERRES
   145   74   75 1    
   146   74  195 1    
   147   75   76 1    
   148   75   77 1    
   149   75  196 1    
   150   76  197 1    
   151   76  198 1    
   152   76  199 1    
   153   77   78 2    
   154   77   79 am   BACKBONE|DICT|INTERRES
   155   79   80 1    
   156   79  200 1    
   157   80   81 1    
   158   80   82 1    
   159   80  201 1    
   160   81  202 1    
   161   81  203 1    
   162   81  204 1    
   163   82   83 2    
   164   82   84 am   BACKBONE|DICT|INTERRES
   165   84   85 1    
   166   84  205 1    
   167   85   86 1    
   168   85   87 1    
   169   85  206 1    
   170   86  207 1    
   171   86  208 1    
   172   86  209 1    
   173   87   88 2    
   174   87   89 am   BACKBONE|DICT|INTERRES
   175   89   90 1    
   176   89  210 1    
   177   90   91 1    
   178   90   92 1    
   179   90  211 1    
   180   91  212 1    
   181   91  213 1    
   182   91  214 1    
   183   92   93 2    
   184   92   94 am   BACKBONE|DICT|INTERRES
   185   94   95 1    
   186   94  215 1    
   187   95   96 1    
   188   95   97 1    
   189   95  216 1    
   190   96  217 1    
   191   96  218 1    
   192   96  219 1    
   193   97   98 2    
   194   97   99 am   BACKBONE|DICT|INTERRES
   195   99  100 1    
   196   99  220 1    
   197  100  101 1    
   198  100  102 1    
   199  100  221 1    
   200  101  222 1    
   201  101  223 1    
   202  101  224 1    
   203  102  103 2    
   204  102  104 am   BACKBONE|DICT|INTERRES
   205  104  105 1    
   206  104  225 1    
   207  105  106 1    
   208  105  107 1    
   209  105  226 1    
   210  106  227 1    
   211  106  228 1    
   212  106  229 1    
   213  107  108 2    
   214  107  109 am   BACKBONE|DICT|INTERRES
   215  109  110 1    
   216  109  230 1    
   217  110  111 1    
   218  110  112 1    
   219  110  231 1    
   220  111  232 1    
   221  111  233 1    
   222  111  234 1    
   223  112  113 2    
   224  112  114 am   BACKBONE|DICT|INTERRES
   225  114  115 1    
   226  114  235 1    
   227  115  116 1    
   228  115  117 1    
   229  115  236 1    
   230  116  237 1    
   231  116  238 1    
   232  116  239 1    
   233  117  118 2    
   234  117  119 am   BACKBONE|DICT|INTERRES
   235  119  120 1    
   236  119  240 1    
   237  120  121 1    
   238  120  124 1    
   239  120  241 1    
   240  121  122 am   BACKBONE|DICT|INTERRES
   241  121  123 2    
   242  122  242 1    
   243  122  243 1    
   244  124  125 1    
   245  124  244 1    
   246  124  245 1    
   247  125  126 1    
   248  126  246 1    
   249  126  247 1    
@<TRIPOS>SUBSTRUCTURE
     1 UNK         1 GROUP             0       ****    0 ROOT    
