@<TRIPOS>MOLECULE
3R540
247   249    1
SMALL
USER_CHARGES


@<TRIPOS>ATOM
      1 CA          0.9629   -8.0861  -47.7723 C.3       0 UNK        -0.1800 
      2 C           0.7784   -9.5951  -47.7191 C.2       0 UNK         0.5000 
      3 O           1.1234  -10.2168  -46.7133 O.2       0 UNK        -0.5000 
      4 N           0.2212  -10.1841  -48.7882 N.am      1 UNK        -0.5000 
      5 CA         -0.0212  -11.6258  -48.9435 C.3       1 UNK         0.1400 
      6 C6         -0.6106  -11.9587  -50.3377 C.3       23 UNK        -0.0398 
      7 S7         -0.6644  -13.7519  -50.6947 S.3       23 UNK        -0.2404 
      8 C8         -2.4542  -14.0947  -50.5899 C.3       23 UNK        -0.0205 
      9 C9         -2.7461  -15.4683  -49.9997 C.ar      23 UNK        -0.0193 
     10 C10        -2.2774  -16.6256  -50.6294 C.ar      23 UNK        -0.1150 
     11 C11        -2.5413  -17.8879  -50.0887 C.ar      23 UNK        -0.0193 
     12 C12        -3.2876  -17.9886  -48.9128 C.ar      23 UNK        -0.1150 
     13 C13        -3.7654  -16.8414  -48.2746 C.ar      23 UNK        -0.0193 
     14 C14        -3.4934  -15.5842  -48.8228 C.ar      23 UNK        -0.1150 
     15 C15        -4.5506  -16.9647  -46.9802 C.3       23 UNK        -0.0205 
     16 S16        -3.4224  -17.2127  -45.5757 S.3       23 UNK        -0.2404 
     17 C17        -4.1239  -18.6941  -44.7842 C.3       23 UNK        -0.0398 
     18 CA         -3.7726  -20.0192  -45.5072 C.3       11 UNK         0.1400 
     19 N          -2.3272  -20.2261  -45.6710 N.am      11 UNK        -0.5000 
     20 C          -1.7810  -21.1969  -46.4202 C.2       10 UNK         0.5000 
     21 O          -2.4347  -21.9828  -47.1033 O.2       10 UNK        -0.5000 
     22 CA         -0.2555  -21.3710  -46.3397 C.3       10 UNK         0.1400 
     23 CB          0.4585  -20.5477  -47.4207 C.3       10 UNK        -0.1800 
     24 N           0.2673  -21.0182  -45.0228 N.am      10 UNK        -0.5000 
     25 C           0.0679  -21.7260  -43.9038 C.2       9 UNK         0.5000 
     26 O          -0.5803  -22.7737  -43.8816 O.2       9 UNK        -0.5000 
     27 CA          0.6314  -21.1371  -42.5920 C.3       9 UNK         0.1400 
     28 CB          1.0467  -22.2247  -41.5807 C.3       9 UNK        -0.1800 
     29 N           1.7056  -20.1580  -42.8008 N.am      9 UNK        -0.5000 
     30 C           2.9283  -20.3696  -43.3128 C.2       8 UNK         0.5000 
     31 O           3.3581  -21.4808  -43.6237 O.2       8 UNK        -0.5000 
     32 CA          3.8183  -19.1313  -43.5565 C.3       8 UNK         0.1400 
     33 CB          3.9717  -18.8817  -45.0655 C.3       8 UNK        -0.1800 
     34 N           3.3131  -17.9074  -42.9293 N.am      8 UNK        -0.5000 
     35 C           3.3750  -17.6332  -41.6189 C.2       7 UNK         0.5000 
     36 O           3.9292  -18.3599  -40.7937 O.2       7 UNK        -0.5000 
     37 CA          2.6585  -16.3528  -41.1466 C.3       7 UNK         0.1400 
     38 CB          3.5796  -15.1309  -41.2812 C.3       7 UNK        -0.1800 
     39 N           1.4079  -16.1007  -41.8669 N.am      7 UNK        -0.5000 
     40 C           0.3288  -16.8966  -41.8319 C.2       6 UNK         0.5000 
     41 O           0.2531  -17.9185  -41.1503 O.2       6 UNK        -0.5000 
     42 CA         -0.8339  -16.5289  -42.7678 C.3       6 UNK         0.1400 
     43 CB         -1.6984  -15.4072  -42.1767 C.3       6 UNK        -0.1800 
     44 N          -0.3521  -16.1478  -44.0940 N.am      6 UNK        -0.5000 
     45 C           0.1686  -17.0131  -44.9751 C.2       5 UNK         0.5000 
     46 O           0.2366  -18.2252  -44.7761 O.2       5 UNK        -0.5000 
     47 CA          0.7393  -16.4350  -46.2798 C.3       5 UNK         0.1400 
     48 CB         -0.3218  -16.4383  -47.3859 C.3       5 UNK        -0.1800 
     49 N           1.2648  -15.0821  -46.1062 N.am      5 UNK        -0.5000 
     50 C           2.3841  -14.7981  -45.4282 C.2       4 UNK         0.5000 
     51 O           3.0836  -15.6520  -44.8827 O.2       4 UNK        -0.5000 
     52 CA          2.7668  -13.3134  -45.3055 C.3       4 UNK         0.1400 
     53 CB          3.3964  -12.8041  -46.6103 C.3       4 UNK        -0.1800 
     54 N           1.6464  -12.4477  -44.9345 N.am      4 UNK        -0.5000 
     55 C           0.9669  -12.5272  -43.7816 C.2       3 UNK         0.5000 
     56 O           1.1592  -13.3989  -42.9341 O.2       3 UNK        -0.5000 
     57 CA         -0.1145  -11.4623  -43.5403 C.3       3 UNK         0.1400 
     58 CB          0.5190  -10.1047  -43.1974 C.3       3 UNK        -0.1800 
     59 N          -0.9697  -11.3195  -44.7154 N.am      3 UNK        -0.5000 
     60 C          -2.1067  -12.0026  -44.9069 C.2       2 UNK         0.5000 
     61 O          -2.6089  -12.7414  -44.0610 O.2       2 UNK        -0.5000 
     62 CA         -2.8045  -11.8510  -46.2750 C.3       2 UNK         0.1400 
     63 CB         -3.9450  -10.8259  -46.1880 C.3       2 UNK        -0.1800 
     64 N          -1.9085  -11.4723  -47.3707 N.am      2 UNK        -0.5000 
     65 C          -0.8757  -12.2115  -47.7992 C.2       1 UNK         0.5000 
     66 O          -0.5477  -13.2802  -47.2894 O.2       1 UNK        -0.5000 
     67 C          -4.4481  -21.1978  -44.7746 C.2       11 UNK         0.5000 
     68 O          -5.5893  -21.5341  -45.0916 O.2       11 UNK        -0.5000 
     69 N          -3.7346  -21.7971  -43.8098 N.am      12 UNK        -0.5000 
     70 CA         -4.1922  -22.9589  -43.0495 C.3       12 UNK         0.1400 
     71 CB         -3.3990  -23.0608  -41.7370 C.3       12 UNK        -0.1800 
     72 C          -4.0767  -24.2565  -43.8669 C.2       12 UNK         0.5000 
     73 O          -4.9804  -25.0908  -43.8058 O.2       12 UNK        -0.5000 
     74 N          -2.9753  -24.3981  -44.6186 N.am      13 UNK        -0.5000 
     75 CA         -2.7160  -25.5338  -45.5021 C.3       13 UNK         0.1400 
     76 CB         -1.2546  -25.4929  -45.9759 C.3       13 UNK        -0.1800 
     77 C          -3.6779  -25.5799  -46.7024 C.2       13 UNK         0.5000 
     78 O          -4.2850  -26.6231  -46.9505 O.2       13 UNK        -0.5000 
     79 N          -3.7941  -24.4479  -47.4136 N.am      14 UNK        -0.5000 
     80 CA         -4.5684  -24.1922  -48.6333 C.3       14 UNK         0.1400 
     81 CB         -6.0817  -24.3305  -48.3834 C.3       14 UNK        -0.1800 
     82 C          -4.1094  -25.0235  -49.8463 C.2       14 UNK         0.5000 
     83 O          -3.6803  -24.4467  -50.8459 O.2       14 UNK        -0.5000 
     84 N          -4.1963  -26.3560  -49.7316 N.am      15 UNK        -0.5000 
     85 CA         -3.7580  -27.3776  -50.6893 C.3       15 UNK         0.1400 
     86 CB         -2.2171  -27.4477  -50.7097 C.3       15 UNK        -0.1800 
     87 C          -4.3656  -27.1994  -52.0967 C.2       15 UNK         0.5000 
     88 O          -3.6584  -27.3326  -53.0944 O.2       15 UNK        -0.5000 
     89 N          -5.6597  -26.8474  -52.1514 N.am      16 UNK        -0.5000 
     90 CA         -6.4131  -26.4923  -53.3640 C.3       16 UNK         0.1400 
     91 CB         -6.6176  -27.7274  -54.2666 C.3       16 UNK        -0.1800 
     92 C          -5.7934  -25.2881  -54.1115 C.2       16 UNK         0.5000 
     93 O          -5.7194  -25.2864  -55.3407 O.2       16 UNK        -0.5000 
     94 N          -5.3379  -24.3040  -53.3229 N.am      17 UNK        -0.5000 
     95 CA         -4.6306  -23.0697  -53.6784 C.3       17 UNK         0.1400 
     96 CB         -5.3559  -22.2717  -54.7818 C.3       17 UNK        -0.1800 
     97 C          -3.1325  -23.2548  -53.9896 C.2       17 UNK         0.5000 
     98 O          -2.4450  -22.2554  -54.2022 O.2       17 UNK        -0.5000 
     99 N          -2.6224  -24.4940  -53.9853 N.am      18 UNK        -0.5000 
    100 CA        -1.2290  -24.8028  -54.3135 C.3       18 UNK         0.1400 
    101 CB        -1.1121  -26.2819  -54.7128 C.3       18 UNK        -0.1800 
    102 C         -0.2247  -24.4670  -53.1931 C.2       18 UNK         0.5000 
    103 O          0.9779  -24.5324  -53.4502 O.2       18 UNK        -0.5000 
    104 N         -0.7040  -24.1292  -51.9838 N.am      19 UNK        -0.5000 
    105 CA         0.1300  -23.8638  -50.8055 C.3       19 UNK         0.1400 
    106 CB        -0.7563  -23.6472  -49.5716 C.3       19 UNK        -0.1800 
    107 C          1.1188  -22.6947  -50.9768 C.2       19 UNK         0.5000 
    108 O          2.2531  -22.7968  -50.5079 O.2       19 UNK        -0.5000 
    109 N          0.6892  -21.6292  -51.6654 N.am      20 UNK        -0.5000 
    110 CA         1.5335  -20.4887  -52.0310 C.3       20 UNK         0.1400 
    111 CB         1.7900  -19.5735  -50.8122 C.3       20 UNK        -0.1800 
    112 C          0.9609  -19.7322  -53.2446 C.2       20 UNK         0.5000 
    113 O          1.1144  -18.5129  -53.3216 O.2       20 UNK        -0.5000 
    114 N          0.3019  -20.4622  -54.1617 N.am      21 UNK        -0.5000 
    115 CA        -0.3866  -19.9606  -55.3616 C.3       21 UNK         0.1400 
    116 CB         0.6301  -19.4244  -56.3915 C.3       21 UNK        -0.1800 
    117 C         -1.4859  -18.9383  -55.0018 C.2       21 UNK         0.5000 
    118 O         -1.4218  -17.7763  -55.4091 O.2       21 UNK        -0.5000 
    119 N         -2.4370  -19.3923  -54.1783 N.am      22 UNK        -0.5000 
    120 CA        -3.4968  -18.5762  -53.5701 C.3       22 UNK         0.1400 
    121 C         -4.4895  -17.9658  -54.5997 C.2       22 UNK         0.5000 
    122 N         -5.0545  -16.8018  -54.3077 N.am      22 UNK        -0.7600 
    123 O         -4.7889  -18.5549  -55.6359 O.2       22 UNK        -0.5000 
    124 C124       -4.2724  -19.3426  -52.4631 C.3       23 UNK        -0.0398 
    125 S125       -3.2655  -20.3120  -51.2805 S.3       23 UNK        -0.2404 
    126 C126       -1.9806  -19.1387  -50.7470 C.3       23 UNK        -0.0205 
    127 H127        0.6031   -7.6655  -48.7115 H         1 UNK         0.0600 
    128 H128        0.4171   -7.6137  -46.9556 H         1 UNK         0.0600 
    129 H129        2.0184   -7.8351  -47.6683 H         1 UNK         0.0600 
    130 H130       -0.0421   -9.6086  -49.5757 H         1 UNK         0.3000 
    131 H131        0.9573  -12.1053  -48.8816 H         1 UNK         0.0600 
    132 H132        0.0112  -11.5038  -51.1099 H         1 UNK         0.0800 
    133 H133       -1.5998  -11.5149  -50.4599 H         1 UNK         0.0800 
    134 H134       -2.8891  -14.0302  -51.5881 H         1 UNK         0.0800 
    135 H135       -2.9448  -13.3264  -49.9908 H         1 UNK         0.0800 
    136 H136       -1.6860  -16.5361  -51.5299 H         1 UNK         0.1150 
    137 H137       -3.4797  -18.9629  -48.4874 H         1 UNK         0.1150 
    138 H138       -3.8525  -14.6957  -48.3233 H         1 UNK         0.1150 
    139 H139       -5.1461  -16.0678  -46.8039 H         1 UNK         0.0800 
    140 H140       -5.2586  -17.7903  -47.0626 H         1 UNK         0.0800 
    141 H141       -3.7591  -18.7155  -43.7557 H         1 UNK         0.0800 
    142 H142       -5.2060  -18.5654  -44.7162 H         1 UNK         0.0800 
    143 H143       -4.2091  -19.9830  -46.5068 H         1 UNK         0.0600 
    144 H144       -1.7136  -19.5947  -45.1732 H         1 UNK         0.3000 
    145 H145       -0.0310  -22.4239  -46.5158 H         1 UNK         0.0600 
    146 H146        1.5322  -20.7361  -47.4129 H         1 UNK         0.0600 
    147 H147        0.0916  -20.8062  -48.4143 H         1 UNK         0.0600 
    148 H148        0.3068  -19.4790  -47.2803 H         1 UNK         0.0600 
    149 H149        0.6883  -20.0985  -44.9344 H         1 UNK         0.3000 
    150 H150       -0.1913  -20.5776  -42.1453 H         1 UNK         0.0600 
    151 H151        0.1936  -22.8432  -41.2997 H         1 UNK         0.0600 
    152 H152        1.4400  -21.7819  -40.6656 H         1 UNK         0.0600 
    153 H153        1.8084  -22.8898  -41.9879 H         1 UNK         0.0600 
    154 H154        1.4548  -19.2027  -42.5801 H         1 UNK         0.3000 
    155 H155        4.8053  -19.3500  -43.1439 H         1 UNK         0.0600 
    156 H156        4.4068  -19.7482  -45.5650 H         1 UNK         0.0600 
    157 H157        4.6261  -18.0322  -45.2618 H         1 UNK         0.0600 
    158 H158        3.0099  -18.6812  -45.5375 H         1 UNK         0.0600 
    159 H159        2.9102  -17.2131  -43.5500 H         1 UNK         0.3000 
    160 H160        2.4143  -16.4805  -40.0901 H         1 UNK         0.0600 
    161 H161        3.8366  -14.9326  -42.3222 H         1 UNK         0.0600 
    162 H162        3.1063  -14.2351  -40.8787 H         1 UNK         0.0600 
    163 H163        4.5114  -15.2810  -40.7346 H         1 UNK         0.0600 
    164 H164        1.3700  -15.2507  -42.4232 H         1 UNK         0.3000 
    165 H165       -1.4660  -17.4130  -42.8763 H         1 UNK         0.0600 
    166 H166       -2.5682  -15.2143  -42.8050 H         1 UNK         0.0600 
    167 H167       -2.0672  -15.6792  -41.1871 H         1 UNK         0.0600 
    168 H168       -1.1447  -14.4739  -42.0760 H         1 UNK         0.0600 
    169 H169       -0.3585  -15.1650  -44.3235 H         1 UNK         0.3000 
    170 H170        1.5579  -17.0815  -46.6009 H         1 UNK         0.0600 
    171 H171       -0.7122  -17.4403  -47.5598 H         1 UNK         0.0600 
    172 H172       -1.1700  -15.8069  -47.1229 H         1 UNK         0.0600 
    173 H173        0.0831  -16.0762  -48.3310 H         1 UNK         0.0600 
    174 H174        0.7096  -14.3285  -46.5092 H         1 UNK         0.3000 
    175 H175        3.5167  -13.2331  -44.5159 H         1 UNK         0.0600 
    176 H176        2.6893  -12.8426  -47.4387 H         1 UNK         0.0600 
    177 H177        3.7361  -11.7731  -46.5085 H         1 UNK         0.0600 
    178 H178        4.2619  -13.4070  -46.8881 H         1 UNK         0.0600 
    179 H179        1.4273  -11.6937  -45.5804 H         1 UNK         0.3000 
    180 H180       -0.7095  -11.7766  -42.6800 H         1 UNK         0.0600 
    181 H181        1.1599  -10.1856  -42.3186 H         1 UNK         0.0600 
    182 H182        1.1300   -9.7203  -44.0147 H         1 UNK         0.0600 
    183 H183       -0.2458   -9.3607  -42.9744 H         1 UNK         0.0600 
    184 H184       -0.5968  -10.7717  -45.4803 H         1 UNK         0.3000 
    185 H185       -3.2362  -12.8227  -46.5243 H         1 UNK         0.0600 
    186 H186       -4.6503  -11.0919  -45.3994 H         1 UNK         0.0600 
    187 H187       -3.5699   -9.8254  -45.9692 H         1 UNK         0.0600 
    188 H188       -4.5066  -10.7792  -47.1212 H         1 UNK         0.0600 
    189 H189       -2.0871  -10.5848  -47.8174 H         1 UNK         0.3000 
    190 H190       -2.7918  -21.4840  -43.6355 H         1 UNK         0.3000 
    191 H191       -5.2445  -22.8161  -42.7937 H         1 UNK         0.0600 
    192 H192       -3.7554  -23.8959  -41.1328 H         1 UNK         0.0600 
    193 H193       -3.5094  -22.1568  -41.1379 H         1 UNK         0.0600 
    194 H194       -2.3351  -23.2181  -41.9141 H         1 UNK         0.0600 
    195 H195       -2.2460  -23.6962  -44.5517 H         1 UNK         0.3000 
    196 H196       -2.8573  -26.4496  -44.9243 H         1 UNK         0.0600 
    197 H197       -1.0277  -26.3454  -46.6174 H         1 UNK         0.0600 
    198 H198       -0.5655  -25.5267  -45.1317 H         1 UNK         0.0600 
    199 H199       -1.0399  -24.5887  -46.5448 H         1 UNK         0.0600 
    200 H200       -3.2348  -23.6487  -47.1218 H         1 UNK         0.3000 
    201 H201       -4.3767  -23.1475  -48.8850 H         1 UNK         0.0600 
    202 H202       -6.4058  -23.6648  -47.5831 H         1 UNK         0.0600 
    203 H203       -6.3645  -25.3461  -48.1059 H         1 UNK         0.0600 
    204 H204       -6.6490  -24.0655  -49.2763 H         1 UNK         0.0600 
    205 H205       -4.5028  -26.7046  -48.8266 H         1 UNK         0.3000 
    206 H206       -4.1287  -28.3327  -50.3152 H         1 UNK         0.0600 
    207 H207       -1.8156  -27.5920  -49.7067 H         1 UNK         0.0600 
    208 H208       -1.8694  -28.2809  -51.3215 H         1 UNK         0.0600 
    209 H209       -1.7784  -26.5377  -51.1170 H         1 UNK         0.0600 
    210 H210       -6.1587  -26.7547  -51.2777 H         1 UNK         0.3000 
    211 H211       -7.3986  -26.1652  -53.0294 H         1 UNK         0.0600 
    212 H212       -5.6784  -28.0804  -54.6934 H         1 UNK         0.0600 
    213 H213       -7.2863  -27.4972  -55.0968 H         1 UNK         0.0600 
    214 H214       -7.0642  -28.5518  -53.7109 H         1 UNK         0.0600 
    215 H215       -5.3715  -24.4714  -52.3258 H         1 UNK         0.3000 
    216 H216       -4.6622  -22.4660  -52.7720 H         1 UNK         0.0600 
    217 H217       -6.3999  -22.0964  -54.5231 H         1 UNK         0.0600 
    218 H218       -5.3253  -22.7810  -55.7446 H         1 UNK         0.0600 
    219 H219       -4.8901  -21.2974  -54.9301 H         1 UNK         0.0600 
    220 H220       -3.2213  -25.2794  -53.7606 H         1 UNK         0.3000 
    221 H221       -0.9495  -24.2055  -55.1841 H         1 UNK         0.0600 
    222 H222       -1.2256  -26.9412  -53.8522 H         1 UNK         0.0600 
    223 H223       -1.8638  -26.5576  -55.4528 H         1 UNK         0.0600 
    224 H224       -0.1346  -26.4896  -55.1495 H         1 UNK         0.0600 
    225 H225       -1.7079  -24.1166  -51.8442 H         1 UNK         0.3000 
    226 H226        0.7276  -24.7604  -50.6279 H         1 UNK         0.0600 
    227 H227       -1.3016  -24.5552  -49.3186 H         1 UNK         0.0600 
    228 H228       -0.1546  -23.3885  -48.7008 H         1 UNK         0.0600 
    229 H229       -1.4795  -22.8448  -49.7248 H         1 UNK         0.0600 
    230 H230       -0.2638  -21.6183  -52.0021 H         1 UNK         0.3000 
    231 H231        2.4986  -20.8774  -52.3625 H         1 UNK         0.0600 
    232 H232        2.2342  -20.1220  -49.9821 H         1 UNK         0.0600 
    233 H233        2.4839  -18.7714  -51.0656 H         1 UNK         0.0600 
    234 H234        0.8752  -19.1069  -50.4516 H         1 UNK         0.0600 
    235 H235        0.2359  -21.4592  -54.0181 H         1 UNK         0.3000 
    236 H236       -0.8893  -20.8138  -55.8190 H         1 UNK         0.0600 
    237 H237        1.3658  -20.1856  -56.6506 H         1 UNK         0.0600 
    238 H238        0.1286  -19.1299  -57.3140 H         1 UNK         0.0600 
    239 H239        1.1679  -18.5516  -56.0203 H         1 UNK         0.0600 
    240 H240       -2.4414  -20.3825  -53.9504 H         1 UNK         0.3000 
    241 H241       -2.9878  -17.7360  -53.0989 H         1 UNK         0.0600 
    242 H242       -5.7123  -16.4027  -54.9596 H         1 UNK         0.3800 
    243 H243       -4.8367  -16.3020  -53.4598 H         1 UNK         0.3800 
    244 H244       -4.8716  -18.6394  -51.8822 H         1 UNK         0.0800 
    245 H245       -4.9876  -20.0324  -52.9108 H         1 UNK         0.0800 
    246 H246       -1.3403  -19.6485  -50.0275 H         1 UNK         0.0800 
    247 H247       -1.3481  -18.8805  -51.5957 H         1 UNK         0.0800 
@<TRIPOS>BOND
     1    1    2 1    
     2    1  127 1    
     3    1  128 1    
     4    1  129 1    
     5    2    3 2    
     6    2    4 am   BACKBONE|DICT|INTERRES
     7    4    5 1    
     8    4  130 1    
     9    5    6 1    
    10    5   65 1    
    11    5  131 1    
    12    6    7 1    
    13    6  132 1    
    14    6  133 1    
    15    7    8 1    
    16    8    9 1    
    17    8  134 1    
    18    8  135 1    
    19    9   10 ar   
    20    9   14 ar   
    21   10   11 ar   
    22   10  136 1    
    23   11   12 ar   
    24   11  126 1    
    25   12   13 ar   
    26   12  137 1    
    27   13   14 ar   
    28   13   15 1    
    29   14  138 1    
    30   15   16 1    
    31   15  139 1    
    32   15  140 1    
    33   16   17 1    
    34   17   18 1    
    35   17  141 1    
    36   17  142 1    
    37   18   19 1    
    38   18   67 1    
    39   18  143 1    
    40   19   20 am   BACKBONE|DICT|INTERRES
    41   19  144 1    
    42   20   21 2    
    43   20   22 1    
    44   22   23 1    
    45   22   24 1    
    46   22  145 1    
    47   23  146 1    
    48   23  147 1    
    49   23  148 1    
    50   24   25 am   BACKBONE|DICT|INTERRES
    51   24  149 1    
    52   25   26 2    
    53   25   27 1    
    54   27   28 1    
    55   27   29 1    
    56   27  150 1    
    57   28  151 1    
    58   28  152 1    
    59   28  153 1    
    60   29   30 am   BACKBONE|DICT|INTERRES
    61   29  154 1    
    62   30   31 2    
    63   30   32 1    
    64   32   33 1    
    65   32   34 1    
    66   32  155 1    
    67   33  156 1    
    68   33  157 1    
    69   33  158 1    
    70   34   35 am   BACKBONE|DICT|INTERRES
    71   34  159 1    
    72   35   36 2    
    73   35   37 1    
    74   37   38 1    
    75   37   39 1    
    76   37  160 1    
    77   38  161 1    
    78   38  162 1    
    79   38  163 1    
    80   39   40 am   BACKBONE|DICT|INTERRES
    81   39  164 1    
    82   40   41 2    
    83   40   42 1    
    84   42   43 1    
    85   42   44 1    
    86   42  165 1    
    87   43  166 1    
    88   43  167 1    
    89   43  168 1    
    90   44   45 am   BACKBONE|DICT|INTERRES
    91   44  169 1    
    92   45   46 2    
    93   45   47 1    
    94   47   48 1    
    95   47   49 1    
    96   47  170 1    
    97   48  171 1    
    98   48  172 1    
    99   48  173 1    
   100   49   50 am   BACKBONE|DICT|INTERRES
   101   49  174 1    
   102   50   51 2    
   103   50   52 1    
   104   52   53 1    
   105   52   54 1    
   106   52  175 1    
   107   53  176 1    
   108   53  177 1    
   109   53  178 1    
   110   54   55 am   BACKBONE|DICT|INTERRES
   111   54  179 1    
   112   55   56 2    
   113   55   57 1    
   114   57   58 1    
   115   57   59 1    
   116   57  180 1    
   117   58  181 1    
   118   58  182 1    
   119   58  183 1    
   120   59   60 am   BACKBONE|DICT|INTERRES
   121   59  184 1    
   122   60   61 2    
   123   60   62 1    
   124   62   63 1    
   125   62   64 1    
   126   62  185 1    
   127   63  186 1    
   128   63  187 1    
   129   63  188 1    
   130   64   65 am   BACKBONE|DICT|INTERRES
   131   64  189 1    
   132   65   66 2    
   133   67   68 2    
   134   67   69 am   BACKBONE|DICT|INTERRES
   135   69   70 1    
   136   69  190 1    
   137   70   71 1    
   138   70   72 1    
   139   70  191 1    
   140   71  192 1    
   141   71  193 1    
   142   71  194 1    
   143   72   73 2    
   144   72   74 am   BACKBONE|DICT|INTERRES
   145   74   75 1    
   146   74  195 1    
   147   75   76 1    
   148   75   77 1    
   149   75  196 1    
   150   76  197 1    
   151   76  198 1    
   152   76  199 1    
   153   77   78 2    
   154   77   79 am   BACKBONE|DICT|INTERRES
   155   79   80 1    
   156   79  200 1    
   157   80   81 1    
   158   80   82 1    
   159   80  201 1    
   160   81  202 1    
   161   81  203 1    
   162   81  204 1    
   163   82   83 2    
   164   82   84 am   BACKBONE|DICT|INTERRES
   165   84   85 1    
   166   84  205 1    
   167   85   86 1    
   168   85   87 1    
   169   85  206 1    
   170   86  207 1    
   171   86  208 1    
   172   86  209 1    
   173   87   88 2    
   174   87   89 am   BACKBONE|DICT|INTERRES
   175   89   90 1    
   176   89  210 1    
   177   90   91 1    
   178   90   92 1    
   179   90  211 1    
   180   91  212 1    
   181   91  213 1    
   182   91  214 1    
   183   92   93 2    
   184   92   94 am   BACKBONE|DICT|INTERRES
   185   94   95 1    
   186   94  215 1    
   187   95   96 1    
   188   95   97 1    
   189   95  216 1    
   190   96  217 1    
   191   96  218 1    
   192   96  219 1    
   193   97   98 2    
   194   97   99 am   BACKBONE|DICT|INTERRES
   195   99  100 1    
   196   99  220 1    
   197  100  101 1    
   198  100  102 1    
   199  100  221 1    
   200  101  222 1    
   201  101  223 1    
   202  101  224 1    
   203  102  103 2    
   204  102  104 am   BACKBONE|DICT|INTERRES
   205  104  105 1    
   206  104  225 1    
   207  105  106 1    
   208  105  107 1    
   209  105  226 1    
   210  106  227 1    
   211  106  228 1    
   212  106  229 1    
   213  107  108 2    
   214  107  109 am   BACKBONE|DICT|INTERRES
   215  109  110 1    
   216  109  230 1    
   217  110  111 1    
   218  110  112 1    
   219  110  231 1    
   220  111  232 1    
   221  111  233 1    
   222  111  234 1    
   223  112  113 2    
   224  112  114 am   BACKBONE|DICT|INTERRES
   225  114  115 1    
   226  114  235 1    
   227  115  116 1    
   228  115  117 1    
   229  115  236 1    
   230  116  237 1    
   231  116  238 1    
   232  116  239 1    
   233  117  118 2    
   234  117  119 am   BACKBONE|DICT|INTERRES
   235  119  120 1    
   236  119  240 1    
   237  120  121 1    
   238  120  124 1    
   239  120  241 1    
   240  121  122 am   BACKBONE|DICT|INTERRES
   241  121  123 2    
   242  122  242 1    
   243  122  243 1    
   244  124  125 1    
   245  124  244 1    
   246  124  245 1    
   247  125  126 1    
   248  126  246 1    
   249  126  247 1    
@<TRIPOS>SUBSTRUCTURE
     1 UNK         1 GROUP             0       ****    0 ROOT    
