@<TRIPOS>MOLECULE
3R540
247   249    1
SMALL
USER_CHARGES


@<TRIPOS>ATOM
      1 CA          4.6403  -10.6379  -53.3881 C.3       0 UNK        -0.1800 
      2 C           3.6756  -10.6381  -52.2104 C.2       0 UNK         0.5000 
      3 O           2.7762   -9.7985  -52.1546 O.2       0 UNK        -0.5000 
      4 N           3.8652  -11.5678  -51.2670 N.am      1 UNK        -0.5000 
      5 CA          2.9934  -11.7792  -50.1081 C.3       1 UNK         0.1400 
      6 C6          3.7451  -12.5210  -48.9721 C.3       23 UNK        -0.0398 
      7 S7          4.2548  -14.2312  -49.3737 S.3       23 UNK        -0.2404 
      8 C8          3.0107  -15.1832  -48.4466 C.3       23 UNK        -0.0205 
      9 C9          2.7026  -16.5053  -49.1243 C.ar      23 UNK        -0.0193 
     10 C10         1.8923  -16.5246  -50.2614 C.ar      23 UNK        -0.1150 
     11 C11         1.5698  -17.7317  -50.8836 C.ar      23 UNK        -0.0193 
     12 C12         2.0723  -18.9272  -50.3672 C.ar      23 UNK        -0.1150 
     13 C13         2.8685  -18.9232  -49.2179 C.ar      23 UNK        -0.0193 
     14 C14         3.1901  -17.7077  -48.6056 C.ar      23 UNK        -0.1150 
     15 C15         3.3613  -20.2333  -48.6256 C.3       23 UNK        -0.0205 
     16 S16         2.1215  -20.9601  -47.5091 S.3       23 UNK        -0.2404 
     17 C17         0.8799  -21.5775  -48.6991 C.3       23 UNK        -0.0398 
     18 CA         -0.0589  -22.6765  -48.1442 C.3       11 UNK         0.1400 
     19 N           0.6452  -23.6712  -47.3352 N.am      11 UNK        -0.5000 
     20 C           0.1247  -24.8164  -46.8811 C.2       10 UNK         0.5000 
     21 O          -1.0163  -25.2010  -47.1438 O.2       10 UNK        -0.5000 
     22 CA          1.0052  -25.6394  -45.9231 C.3       10 UNK         0.1400 
     23 CB          1.7725  -26.7164  -46.7028 C.3       10 UNK        -0.1800 
     24 N           1.9562  -24.8475  -45.1282 N.am      10 UNK        -0.5000 
     25 C           1.6471  -23.8308  -44.3097 C.2       9 UNK         0.5000 
     26 O           0.5041  -23.3825  -44.1735 O.2       9 UNK        -0.5000 
     27 CA          2.8102  -23.2071  -43.5251 C.3       9 UNK         0.1400 
     28 CB          3.6689  -22.2931  -44.4154 C.3       9 UNK        -0.1800 
     29 N           2.2647  -22.4374  -42.4141 N.am      9 UNK        -0.5000 
     30 C           2.8851  -22.1706  -41.2602 C.2       8 UNK         0.5000 
     31 O           4.0361  -22.5332  -41.0089 O.2       8 UNK        -0.5000 
     32 CA          2.0682  -21.3937  -40.2034 C.3       8 UNK         0.1400 
     33 CB          2.9506  -20.6826  -39.1550 C.3       8 UNK        -0.1800 
     34 N           1.0839  -20.4714  -40.7861 N.am      8 UNK        -0.5000 
     35 C           1.3310  -19.3770  -41.5219 C.2       7 UNK         0.5000 
     36 O           2.4580  -18.9422  -41.7708 O.2       7 UNK        -0.5000 
     37 CA          0.0814  -18.6285  -42.0291 C.3       7 UNK         0.1400 
     38 CB         -0.3874  -17.6075  -40.9822 C.3       7 UNK        -0.1800 
     39 N           0.2711  -17.9504  -43.3151 N.am      7 UNK        -0.5000 
     40 C           0.6462  -18.5452  -44.4600 C.2       6 UNK         0.5000 
     41 O           0.8699  -19.7521  -44.5474 O.2       6 UNK        -0.5000 
     42 CA          0.7557  -17.6738  -45.7317 C.3       6 UNK         0.1400 
     43 CB         -0.2840  -18.1023  -46.7821 C.3       6 UNK        -0.1800 
     44 N           0.5987  -16.2398  -45.4773 N.am      6 UNK        -0.5000 
     45 C           1.5492  -15.4473  -44.9600 C.2       5 UNK         0.5000 
     46 O           2.6919  -15.8330  -44.7145 O.2       5 UNK        -0.5000 
     47 CA          1.1693  -13.9840  -44.6430 C.3       5 UNK         0.1400 
     48 CB          1.7870  -13.0224  -45.6650 C.3       5 UNK        -0.1800 
     49 N          -0.2743  -13.7474  -44.5804 N.am      5 UNK        -0.5000 
     50 C          -1.0765  -14.2414  -43.6274 C.2       4 UNK         0.5000 
     51 O          -0.6612  -14.9060  -42.6793 O.2       4 UNK        -0.5000 
     52 CA         -2.5917  -13.9929  -43.7611 C.3       4 UNK         0.1400 
     53 CB         -3.0375  -12.8795  -42.8013 C.3       4 UNK        -0.1800 
     54 N          -3.0479  -13.6613  -45.1138 N.am      4 UNK        -0.5000 
     55 C          -2.9248  -14.4345  -46.2019 C.2       3 UNK         0.5000 
     56 O          -2.3385  -15.5177  -46.2024 O.2       3 UNK        -0.5000 
     57 CA         -3.5529  -13.9136  -47.5122 C.3       3 UNK         0.1400 
     58 CB         -4.3677  -12.6103  -47.3507 C.3       3 UNK        -0.1800 
     59 N          -2.5727  -13.7525  -48.5873 N.am      3 UNK        -0.5000 
     60 C          -1.4408  -13.0366  -48.5610 C.2       2 UNK         0.5000 
     61 O          -1.0124  -12.4423  -47.5667 O.2       2 UNK        -0.5000 
     62 CA         -0.6799  -12.9470  -49.8917 C.3       2 UNK         0.1400 
     63 CB         -1.4551  -12.0937  -50.9168 C.3       2 UNK        -0.1800 
     64 N           0.6432  -12.3673  -49.6723 N.am      2 UNK        -0.5000 
     65 C           1.6741  -12.4786  -50.5181 C.2       1 UNK         0.5000 
     66 O           1.6131  -13.1132  -51.5753 O.2       1 UNK        -0.5000 
     67 C          -1.3197  -22.0977  -47.4600 C.2       11 UNK         0.5000 
     68 O          -2.2604  -21.7442  -48.1697 O.2       11 UNK        -0.5000 
     69 N          -1.3584  -22.0701  -46.1204 N.am      12 UNK        -0.5000 
     70 CA         -2.5592  -21.7611  -45.3431 C.3       12 UNK         0.1400 
     71 CB         -2.2394  -20.6987  -44.2867 C.3       12 UNK        -0.1800 
     72 C          -3.1295  -23.0146  -44.6631 C.2       12 UNK         0.5000 
     73 O          -4.3481  -23.1761  -44.6329 O.2       12 UNK        -0.5000 
     74 N          -2.2595  -23.8764  -44.1190 N.am      13 UNK        -0.5000 
     75 CA         -2.6542  -25.0272  -43.3027 C.3       13 UNK         0.1400 
     76 CB         -1.4291  -25.5649  -42.5476 C.3       13 UNK        -0.1800 
     77 C          -3.3592  -26.1523  -44.0847 C.2       13 UNK         0.5000 
     78 O          -4.1461  -26.8860  -43.4845 O.2       13 UNK        -0.5000 
     79 N          -3.0795  -26.2693  -45.3895 N.am      14 UNK        -0.5000 
     80 CA         -3.6981  -27.2468  -46.2838 C.3       14 UNK         0.1400 
     81 CB         -2.6313  -28.2326  -46.7898 C.3       14 UNK        -0.1800 
     82 C          -4.4097  -26.5521  -47.4543 C.2       14 UNK         0.5000 
     83 O          -5.5704  -26.8634  -47.7229 O.2       14 UNK        -0.5000 
     84 N          -3.7132  -25.6303  -48.1349 N.am      15 UNK        -0.5000 
     85 CA         -4.2046  -24.9772  -49.3538 C.3       15 UNK         0.1400 
     86 CB         -3.0037  -24.5564  -50.2111 C.3       15 UNK        -0.1800 
     87 C          -5.1479  -23.7833  -49.0988 C.2       15 UNK         0.5000 
     88 O          -5.8007  -23.3284  -50.0410 O.2       15 UNK        -0.5000 
     89 N          -5.2046  -23.2959  -47.8486 N.am      16 UNK        -0.5000 
     90 CA         -6.0934  -22.2352  -47.3506 C.3       16 UNK         0.1400 
     91 CB         -7.5431  -22.7592  -47.2855 C.3       16 UNK        -0.1800 
     92 C          -5.9837  -20.8982  -48.1156 C.2       16 UNK         0.5000 
     93 O          -6.9824  -20.1892  -48.2492 O.2       16 UNK        -0.5000 
     94 N          -4.7891  -20.5991  -48.6483 N.am      17 UNK        -0.5000 
     95 CA         -4.4146  -19.4914  -49.5389 C.3       17 UNK         0.1400 
     96 CB         -4.6162  -18.1277  -48.8539 C.3       17 UNK        -0.1800 
     97 C          -5.0843  -19.5357  -50.9309 C.2       17 UNK         0.5000 
     98 O          -4.4429  -19.1881  -51.9221 O.2       17 UNK        -0.5000 
     99 N          -6.3434  -19.9827  -50.9981 N.am      18 UNK        -0.5000 
    100 CA        -7.1621  -20.1129  -52.1999 C.3       18 UNK         0.1400 
    101 CB        -8.5772  -20.5577  -51.8006 C.3       18 UNK        -0.1800 
    102 C         -6.5610  -21.0680  -53.2438 C.2       18 UNK         0.5000 
    103 O         -6.4148  -20.6769  -54.4021 O.2       18 UNK        -0.5000 
    104 N         -6.1779  -22.2820  -52.8198 N.am      19 UNK        -0.5000 
    105 CA        -5.5581  -23.2803  -53.6996 C.3       19 UNK         0.1400 
    106 CB        -5.7659  -24.6893  -53.1249 C.3       19 UNK        -0.1800 
    107 C         -4.0687  -22.9904  -53.9736 C.2       19 UNK         0.5000 
    108 O         -3.5179  -23.5203  -54.9387 O.2       19 UNK        -0.5000 
    109 N         -3.4565  -22.1252  -53.1522 N.am      20 UNK        -0.5000 
    110 CA        -2.1236  -21.5591  -53.3730 C.3       20 UNK         0.1400 
    111 CB        -1.5084  -21.1838  -52.0141 C.3       20 UNK        -0.1800 
    112 C         -2.1489  -20.3494  -54.3367 C.2       20 UNK         0.5000 
    113 O         -1.0820  -19.8586  -54.7067 O.2       20 UNK        -0.5000 
    114 N         -3.3545  -19.9090  -54.7349 N.am      21 UNK        -0.5000 
    115 CA        -3.6626  -18.8016  -55.6431 C.3       21 UNK         0.1400 
    116 CB        -3.1330  -19.0898  -57.0638 C.3       21 UNK        -0.1800 
    117 C         -3.2263  -17.4284  -55.0933 C.2       21 UNK         0.5000 
    118 O         -2.7341  -16.5875  -55.8490 O.2       21 UNK        -0.5000 
    119 N         -3.4209  -17.2205  -53.7868 N.am      22 UNK        -0.5000 
    120 CA        -3.0128  -16.0081  -53.0621 C.3       22 UNK         0.1400 
    121 C         -3.9675  -15.6215  -51.8969 C.2       22 UNK         0.5000 
    122 N         -5.2133  -16.0786  -51.8904 N.am      22 UNK        -0.7600 
    123 O         -3.5880  -14.8811  -50.9939 O.2       22 UNK        -0.5000 
    124 C124       -1.5129  -16.0412  -52.6712 C.3       23 UNK        -0.0398 
    125 S125       -1.0671  -17.4530  -51.6015 S.3       23 UNK        -0.2404 
    126 C126        0.6607  -17.7371  -52.0984 C.3       23 UNK        -0.0205 
    127 H127        5.3892  -11.4253  -53.2988 H         1 UNK         0.0600 
    128 H128        4.0950  -10.7919  -54.3192 H         1 UNK         0.0600 
    129 H129        5.1588   -9.6811  -53.4491 H         1 UNK         0.0600 
    130 H130        4.5938  -12.2571  -51.3870 H         1 UNK         0.3000 
    131 H131        2.7215  -10.7947  -49.7208 H         1 UNK         0.0600 
    132 H132        3.1483  -12.5160  -48.0624 H         1 UNK         0.0800 
    133 H133        4.6465  -11.9626  -48.7158 H         1 UNK         0.0800 
    134 H134        2.0807  -14.6207  -48.3674 H         1 UNK         0.0800 
    135 H135        3.3677  -15.3406  -47.4281 H         1 UNK         0.0800 
    136 H136        1.5004  -15.5992  -50.6584 H         1 UNK         0.1150 
    137 H137        1.8230  -19.8628  -50.8466 H         1 UNK         0.1150 
    138 H138        3.8032  -17.6998  -47.7153 H         1 UNK         0.1150 
    139 H139        3.6144  -20.9398  -49.4175 H         1 UNK         0.0800 
    140 H140        4.2812  -20.0650  -48.0638 H         1 UNK         0.0800 
    141 H141        0.3072  -20.7346  -49.0907 H         1 UNK         0.0800 
    142 H142        1.4189  -21.9878  -49.5539 H         1 UNK         0.0800 
    143 H143       -0.4229  -23.2203  -49.0155 H         1 UNK         0.0600 
    144 H144        1.5768  -23.4141  -47.0421 H         1 UNK         0.3000 
    145 H145        0.3336  -26.1459  -45.2302 H         1 UNK         0.0600 
    146 H146        2.3159  -27.3798  -46.0296 H         1 UNK         0.0600 
    147 H147        1.0909  -27.3372  -47.2863 H         1 UNK         0.0600 
    148 H148        2.4912  -26.2766  -47.3954 H         1 UNK         0.0600 
    149 H149        2.9216  -25.1388  -45.1851 H         1 UNK         0.3000 
    150 H150        3.4249  -24.0213  -43.1359 H         1 UNK         0.0600 
    151 H151        4.0253  -22.8165  -45.3032 H         1 UNK         0.0600 
    152 H152        4.5456  -21.9322  -43.8778 H         1 UNK         0.0600 
    153 H153        3.1048  -21.4213  -44.7476 H         1 UNK         0.0600 
    154 H154        1.3102  -22.1321  -42.5554 H         1 UNK         0.3000 
    155 H155        1.4872  -22.1489  -39.6721 H         1 UNK         0.0600 
    156 H156        2.3431  -20.1471  -38.4254 H         1 UNK         0.0600 
    157 H157        3.6327  -19.9670  -39.6146 H         1 UNK         0.0600 
    158 H158        3.5579  -21.4014  -38.6038 H         1 UNK         0.0600 
    159 H159        0.1192  -20.7264  -40.6266 H         1 UNK         0.3000 
    160 H160       -0.7177  -19.3574  -42.1662 H         1 UNK         0.0600 
    161 H161        0.3437  -16.8094  -40.8464 H         1 UNK         0.0600 
    162 H162       -0.5422  -18.0792  -40.0111 H         1 UNK         0.0600 
    163 H163       -1.3342  -17.1518  -41.2725 H         1 UNK         0.0600 
    164 H164        0.1170  -16.9508  -43.3180 H         1 UNK         0.3000 
    165 H165        1.7478  -17.8497  -46.1504 H         1 UNK         0.0600 
    166 H166       -1.3031  -17.9488  -46.4276 H         1 UNK         0.0600 
    167 H167       -0.1609  -17.5450  -47.7113 H         1 UNK         0.0600 
    168 H168       -0.1858  -19.1597  -47.0256 H         1 UNK         0.0600 
    169 H169       -0.3226  -15.8540  -45.6567 H         1 UNK         0.3000 
    170 H170        1.5919  -13.7492  -43.6637 H         1 UNK         0.0600 
    171 H171        2.8675  -13.1585  -45.7269 H         1 UNK         0.0600 
    172 H172        1.3708  -13.1837  -46.6578 H         1 UNK         0.0600 
    173 H173        1.6047  -11.9833  -45.3904 H         1 UNK         0.0600 
    174 H174       -0.6872  -13.2314  -45.3476 H         1 UNK         0.3000 
    175 H175       -3.0919  -14.9177  -43.4668 H         1 UNK         0.0600 
    176 H176       -2.5927  -11.9194  -43.0663 H         1 UNK         0.0600 
    177 H177       -4.1214  -12.7621  -42.8076 H         1 UNK         0.0600 
    178 H178       -2.7436  -13.1054  -41.7753 H         1 UNK         0.0600 
    179 H179       -3.5185  -12.7743  -45.2180 H         1 UNK         0.3000 
    180 H180       -4.2409  -14.6926  -47.8443 H         1 UNK         0.0600 
    181 H181       -3.7440  -11.7703  -47.0421 H         1 UNK         0.0600 
    182 H182       -5.1651  -12.7280  -46.6158 H         1 UNK         0.0600 
    183 H183       -4.8437  -12.3344  -48.2919 H         1 UNK         0.0600 
    184 H184       -2.8364  -14.2022  -49.4633 H         1 UNK         0.3000 
    185 H185       -0.5636  -13.9648  -50.2680 H         1 UNK         0.0600 
    186 H186       -1.5438  -11.0584  -50.5860 H         1 UNK         0.0600 
    187 H187       -0.9620  -12.0926  -51.8887 H         1 UNK         0.0600 
    188 H188       -2.4649  -12.4723  -51.0741 H         1 UNK         0.0600 
    189 H189        0.7336  -11.8688  -48.7956 H         1 UNK         0.3000 
    190 H190       -0.5439  -22.3740  -45.5975 H         1 UNK         0.3000 
    191 H191       -3.3425  -21.3543  -45.9850 H         1 UNK         0.0600 
    192 H192       -3.0996  -20.5059  -43.6442 H         1 UNK         0.0600 
    193 H193       -1.9720  -19.7538  -44.7570 H         1 UNK         0.0600 
    194 H194       -1.4124  -21.0128  -43.6498 H         1 UNK         0.0600 
    195 H195       -1.2629  -23.6743  -44.1623 H         1 UNK         0.3000 
    196 H196       -3.3655  -24.6677  -42.5559 H         1 UNK         0.0600 
    197 H197       -1.7112  -26.3749  -41.8738 H         1 UNK         0.0600 
    198 H198       -0.9655  -24.7859  -41.9418 H         1 UNK         0.0600 
    199 H199       -0.6724  -25.9548  -43.2257 H         1 UNK         0.0600 
    200 H200       -2.4098  -25.6353  -45.8109 H         1 UNK         0.3000 
    201 H201       -4.4563  -27.8272  -45.7540 H         1 UNK         0.0600 
    202 H202       -2.1687  -28.7679  -45.9606 H         1 UNK         0.0600 
    203 H203       -1.8386  -27.7309  -47.3450 H         1 UNK         0.0600 
    204 H204       -3.0731  -28.9782  -47.4520 H         1 UNK         0.0600 
    205 H205       -2.7502  -25.4417  -47.8684 H         1 UNK         0.3000 
    206 H206       -4.7739  -25.7095  -49.9301 H         1 UNK         0.0600 
    207 H207       -2.3492  -25.4018  -50.4233 H         1 UNK         0.0600 
    208 H208       -3.3203  -24.1426  -51.1668 H         1 UNK         0.0600 
    209 H209       -2.4164  -23.7918  -49.7148 H         1 UNK         0.0600 
    210 H210       -4.6232  -23.7383  -47.1517 H         1 UNK         0.3000 
    211 H211       -5.7857  -22.0092  -46.3317 H         1 UNK         0.0600 
    212 H212       -7.9491  -22.9464  -48.2803 H         1 UNK         0.0600 
    213 H213       -8.2003  -22.0423  -46.7920 H         1 UNK         0.0600 
    214 H214       -7.5995  -23.6893  -46.7200 H         1 UNK         0.0600 
    215 H215       -4.0229  -21.2462  -48.4720 H         1 UNK         0.3000 
    216 H216       -3.3434  -19.6078  -49.7069 H         1 UNK         0.0600 
    217 H217       -5.6711  -17.8914  -48.7136 H         1 UNK         0.0600 
    218 H218       -4.1778  -17.3283  -49.4508 H         1 UNK         0.0600 
    219 H219       -4.1306  -18.1007  -47.8782 H         1 UNK         0.0600 
    220 H220       -6.7900  -20.2125  -50.1151 H         1 UNK         0.3000 
    221 H221       -7.2323  -19.1241  -52.6574 H         1 UNK         0.0600 
    222 H222       -8.5669  -21.5180  -51.2830 H         1 UNK         0.0600 
    223 H223       -9.0465  -19.8283  -51.1401 H         1 UNK         0.0600 
    224 H224       -9.2177  -20.6618  -52.6775 H         1 UNK         0.0600 
    225 H225       -6.2752  -22.5318  -51.8391 H         1 UNK         0.3000 
    226 H226       -6.0677  -23.2504  -54.6652 H         1 UNK         0.0600 
    227 H227       -6.8253  -24.9047  -52.9861 H         1 UNK         0.0600 
    228 H228       -5.3661  -25.4476  -53.7991 H         1 UNK         0.0600 
    229 H229       -5.2725  -24.8167  -52.1649 H         1 UNK         0.0600 
    230 H230       -3.9950  -21.7236  -52.3986 H         1 UNK         0.3000 
    231 H231       -1.4864  -22.3206  -53.8271 H         1 UNK         0.0600 
    232 H232       -2.0608  -20.3804  -51.5301 H         1 UNK         0.0600 
    233 H233       -1.4907  -22.0360  -51.3351 H         1 UNK         0.0600 
    234 H234       -0.4796  -20.8430  -52.1327 H         1 UNK         0.0600 
    235 H235       -4.1674  -20.3667  -54.3443 H         1 UNK         0.3000 
    236 H236       -4.7508  -18.7626  -55.7061 H         1 UNK         0.0600 
    237 H237       -3.4754  -20.0606  -57.4221 H         1 UNK         0.0600 
    238 H238       -3.4876  -18.3402  -57.7721 H         1 UNK         0.0600 
    239 H239       -2.0433  -19.0831  -57.1007 H         1 UNK         0.0600 
    240 H240       -3.7882  -17.9715  -53.2052 H         1 UNK         0.3000 
    241 H241       -3.1295  -15.1670  -53.7477 H         1 UNK         0.0600 
    242 H242       -5.5453  -16.6778  -52.6280 H         1 UNK         0.3800 
    243 H243       -5.8320  -15.8079  -51.1440 H         1 UNK         0.3800 
    244 H244       -1.2154  -15.1142  -52.1816 H         1 UNK         0.0800 
    245 H245       -0.9219  -16.0885  -53.5863 H         1 UNK         0.0800 
    246 H246        1.0028  -16.9713  -52.7952 H         1 UNK         0.0800 
    247 H247        0.7252  -18.6861  -52.6325 H         1 UNK         0.0800 
@<TRIPOS>BOND
     1    1    2 1    
     2    1  127 1    
     3    1  128 1    
     4    1  129 1    
     5    2    3 2    
     6    2    4 am   BACKBONE|DICT|INTERRES
     7    4    5 1    
     8    4  130 1    
     9    5    6 1    
    10    5   65 1    
    11    5  131 1    
    12    6    7 1    
    13    6  132 1    
    14    6  133 1    
    15    7    8 1    
    16    8    9 1    
    17    8  134 1    
    18    8  135 1    
    19    9   10 ar   
    20    9   14 ar   
    21   10   11 ar   
    22   10  136 1    
    23   11   12 ar   
    24   11  126 1    
    25   12   13 ar   
    26   12  137 1    
    27   13   14 ar   
    28   13   15 1    
    29   14  138 1    
    30   15   16 1    
    31   15  139 1    
    32   15  140 1    
    33   16   17 1    
    34   17   18 1    
    35   17  141 1    
    36   17  142 1    
    37   18   19 1    
    38   18   67 1    
    39   18  143 1    
    40   19   20 am   BACKBONE|DICT|INTERRES
    41   19  144 1    
    42   20   21 2    
    43   20   22 1    
    44   22   23 1    
    45   22   24 1    
    46   22  145 1    
    47   23  146 1    
    48   23  147 1    
    49   23  148 1    
    50   24   25 am   BACKBONE|DICT|INTERRES
    51   24  149 1    
    52   25   26 2    
    53   25   27 1    
    54   27   28 1    
    55   27   29 1    
    56   27  150 1    
    57   28  151 1    
    58   28  152 1    
    59   28  153 1    
    60   29   30 am   BACKBONE|DICT|INTERRES
    61   29  154 1    
    62   30   31 2    
    63   30   32 1    
    64   32   33 1    
    65   32   34 1    
    66   32  155 1    
    67   33  156 1    
    68   33  157 1    
    69   33  158 1    
    70   34   35 am   BACKBONE|DICT|INTERRES
    71   34  159 1    
    72   35   36 2    
    73   35   37 1    
    74   37   38 1    
    75   37   39 1    
    76   37  160 1    
    77   38  161 1    
    78   38  162 1    
    79   38  163 1    
    80   39   40 am   BACKBONE|DICT|INTERRES
    81   39  164 1    
    82   40   41 2    
    83   40   42 1    
    84   42   43 1    
    85   42   44 1    
    86   42  165 1    
    87   43  166 1    
    88   43  167 1    
    89   43  168 1    
    90   44   45 am   BACKBONE|DICT|INTERRES
    91   44  169 1    
    92   45   46 2    
    93   45   47 1    
    94   47   48 1    
    95   47   49 1    
    96   47  170 1    
    97   48  171 1    
    98   48  172 1    
    99   48  173 1    
   100   49   50 am   BACKBONE|DICT|INTERRES
   101   49  174 1    
   102   50   51 2    
   103   50   52 1    
   104   52   53 1    
   105   52   54 1    
   106   52  175 1    
   107   53  176 1    
   108   53  177 1    
   109   53  178 1    
   110   54   55 am   BACKBONE|DICT|INTERRES
   111   54  179 1    
   112   55   56 2    
   113   55   57 1    
   114   57   58 1    
   115   57   59 1    
   116   57  180 1    
   117   58  181 1    
   118   58  182 1    
   119   58  183 1    
   120   59   60 am   BACKBONE|DICT|INTERRES
   121   59  184 1    
   122   60   61 2    
   123   60   62 1    
   124   62   63 1    
   125   62   64 1    
   126   62  185 1    
   127   63  186 1    
   128   63  187 1    
   129   63  188 1    
   130   64   65 am   BACKBONE|DICT|INTERRES
   131   64  189 1    
   132   65   66 2    
   133   67   68 2    
   134   67   69 am   BACKBONE|DICT|INTERRES
   135   69   70 1    
   136   69  190 1    
   137   70   71 1    
   138   70   72 1    
   139   70  191 1    
   140   71  192 1    
   141   71  193 1    
   142   71  194 1    
   143   72   73 2    
   144   72   74 am   BACKBONE|DICT|INTERRES
   145   74   75 1    
   146   74  195 1    
   147   75   76 1    
   148   75   77 1    
   149   75  196 1    
   150   76  197 1    
   151   76  198 1    
   152   76  199 1    
   153   77   78 2    
   154   77   79 am   BACKBONE|DICT|INTERRES
   155   79   80 1    
   156   79  200 1    
   157   80   81 1    
   158   80   82 1    
   159   80  201 1    
   160   81  202 1    
   161   81  203 1    
   162   81  204 1    
   163   82   83 2    
   164   82   84 am   BACKBONE|DICT|INTERRES
   165   84   85 1    
   166   84  205 1    
   167   85   86 1    
   168   85   87 1    
   169   85  206 1    
   170   86  207 1    
   171   86  208 1    
   172   86  209 1    
   173   87   88 2    
   174   87   89 am   BACKBONE|DICT|INTERRES
   175   89   90 1    
   176   89  210 1    
   177   90   91 1    
   178   90   92 1    
   179   90  211 1    
   180   91  212 1    
   181   91  213 1    
   182   91  214 1    
   183   92   93 2    
   184   92   94 am   BACKBONE|DICT|INTERRES
   185   94   95 1    
   186   94  215 1    
   187   95   96 1    
   188   95   97 1    
   189   95  216 1    
   190   96  217 1    
   191   96  218 1    
   192   96  219 1    
   193   97   98 2    
   194   97   99 am   BACKBONE|DICT|INTERRES
   195   99  100 1    
   196   99  220 1    
   197  100  101 1    
   198  100  102 1    
   199  100  221 1    
   200  101  222 1    
   201  101  223 1    
   202  101  224 1    
   203  102  103 2    
   204  102  104 am   BACKBONE|DICT|INTERRES
   205  104  105 1    
   206  104  225 1    
   207  105  106 1    
   208  105  107 1    
   209  105  226 1    
   210  106  227 1    
   211  106  228 1    
   212  106  229 1    
   213  107  108 2    
   214  107  109 am   BACKBONE|DICT|INTERRES
   215  109  110 1    
   216  109  230 1    
   217  110  111 1    
   218  110  112 1    
   219  110  231 1    
   220  111  232 1    
   221  111  233 1    
   222  111  234 1    
   223  112  113 2    
   224  112  114 am   BACKBONE|DICT|INTERRES
   225  114  115 1    
   226  114  235 1    
   227  115  116 1    
   228  115  117 1    
   229  115  236 1    
   230  116  237 1    
   231  116  238 1    
   232  116  239 1    
   233  117  118 2    
   234  117  119 am   BACKBONE|DICT|INTERRES
   235  119  120 1    
   236  119  240 1    
   237  120  121 1    
   238  120  124 1    
   239  120  241 1    
   240  121  122 am   BACKBONE|DICT|INTERRES
   241  121  123 2    
   242  122  242 1    
   243  122  243 1    
   244  124  125 1    
   245  124  244 1    
   246  124  245 1    
   247  125  126 1    
   248  126  246 1    
   249  126  247 1    
@<TRIPOS>SUBSTRUCTURE
     1 UNK         1 GROUP             0       ****    0 ROOT    
