@<TRIPOS>MOLECULE
3R540
247   249    1
SMALL
USER_CHARGES


@<TRIPOS>ATOM
      1 CA          2.4689   -8.3346  -47.7943 C.3       0 UNK        -0.1800 
      2 C           2.0903   -9.6983  -47.2368 C.2       0 UNK         0.5000 
      3 O           2.7687  -10.2059  -46.3443 O.2       0 UNK        -0.5000 
      4 N           0.9981  -10.2886  -47.7393 N.am      1 UNK        -0.5000 
      5 CA          0.5089  -11.6242  -47.3621 C.3       1 UNK         0.1400 
      6 C6         -0.6452  -12.1113  -48.2717 C.3       23 UNK        -0.0398 
      7 S7         -0.1951  -12.0795  -50.0387 S.3       23 UNK        -0.2404 
      8 C8         -1.7080  -12.7407  -50.8020 C.3       23 UNK        -0.0205 
      9 C9         -1.7737  -14.2589  -50.7248 C.ar      23 UNK        -0.0193 
     10 C10        -0.9344  -15.0311  -51.5334 C.ar      23 UNK        -0.1150 
     11 C11        -1.0100  -16.4252  -51.5069 C.ar      23 UNK        -0.0193 
     12 C12        -1.9485  -17.0424  -50.6774 C.ar      23 UNK        -0.1150 
     13 C13        -2.7876  -16.2886  -49.8513 C.ar      23 UNK        -0.0193 
     14 C14        -2.6885  -14.8926  -49.8763 C.ar      23 UNK        -0.1150 
     15 C15        -3.8320  -16.9729  -48.9725 C.3       23 UNK        -0.0205 
     16 S16        -3.1028  -17.9825  -47.6366 S.3       23 UNK        -0.2404 
     17 C17        -2.7198  -19.5386  -48.5143 C.3       23 UNK        -0.0398 
     18 CA         -2.8059  -20.8479  -47.6940 C.3       11 UNK         0.1400 
     19 N          -1.6448  -21.0600  -46.8243 N.am      11 UNK        -0.5000 
     20 C          -1.2800  -22.2677  -46.3707 C.2       10 UNK         0.5000 
     21 O          -1.9105  -23.2963  -46.6120 O.2       10 UNK        -0.5000 
     22 CA         -0.0307  -22.3505  -45.4797 C.3       10 UNK         0.1400 
     23 CB          1.2509  -22.2046  -46.3131 C.3       10 UNK        -0.1800 
     24 N          -0.0485  -21.3666  -44.4002 N.am      10 UNK        -0.5000 
     25 C          -0.9425  -21.3643  -43.4007 C.2       9 UNK         0.5000 
     26 O          -1.8197  -22.2172  -43.2649 O.2       9 UNK        -0.5000 
     27 CA         -0.8676  -20.1949  -42.4036 C.3       9 UNK         0.1400 
     28 CB          0.2071  -20.4580  -41.3384 C.3       9 UNK        -0.1800 
     29 N          -0.6103  -18.9111  -43.0559 N.am      9 UNK        -0.5000 
     30 C          -1.4333  -18.3293  -43.9403 C.2       8 UNK         0.5000 
     31 O          -2.5214  -18.7984  -44.2705 O.2       8 UNK        -0.5000 
     32 CA         -0.9326  -17.0327  -44.6013 C.3       8 UNK         0.1400 
     33 CB         -1.0611  -15.8449  -43.6370 C.3       8 UNK        -0.1800 
     34 N           0.4473  -17.1472  -45.0751 N.am      8 UNK        -0.5000 
     35 C           0.8669  -18.0285  -45.9957 C.2       7 UNK         0.5000 
     36 O           0.1283  -18.8145  -46.5880 O.2       7 UNK        -0.5000 
     37 CA          2.3804  -18.0845  -46.2538 C.3       7 UNK         0.1400 
     38 CB          2.8115  -16.9947  -47.2479 C.3       7 UNK        -0.1800 
     39 N           3.1392  -17.9629  -45.0086 N.am      7 UNK        -0.5000 
     40 C           3.2097  -18.9235  -44.0754 C.2       6 UNK         0.5000 
     41 O           2.6768  -20.0271  -44.1907 O.2       6 UNK        -0.5000 
     42 CA          3.9703  -18.5816  -42.7801 C.3       6 UNK         0.1400 
     43 CB          5.4803  -18.7907  -42.9667 C.3       6 UNK        -0.1800 
     44 N           3.7224  -17.2135  -42.3230 N.am      6 UNK        -0.5000 
     45 C           2.5379  -16.7685  -41.8810 C.2       5 UNK         0.5000 
     46 O           1.5432  -17.4827  -41.7647 O.2       5 UNK        -0.5000 
     47 CA          2.4302  -15.2663  -41.5563 C.3       5 UNK         0.1400 
     48 CB          2.7871  -15.0061  -40.0858 C.3       5 UNK        -0.1800 
     49 N           3.2478  -14.3997  -42.4094 N.am      5 UNK        -0.5000 
     50 C           3.1994  -14.3406  -43.7464 C.2       4 UNK         0.5000 
     51 O           2.4981  -15.0856  -44.4321 O.2       4 UNK        -0.5000 
     52 CA          4.0819  -13.2644  -44.4117 C.3       4 UNK         0.1400 
     53 CB          4.1550  -13.4264  -45.9400 C.3       4 UNK        -0.1800 
     54 N           3.5979  -11.9197  -44.1043 N.am      4 UNK        -0.5000 
     55 C           3.7339  -11.2834  -42.9330 C.2       3 UNK         0.5000 
     56 O           4.3649  -11.7391  -41.9776 O.2       3 UNK        -0.5000 
     57 CA          3.0127   -9.9322  -42.7955 C.3       3 UNK         0.1400 
     58 CB          3.8777   -8.7885  -43.3477 C.3       3 UNK        -0.1800 
     59 N           1.7197   -9.9466  -43.4815 N.am      3 UNK        -0.5000 
     60 C           0.5965  -10.4667  -42.9651 C.2       2 UNK         0.5000 
     61 O           0.5196  -10.9293  -41.8264 O.2       2 UNK        -0.5000 
     62 CA         -0.6543  -10.4720  -43.8664 C.3       2 UNK         0.1400 
     63 CB         -1.4809   -9.1959  -43.6460 C.3       2 UNK        -0.1800 
     64 N          -0.3317  -10.5919  -45.2889 N.am      2 UNK        -0.5000 
     65 C           0.0997  -11.7177  -45.8761 C.2       1 UNK         0.5000 
     66 O           0.2054  -12.7913  -45.2882 O.2       1 UNK        -0.5000 
     67 C          -4.1495  -21.0709  -46.9642 C.2       11 UNK         0.5000 
     68 O          -5.0898  -21.5714  -47.5822 O.2       11 UNK        -0.5000 
     69 N          -4.1987  -20.7956  -45.6508 N.am      12 UNK        -0.5000 
     70 CA         -5.3156  -21.1514  -44.7684 C.3       12 UNK         0.1400 
     71 CB         -5.1279  -20.4815  -43.3995 C.3       12 UNK        -0.1800 
     72 C          -5.4950  -22.6753  -44.6039 C.2       12 UNK         0.5000 
     73 O          -6.6212  -23.1360  -44.4181 O.2       12 UNK        -0.5000 
     74 N          -4.3960  -23.4319  -44.7276 N.am      13 UNK        -0.5000 
     75 CA         -4.3591  -24.8958  -44.7698 C.3       13 UNK         0.1400 
     76 CB         -3.0653  -25.3783  -44.0903 C.3       13 UNK        -0.1800 
     77 C          -4.4936  -25.4438  -46.2097 C.2       13 UNK         0.5000 
     78 O          -4.0922  -26.5795  -46.4726 O.2       13 UNK        -0.5000 
     79 N          -5.0353  -24.6251  -47.1252 N.am      14 UNK        -0.5000 
     80 CA         -5.3025  -24.9034  -48.5395 C.3       14 UNK         0.1400 
     81 CB         -6.3567  -26.0202  -48.6899 C.3       14 UNK        -0.1800 
     82 C          -4.0355  -25.1753  -49.3741 C.2       14 UNK         0.5000 
     83 O          -4.1266  -25.8279  -50.4146 O.2       14 UNK        -0.5000 
     84 N          -2.8767  -24.6783  -48.9132 N.am      15 UNK        -0.5000 
     85 CA         -1.5504  -24.8168  -49.5255 C.3       15 UNK         0.1400 
     86 CB         -1.4722  -23.9844  -50.8225 C.3       15 UNK        -0.1800 
     87 C          -1.1185  -26.2890  -49.7052 C.2       15 UNK         0.5000 
     88 O          -0.4284  -26.6153  -50.6709 O.2       15 UNK        -0.5000 
     89 N          -1.5564  -27.1483  -48.7697 N.am      16 UNK        -0.5000 
     90 CA         -1.4368  -28.6106  -48.7856 C.3       16 UNK         0.1400 
     91 CB          0.0384  -29.0543  -48.6878 C.3       16 UNK        -0.1800 
     92 C          -2.1944  -29.2429  -49.9746 C.2       16 UNK         0.5000 
     93 O          -1.6793  -30.1527  -50.6268 O.2       16 UNK        -0.5000 
     94 N          -3.4114  -28.7326  -50.2180 N.am      17 UNK        -0.5000 
     95 CA         -4.3314  -29.0655  -51.3088 C.3       17 UNK         0.1400 
     96 CB         -4.7784  -30.5414  -51.2403 C.3       17 UNK        -0.1800 
     97 C          -3.7600  -28.6544  -52.6799 C.2       17 UNK         0.5000 
     98 O          -3.5802  -29.4971  -53.5620 O.2       17 UNK        -0.5000 
     99 N          -3.4810  -27.3547  -52.8222 N.am      18 UNK        -0.5000 
    100 CA        -2.9863  -26.7232  -54.0439 C.3       18 UNK         0.1400 
    101 CB        -1.4658  -26.5093  -53.9267 C.3       18 UNK        -0.1800 
    102 C         -3.7517  -25.4134  -54.3089 C.2       18 UNK         0.5000 
    103 O         -4.7466  -25.1264  -53.6372 O.2       18 UNK        -0.5000 
    104 N         -3.2911  -24.6436  -55.3041 N.am      19 UNK        -0.5000 
    105 CA        -3.8765  -23.3803  -55.7627 C.3       19 UNK         0.1400 
    106 CB        -3.3490  -23.0788  -57.1772 C.3       19 UNK        -0.1800 
    107 C         -3.6272  -22.2148  -54.7802 C.2       19 UNK         0.5000 
    108 O         -2.9454  -21.2460  -55.1189 O.2       19 UNK        -0.5000 
    109 N         -4.2022  -22.3302  -53.5773 N.am      20 UNK        -0.5000 
    110 CA        -4.0774  -21.4058  -52.4455 C.3       20 UNK         0.1400 
    111 CB        -4.8042  -22.0203  -51.2428 C.3       20 UNK        -0.1800 
    112 C         -4.5884  -19.9736  -52.6964 C.2       20 UNK         0.5000 
    113 O         -4.2704  -19.0814  -51.9125 O.2       20 UNK        -0.5000 
    114 N         -5.3644  -19.7706  -53.7694 N.am      21 UNK        -0.5000 
    115 CA        -5.7862  -18.4536  -54.2468 C.3       21 UNK         0.1400 
    116 CB        -6.8953  -18.6348  -55.2946 C.3       21 UNK        -0.1800 
    117 C         -4.6221  -17.6252  -54.8297 C.2       21 UNK         0.5000 
    118 O         -4.6870  -16.3960  -54.7944 O.2       21 UNK        -0.5000 
    119 N         -3.5907  -18.3084  -55.3508 N.am      22 UNK        -0.5000 
    120 CA        -2.3447  -17.7366  -55.8948 C.3       22 UNK         0.1400 
    121 C         -2.5215  -16.8220  -57.1476 C.2       22 UNK         0.5000 
    122 N         -3.6249  -16.9134  -57.8802 N.am      22 UNK        -0.7600 
    123 O         -1.6358  -16.0418  -57.4879 O.2       22 UNK        -0.5000 
    124 C124       -1.4551  -17.0957  -54.7922 C.3       23 UNK        -0.0398 
    125 S125       -0.9355  -18.3239  -53.5472 S.3       23 UNK        -0.2404 
    126 C126       -0.0623  -17.2686  -52.3490 C.3       23 UNK        -0.0205 
    127 H127        3.4647   -8.3751  -48.2355 H         1 UNK         0.0600 
    128 H128        2.4787   -7.5933  -46.9954 H         1 UNK         0.0600 
    129 H129        1.7692   -8.0015  -48.5611 H         1 UNK         0.0600 
    130 H130        0.4855   -9.8329  -48.4811 H         1 UNK         0.3000 
    131 H131        1.3435  -12.3143  -47.4988 H         1 UNK         0.0600 
    132 H132       -0.9282  -13.1331  -48.0106 H         1 UNK         0.0800 
    133 H133       -1.5347  -11.4949  -48.1287 H         1 UNK         0.0800 
    134 H134       -2.5854  -12.2851  -50.3402 H         1 UNK         0.0800 
    135 H135       -1.7288  -12.4404  -51.8507 H         1 UNK         0.0800 
    136 H136       -0.2198  -14.5417  -52.1804 H         1 UNK         0.1150 
    137 H137       -2.0282  -18.1176  -50.6937 H         1 UNK         0.1150 
    138 H138       -3.3408  -14.2970  -49.2533 H         1 UNK         0.1150 
    139 H139       -4.4772  -16.2246  -48.5102 H         1 UNK         0.0800 
    140 H140       -4.4871  -17.5848  -49.5937 H         1 UNK         0.0800 
    141 H141       -1.7152  -19.4499  -48.9290 H         1 UNK         0.0800 
    142 H142       -3.3882  -19.6219  -49.3713 H         1 UNK         0.0800 
    143 H143       -2.7582  -21.6444  -48.4408 H         1 UNK         0.0600 
    144 H144       -1.0794  -20.2420  -46.6037 H         1 UNK         0.3000 
    145 H145       -0.0188  -23.3424  -45.0229 H         1 UNK         0.0600 
    146 H146        2.1388  -22.3479  -45.6973 H         1 UNK         0.0600 
    147 H147        1.2846  -22.9489  -47.1098 H         1 UNK         0.0600 
    148 H148        1.3229  -21.2224  -46.7793 H         1 UNK         0.0600 
    149 H149        0.6700  -20.6518  -44.4211 H         1 UNK         0.3000 
    150 H150       -1.8347  -20.1250  -41.9016 H         1 UNK         0.0600 
    151 H151        0.0341  -21.4096  -40.8343 H         1 UNK         0.0600 
    152 H152        0.2028  -19.6800  -40.5748 H         1 UNK         0.0600 
    153 H153        1.2061  -20.4924  -41.7746 H         1 UNK         0.0600 
    154 H154        0.2485  -18.4340  -42.7946 H         1 UNK         0.3000 
    155 H155       -1.5601  -16.8282  -45.4692 H         1 UNK         0.0600 
    156 H156       -2.1032  -15.6831  -43.3595 H         1 UNK         0.0600 
    157 H157       -0.6989  -14.9248  -44.0927 H         1 UNK         0.0600 
    158 H158       -0.5007  -16.0058  -42.7173 H         1 UNK         0.0600 
    159 H159        1.1274  -16.5064  -44.6774 H         1 UNK         0.3000 
    160 H160        2.6105  -19.0543  -46.6999 H         1 UNK         0.0600 
    161 H161        2.3088  -17.1272  -48.2068 H         1 UNK         0.0600 
    162 H162        2.5662  -15.9948  -46.8903 H         1 UNK         0.0600 
    163 H163        3.8847  -17.0315  -47.4350 H         1 UNK         0.0600 
    164 H164        3.5161  -17.0487  -44.7993 H         1 UNK         0.3000 
    165 H165        3.6251  -19.2663  -42.0024 H         1 UNK         0.0600 
    166 H166        6.0191  -18.6277  -42.0331 H         1 UNK         0.0600 
    167 H167        5.6953  -19.8097  -43.2912 H         1 UNK         0.0600 
    168 H168        5.8927  -18.1136  -43.7157 H         1 UNK         0.0600 
    169 H169        4.4882  -16.5595  -42.3883 H         1 UNK         0.3000 
    170 H170        1.3901  -14.9733  -41.7082 H         1 UNK         0.0600 
    171 H171        2.1753  -15.6170  -39.4206 H         1 UNK         0.0600 
    172 H172        3.8323  -15.2387  -39.8785 H         1 UNK         0.0600 
    173 H173        2.6154  -13.9633  -39.8174 H         1 UNK         0.0600 
    174 H174        3.8157  -13.7041  -41.9373 H         1 UNK         0.3000 
    175 H175        5.0937  -13.3731  -44.0160 H         1 UNK         0.0600 
    176 H176        3.1708  -13.3399  -46.4002 H         1 UNK         0.0600 
    177 H177        4.7998  -12.6696  -46.3871 H         1 UNK         0.0600 
    178 H178        4.5604  -14.4019  -46.2108 H         1 UNK         0.0600 
    179 H179        3.0976  -11.4443  -44.8489 H         1 UNK         0.3000 
    180 H180        2.8500   -9.7451  -41.7318 H         1 UNK         0.0600 
    181 H181        3.3833   -7.8251  -43.2223 H         1 UNK         0.0600 
    182 H182        4.0964   -8.9175  -44.4079 H         1 UNK         0.0600 
    183 H183        4.8317   -8.7351  -42.8218 H         1 UNK         0.0600 
    184 H184        1.7192   -9.6430  -44.4457 H         1 UNK         0.3000 
    185 H185       -1.2673  -11.3286  -43.5776 H         1 UNK         0.0600 
    186 H186       -0.9260   -8.3013  -43.9316 H         1 UNK         0.0600 
    187 H187       -2.4039   -9.2187  -44.2256 H         1 UNK         0.0600 
    188 H188       -1.7599   -9.0882  -42.5970 H         1 UNK         0.0600 
    189 H189       -0.3906   -9.7511  -45.8448 H         1 UNK         0.3000 
    190 H190       -3.4133  -20.3177  -45.2181 H         1 UNK         0.3000 
    191 H191       -6.2318  -20.7595  -45.2146 H         1 UNK         0.0600 
    192 H192       -4.2025  -20.8007  -42.9194 H         1 UNK         0.0600 
    193 H193       -5.1001  -19.3958  -43.4934 H         1 UNK         0.0600 
    194 H194       -5.9500  -20.7274  -42.7263 H         1 UNK         0.0600 
    195 H195       -3.5079  -22.9686  -44.8749 H         1 UNK         0.3000 
    196 H196       -5.2007  -25.2940  -44.2000 H         1 UNK         0.0600 
    197 H197       -2.9826  -24.9836  -43.0774 H         1 UNK         0.0600 
    198 H198       -2.1782  -25.0663  -44.6415 H         1 UNK         0.0600 
    199 H199       -3.0405  -26.4660  -44.0159 H         1 UNK         0.0600 
    200 H200       -5.2790  -23.6890  -46.8277 H         1 UNK         0.3000 
    201 H201       -5.7350  -23.9888  -48.9471 H         1 UNK         0.0600 
    202 H202       -6.6766  -26.1203  -49.7279 H         1 UNK         0.0600 
    203 H203       -7.2466  -25.8043  -48.0988 H         1 UNK         0.0600 
    204 H204       -5.9705  -26.9896  -48.3738 H         1 UNK         0.0600 
    205 H205       -2.8772  -24.1914  -48.0209 H         1 UNK         0.3000 
    206 H206       -0.8363  -24.3877  -48.8220 H         1 UNK         0.0600 
    207 H207       -1.6878  -22.9347  -50.6241 H         1 UNK         0.0600 
    208 H208       -2.1825  -24.3324  -51.5722 H         1 UNK         0.0600 
    209 H209       -0.4762  -24.0296  -51.2639 H         1 UNK         0.0600 
    210 H210       -2.1248  -26.7701  -48.0223 H         1 UNK         0.3000 
    211 H211       -1.9418  -28.9639  -47.8854 H         1 UNK         0.0600 
    212 H212        0.5346  -28.5882  -47.8367 H         1 UNK         0.0600 
    213 H213        0.1108  -30.1341  -48.5535 H         1 UNK         0.0600 
    214 H214        0.6022  -28.8008  -49.5858 H         1 UNK         0.0600 
    215 H215       -3.6898  -27.9296  -49.6705 H         1 UNK         0.3000 
    216 H216       -5.2208  -28.4529  -51.1521 H         1 UNK         0.0600 
    217 H217       -5.5490  -30.7463  -51.9843 H         1 UNK         0.0600 
    218 H218       -3.9551  -31.2306  -51.4292 H         1 UNK         0.0600 
    219 H219       -5.1987  -30.7805  -50.2635 H         1 UNK         0.0600 
    220 H220       -3.7122  -26.7175  -52.0617 H         1 UNK         0.3000 
    221 H221       -3.1812  -27.3719  -54.9001 H         1 UNK         0.0600 
    222 H222       -1.2199  -25.7622  -53.1734 H         1 UNK         0.0600 
    223 H223       -0.9594  -27.4344  -53.6501 H         1 UNK         0.0600 
    224 H224       -1.0334  -26.1796  -54.8715 H         1 UNK         0.0600 
    225 H225       -2.4570  -24.9391  -55.7901 H         1 UNK         0.3000 
    226 H226       -4.9582  -23.5103  -55.8375 H         1 UNK         0.0600 
    227 H227       -3.6029  -23.8796  -57.8720 H         1 UNK         0.0600 
    228 H228       -3.7861  -22.1601  -57.5709 H         1 UNK         0.0600 
    229 H229       -2.2650  -22.9574  -57.1864 H         1 UNK         0.0600 
    230 H230       -4.6980  -23.1983  -53.3943 H         1 UNK         0.3000 
    231 H231       -3.0156  -21.3264  -52.2044 H         1 UNK         0.0600 
    232 H232       -4.6936  -21.4042  -50.3506 H         1 UNK         0.0600 
    233 H233       -4.3973  -23.0014  -51.0148 H         1 UNK         0.0600 
    234 H234       -5.8718  -22.1362  -51.4331 H         1 UNK         0.0600 
    235 H235       -5.5963  -20.5643  -54.3472 H         1 UNK         0.3000 
    236 H236       -6.1988  -17.8976  -53.4022 H         1 UNK         0.0600 
    237 H237       -7.2500  -17.6695  -55.6582 H         1 UNK         0.0600 
    238 H238       -6.5459  -19.2029  -56.1576 H         1 UNK         0.0600 
    239 H239       -7.7544  -19.1573  -54.8732 H         1 UNK         0.0600 
    240 H240       -3.6024  -19.3214  -55.2982 H         1 UNK         0.3000 
    241 H241       -1.7928  -18.5933  -56.2832 H         1 UNK         0.0600 
    242 H242       -3.7306  -16.3291  -58.6947 H         1 UNK         0.3800 
    243 H243       -4.3581  -17.5540  -57.6225 H         1 UNK         0.3800 
    244 H244       -0.5479  -16.6679  -55.2216 H         1 UNK         0.0800 
    245 H245       -1.9803  -16.2762  -54.2997 H         1 UNK         0.0800 
    246 H246        0.5184  -17.9069  -51.6818 H         1 UNK         0.0800 
    247 H247        0.6589  -16.6426  -52.8768 H         1 UNK         0.0800 
@<TRIPOS>BOND
     1    1    2 1    
     2    1  127 1    
     3    1  128 1    
     4    1  129 1    
     5    2    3 2    
     6    2    4 am   BACKBONE|DICT|INTERRES
     7    4    5 1    
     8    4  130 1    
     9    5    6 1    
    10    5   65 1    
    11    5  131 1    
    12    6    7 1    
    13    6  132 1    
    14    6  133 1    
    15    7    8 1    
    16    8    9 1    
    17    8  134 1    
    18    8  135 1    
    19    9   10 ar   
    20    9   14 ar   
    21   10   11 ar   
    22   10  136 1    
    23   11   12 ar   
    24   11  126 1    
    25   12   13 ar   
    26   12  137 1    
    27   13   14 ar   
    28   13   15 1    
    29   14  138 1    
    30   15   16 1    
    31   15  139 1    
    32   15  140 1    
    33   16   17 1    
    34   17   18 1    
    35   17  141 1    
    36   17  142 1    
    37   18   19 1    
    38   18   67 1    
    39   18  143 1    
    40   19   20 am   BACKBONE|DICT|INTERRES
    41   19  144 1    
    42   20   21 2    
    43   20   22 1    
    44   22   23 1    
    45   22   24 1    
    46   22  145 1    
    47   23  146 1    
    48   23  147 1    
    49   23  148 1    
    50   24   25 am   BACKBONE|DICT|INTERRES
    51   24  149 1    
    52   25   26 2    
    53   25   27 1    
    54   27   28 1    
    55   27   29 1    
    56   27  150 1    
    57   28  151 1    
    58   28  152 1    
    59   28  153 1    
    60   29   30 am   BACKBONE|DICT|INTERRES
    61   29  154 1    
    62   30   31 2    
    63   30   32 1    
    64   32   33 1    
    65   32   34 1    
    66   32  155 1    
    67   33  156 1    
    68   33  157 1    
    69   33  158 1    
    70   34   35 am   BACKBONE|DICT|INTERRES
    71   34  159 1    
    72   35   36 2    
    73   35   37 1    
    74   37   38 1    
    75   37   39 1    
    76   37  160 1    
    77   38  161 1    
    78   38  162 1    
    79   38  163 1    
    80   39   40 am   BACKBONE|DICT|INTERRES
    81   39  164 1    
    82   40   41 2    
    83   40   42 1    
    84   42   43 1    
    85   42   44 1    
    86   42  165 1    
    87   43  166 1    
    88   43  167 1    
    89   43  168 1    
    90   44   45 am   BACKBONE|DICT|INTERRES
    91   44  169 1    
    92   45   46 2    
    93   45   47 1    
    94   47   48 1    
    95   47   49 1    
    96   47  170 1    
    97   48  171 1    
    98   48  172 1    
    99   48  173 1    
   100   49   50 am   BACKBONE|DICT|INTERRES
   101   49  174 1    
   102   50   51 2    
   103   50   52 1    
   104   52   53 1    
   105   52   54 1    
   106   52  175 1    
   107   53  176 1    
   108   53  177 1    
   109   53  178 1    
   110   54   55 am   BACKBONE|DICT|INTERRES
   111   54  179 1    
   112   55   56 2    
   113   55   57 1    
   114   57   58 1    
   115   57   59 1    
   116   57  180 1    
   117   58  181 1    
   118   58  182 1    
   119   58  183 1    
   120   59   60 am   BACKBONE|DICT|INTERRES
   121   59  184 1    
   122   60   61 2    
   123   60   62 1    
   124   62   63 1    
   125   62   64 1    
   126   62  185 1    
   127   63  186 1    
   128   63  187 1    
   129   63  188 1    
   130   64   65 am   BACKBONE|DICT|INTERRES
   131   64  189 1    
   132   65   66 2    
   133   67   68 2    
   134   67   69 am   BACKBONE|DICT|INTERRES
   135   69   70 1    
   136   69  190 1    
   137   70   71 1    
   138   70   72 1    
   139   70  191 1    
   140   71  192 1    
   141   71  193 1    
   142   71  194 1    
   143   72   73 2    
   144   72   74 am   BACKBONE|DICT|INTERRES
   145   74   75 1    
   146   74  195 1    
   147   75   76 1    
   148   75   77 1    
   149   75  196 1    
   150   76  197 1    
   151   76  198 1    
   152   76  199 1    
   153   77   78 2    
   154   77   79 am   BACKBONE|DICT|INTERRES
   155   79   80 1    
   156   79  200 1    
   157   80   81 1    
   158   80   82 1    
   159   80  201 1    
   160   81  202 1    
   161   81  203 1    
   162   81  204 1    
   163   82   83 2    
   164   82   84 am   BACKBONE|DICT|INTERRES
   165   84   85 1    
   166   84  205 1    
   167   85   86 1    
   168   85   87 1    
   169   85  206 1    
   170   86  207 1    
   171   86  208 1    
   172   86  209 1    
   173   87   88 2    
   174   87   89 am   BACKBONE|DICT|INTERRES
   175   89   90 1    
   176   89  210 1    
   177   90   91 1    
   178   90   92 1    
   179   90  211 1    
   180   91  212 1    
   181   91  213 1    
   182   91  214 1    
   183   92   93 2    
   184   92   94 am   BACKBONE|DICT|INTERRES
   185   94   95 1    
   186   94  215 1    
   187   95   96 1    
   188   95   97 1    
   189   95  216 1    
   190   96  217 1    
   191   96  218 1    
   192   96  219 1    
   193   97   98 2    
   194   97   99 am   BACKBONE|DICT|INTERRES
   195   99  100 1    
   196   99  220 1    
   197  100  101 1    
   198  100  102 1    
   199  100  221 1    
   200  101  222 1    
   201  101  223 1    
   202  101  224 1    
   203  102  103 2    
   204  102  104 am   BACKBONE|DICT|INTERRES
   205  104  105 1    
   206  104  225 1    
   207  105  106 1    
   208  105  107 1    
   209  105  226 1    
   210  106  227 1    
   211  106  228 1    
   212  106  229 1    
   213  107  108 2    
   214  107  109 am   BACKBONE|DICT|INTERRES
   215  109  110 1    
   216  109  230 1    
   217  110  111 1    
   218  110  112 1    
   219  110  231 1    
   220  111  232 1    
   221  111  233 1    
   222  111  234 1    
   223  112  113 2    
   224  112  114 am   BACKBONE|DICT|INTERRES
   225  114  115 1    
   226  114  235 1    
   227  115  116 1    
   228  115  117 1    
   229  115  236 1    
   230  116  237 1    
   231  116  238 1    
   232  116  239 1    
   233  117  118 2    
   234  117  119 am   BACKBONE|DICT|INTERRES
   235  119  120 1    
   236  119  240 1    
   237  120  121 1    
   238  120  124 1    
   239  120  241 1    
   240  121  122 am   BACKBONE|DICT|INTERRES
   241  121  123 2    
   242  122  242 1    
   243  122  243 1    
   244  124  125 1    
   245  124  244 1    
   246  124  245 1    
   247  125  126 1    
   248  126  246 1    
   249  126  247 1    
@<TRIPOS>SUBSTRUCTURE
     1 UNK         1 GROUP             0       ****    0 ROOT    
