@<TRIPOS>MOLECULE
3R540
247   249    1
SMALL
USER_CHARGES


@<TRIPOS>ATOM
      1 CA         -0.6531  -13.2255  -49.3554 C.3       0 UNK        -0.1800 
      2 C           0.6043  -12.5059  -49.8227 C.2       0 UNK         0.5000 
      3 O           0.5117  -11.4503  -50.4485 O.2       0 UNK        -0.5000 
      4 N           1.7785  -13.0727  -49.5193 N.am      1 UNK        -0.5000 
      5 CA          3.0971  -12.5300  -49.8858 C.3       1 UNK         0.1400 
      6 C6          4.2173  -13.6020  -49.8249 C.3       23 UNK        -0.0398 
      7 S7          3.7984  -15.1426  -50.7114 S.3       23 UNK        -0.2404 
      8 C8          3.4298  -16.2318  -49.2998 C.3       23 UNK        -0.0205 
      9 C9          2.4970  -17.3668  -49.6850 C.ar      23 UNK        -0.0193 
     10 C10         1.1540  -17.0990  -49.9630 C.ar      23 UNK        -0.1150 
     11 C11         0.2681  -18.1378  -50.2546 C.ar      23 UNK        -0.0193 
     12 C12         0.7334  -19.4565  -50.2531 C.ar      23 UNK        -0.1150 
     13 C13         2.0796  -19.7370  -50.0005 C.ar      23 UNK        -0.0193 
     14 C14         2.9590  -18.6852  -49.7239 C.ar      23 UNK        -0.1150 
     15 C15         2.5738  -21.1790  -50.0229 C.3       23 UNK        -0.0205 
     16 S16         3.3794  -21.6973  -48.4673 S.3       23 UNK        -0.2404 
     17 C17         2.1145  -21.2972  -47.2128 C.3       23 UNK        -0.0398 
     18 CA          1.2595  -22.5008  -46.7548 C.3       11 UNK         0.1400 
     19 N           0.4906  -22.1634  -45.5555 N.am      11 UNK        -0.5000 
     20 C          -0.2509  -23.0164  -44.8372 C.2       10 UNK         0.5000 
     21 O          -0.3209  -24.2238  -45.0656 O.2       10 UNK        -0.5000 
     22 CA         -1.0940  -22.4050  -43.7023 C.3       10 UNK         0.1400 
     23 CB         -0.2407  -22.1832  -42.4450 C.3       10 UNK        -0.1800 
     24 N          -1.7382  -21.1480  -44.0938 N.am      10 UNK        -0.5000 
     25 C          -2.6715  -21.0478  -45.0518 C.2       9 UNK         0.5000 
     26 O          -3.1184  -22.0136  -45.6676 O.2       9 UNK        -0.5000 
     27 CA         -3.1614  -19.6366  -45.4205 C.3       9 UNK         0.1400 
     28 CB         -4.2268  -19.1482  -44.4287 C.3       9 UNK        -0.1800 
     29 N          -2.0755  -18.6612  -45.5050 N.am      9 UNK        -0.5000 
     30 C          -1.0789  -18.7134  -46.3998 C.2       8 UNK         0.5000 
     31 O          -0.9967  -19.5733  -47.2762 O.2       8 UNK        -0.5000 
     32 CA          0.0427  -17.6670  -46.2515 C.3       8 UNK         0.1400 
     33 CB         -0.3886  -16.3076  -46.8182 C.3       8 UNK        -0.1800 
     34 N           0.4696  -17.4974  -44.8619 N.am      8 UNK        -0.5000 
     35 C           1.0070  -18.4666  -44.1078 C.2       7 UNK         0.5000 
     36 O           1.2601  -19.5968  -44.5216 O.2       7 UNK        -0.5000 
     37 CA          1.2466  -18.1345  -42.6266 C.3       7 UNK         0.1400 
     38 CB          2.5662  -17.3716  -42.4387 C.3       7 UNK        -0.1800 
     39 N           0.1373  -17.3654  -42.0624 N.am      7 UNK        -0.5000 
     40 C          -1.0813  -17.8717  -41.8233 C.2       6 UNK         0.5000 
     41 O          -1.3819  -19.0488  -42.0207 O.2       6 UNK        -0.5000 
     42 CA         -2.1543  -16.8896  -41.3179 C.3       6 UNK         0.1400 
     43 CB         -2.0486  -16.7067  -39.7968 C.3       6 UNK        -0.1800 
     44 N          -2.0745  -15.5825  -41.9713 N.am      6 UNK        -0.5000 
     45 C          -2.3185  -15.3716  -43.2723 C.2       5 UNK         0.5000 
     46 O          -2.6806  -16.2540  -44.0485 O.2       5 UNK        -0.5000 
     47 CA         -2.0730  -13.9489  -43.8071 C.3       5 UNK         0.1400 
     48 CB         -3.3475  -13.1012  -43.6937 C.3       5 UNK        -0.1800 
     49 N          -0.9706  -13.2519  -43.1419 N.am      5 UNK        -0.5000 
     50 C           0.3056  -13.6544  -43.1191 C.2       4 UNK         0.5000 
     51 O           0.6931  -14.7006  -43.6443 O.2       4 UNK        -0.5000 
     52 CA          1.2984  -12.7262  -42.3852 C.3       4 UNK         0.1400 
     53 CB          2.7028  -13.3438  -42.2666 C.3       4 UNK        -0.1800 
     54 N           1.4158  -11.4214  -43.0377 N.am      4 UNK        -0.5000 
     55 C           0.5026  -10.4400  -43.0233 C.2       3 UNK         0.5000 
     56 O          -0.5486  -10.5049  -42.3836 O.2       3 UNK        -0.5000 
     57 CA          0.7975   -9.1790  -43.8648 C.3       3 UNK         0.1400 
     58 CB          1.1466   -7.9951  -42.9502 C.3       3 UNK        -0.1800 
     59 N           1.8695   -9.3414  -44.8546 N.am      3 UNK        -0.5000 
     60 C           1.8168  -10.1421  -45.9269 C.2       2 UNK         0.5000 
     61 O           0.8400  -10.8439  -46.2049 O.2       2 UNK        -0.5000 
     62 CA          3.0724  -10.1867  -46.8157 C.3       2 UNK         0.1400 
     63 CB          4.3443  -10.5136  -46.0072 C.3       2 UNK        -0.1800 
     64 N           2.8657  -11.2057  -47.8345 N.am      2 UNK        -0.5000 
     65 C           3.4920  -11.3195  -49.0101 C.2       1 UNK         0.5000 
     66 O           4.3578  -10.5366  -49.4032 O.2       1 UNK        -0.5000 
     67 C           0.3451  -23.0293  -47.8801 C.2       11 UNK         0.5000 
     68 O           0.6386  -24.0743  -48.4619 O.2       11 UNK        -0.5000 
     69 N          -0.7707  -22.3299  -48.1331 N.am      12 UNK        -0.5000 
     70 CA         -1.7955  -22.7427  -49.0896 C.3       12 UNK         0.1400 
     71 CB         -2.8435  -21.6379  -49.2416 C.3       12 UNK        -0.1800 
     72 C          -2.4657  -24.0710  -48.7037 C.2       12 UNK         0.5000 
     73 O          -2.6212  -24.9320  -49.5658 O.2       12 UNK        -0.5000 
     74 N          -2.8046  -24.2398  -47.4178 N.am      13 UNK        -0.5000 
     75 CA         -3.3842  -25.4666  -46.8689 C.3       13 UNK         0.1400 
     76 CB         -3.7876  -25.2457  -45.4039 C.3       13 UNK        -0.1800 
     77 C          -2.4487  -26.6817  -47.0044 C.2       13 UNK         0.5000 
     78 O          -2.9134  -27.7610  -47.3706 O.2       13 UNK        -0.5000 
     79 N          -1.1442  -26.4765  -46.7707 N.am      14 UNK        -0.5000 
     80 CA         -0.0933  -27.4750  -46.9866 C.3       14 UNK         0.1400 
     81 CB          1.2299  -26.9612  -46.3995 C.3       14 UNK        -0.1800 
     82 C           0.0765  -27.8611  -48.4706 C.2       14 UNK         0.5000 
     83 O           0.3680  -29.0200  -48.7669 O.2       14 UNK        -0.5000 
     84 N          -0.1482  -26.8978  -49.3741 N.am      15 UNK        -0.5000 
     85 CA         -0.1775  -27.0882  -50.8265 C.3       15 UNK         0.1400 
     86 CB          0.1461  -25.7462  -51.5058 C.3       15 UNK        -0.1800 
     87 C          -1.5172  -27.6591  -51.3465 C.2       15 UNK         0.5000 
     88 O          -1.6203  -27.9384  -52.5418 O.2       15 UNK        -0.5000 
     89 N          -2.5108  -27.8158  -50.4573 N.am      16 UNK        -0.5000 
     90 CA         -3.8878  -28.2559  -50.7071 C.3       16 UNK         0.1400 
     91 CB         -3.9210  -29.7174  -51.2015 C.3       16 UNK        -0.1800 
     92 C          -4.6814  -27.2849  -51.6095 C.2       16 UNK         0.5000 
     93 O          -5.4834  -27.7231  -52.4370 O.2       16 UNK        -0.5000 
     94 N          -4.4456  -25.9818  -51.4266 N.am      17 UNK        -0.5000 
     95 CA         -5.0862  -24.8807  -52.1384 C.3       17 UNK         0.1400 
     96 CB         -3.9913  -24.0891  -52.8712 C.3       17 UNK        -0.1800 
     97 C          -5.8299  -23.9632  -51.1534 C.2       17 UNK         0.5000 
     98 O          -5.6410  -24.0599  -49.9383 O.2       17 UNK        -0.5000 
     99 N          -6.6504  -23.0606  -51.7033 N.am      18 UNK        -0.5000 
    100 CA        -7.2667  -21.9576  -50.9673 C.3       18 UNK         0.1400 
    101 CB        -8.4458  -21.4101  -51.7862 C.3       18 UNK        -0.1800 
    102 C         -6.2389  -20.8419  -50.7092 C.2       18 UNK         0.5000 
    103 O         -5.3389  -20.6405  -51.5291 O.2       18 UNK        -0.5000 
    104 N         -6.4189  -20.0950  -49.6124 N.am      19 UNK        -0.5000 
    105 CA        -5.5372  -18.9995  -49.1872 C.3       19 UNK         0.1400 
    106 CB        -5.9952  -18.4924  -47.8113 C.3       19 UNK        -0.1800 
    107 C         -5.4384  -17.8317  -50.1901 C.2       19 UNK         0.5000 
    108 O         -4.4265  -17.1332  -50.2026 O.2       19 UNK        -0.5000 
    109 N         -6.4780  -17.6506  -51.0150 N.am      20 UNK        -0.5000 
    110 CA        -6.5121  -16.6730  -52.1030 C.3       20 UNK         0.1400 
    111 CB        -7.9737  -16.2674  -52.3505 C.3       20 UNK        -0.1800 
    112 C         -5.8775  -17.2008  -53.4063 C.2       20 UNK         0.5000 
    113 O         -5.5142  -16.3931  -54.2624 O.2       20 UNK        -0.5000 
    114 N         -5.7806  -18.5297  -53.5542 N.am      21 UNK        -0.5000 
    115 CA        -5.2410  -19.1959  -54.7402 C.3       21 UNK         0.1400 
    116 CB        -5.9960  -20.5154  -54.9693 C.3       21 UNK        -0.1800 
    117 C         -3.7322  -19.4565  -54.6092 C.2       21 UNK         0.5000 
    118 O         -3.0079  -19.3148  -55.5942 O.2       21 UNK        -0.5000 
    119 N         -3.2964  -19.8415  -53.4028 N.am      22 UNK        -0.5000 
    120 CA        -1.9057  -20.1241  -53.0004 C.3       22 UNK         0.1400 
    121 C         -1.2738  -21.4214  -53.5878 C.2       22 UNK         0.5000 
    122 N         -1.9048  -22.1197  -54.5218 N.am      22 UNK        -0.7600 
    123 O         -0.1970  -21.8230  -53.1571 O.2       22 UNK        -0.5000 
    124 C124       -0.9460  -18.9126  -53.1793 C.3       23 UNK        -0.0398 
    125 S125       -1.4778  -17.4011  -52.3032 S.3       23 UNK        -0.2404 
    126 C126       -1.1922  -17.8327  -50.5561 C.3       23 UNK        -0.0205 
    127 H127       -0.4181  -14.1183  -48.7792 H         1 UNK         0.0600 
    128 H128       -1.2560  -13.5239  -50.2117 H         1 UNK         0.0600 
    129 H129       -1.2508  -12.5666  -48.7274 H         1 UNK         0.0600 
    130 H130        1.7916  -13.9479  -49.0195 H         1 UNK         0.3000 
    131 H131        3.0359  -12.1742  -50.9164 H         1 UNK         0.0600 
    132 H132        5.1317  -13.2059  -50.2703 H         1 UNK         0.0800 
    133 H133        4.4737  -13.8402  -48.7909 H         1 UNK         0.0800 
    134 H134        2.9615  -15.6643  -48.4949 H         1 UNK         0.0800 
    135 H135        4.3667  -16.6176  -48.8951 H         1 UNK         0.0800 
    136 H136        0.7963  -16.0796  -49.9509 H         1 UNK         0.1150 
    137 H137        0.0478  -20.2655  -50.4611 H         1 UNK         0.1150 
    138 H138        3.9978  -18.8992  -49.5151 H         1 UNK         0.1150 
    139 H139        1.7545  -21.8653  -50.2426 H         1 UNK         0.0800 
    140 H140        3.2874  -21.2904  -50.8401 H         1 UNK         0.0800 
    141 H141        1.4813  -20.4762  -47.5466 H         1 UNK         0.0800 
    142 H142        2.6624  -20.9039  -46.3560 H         1 UNK         0.0800 
    143 H143        1.9372  -23.3110  -46.4773 H         1 UNK         0.0600 
    144 H144        0.5312  -21.1920  -45.2581 H         1 UNK         0.3000 
    145 H145       -1.8815  -23.1190  -43.4532 H         1 UNK         0.0600 
    146 H146       -0.8490  -21.8231  -41.6152 H         1 UNK         0.0600 
    147 H147        0.2302  -23.1131  -42.1240 H         1 UNK         0.0600 
    148 H148        0.5524  -21.4558  -42.6180 H         1 UNK         0.0600 
    149 H149       -1.4566  -20.3134  -43.5896 H         1 UNK         0.3000 
    150 H150       -3.6222  -19.6997  -46.4079 H         1 UNK         0.0600 
    151 H151       -5.0539  -19.8561  -44.3636 H         1 UNK         0.0600 
    152 H152       -4.6430  -18.1897  -44.7393 H         1 UNK         0.0600 
    153 H153       -3.8175  -19.0256  -43.4257 H         1 UNK         0.0600 
    154 H154       -2.1092  -17.8856  -44.8488 H         1 UNK         0.3000 
    155 H155        0.9019  -18.0185  -46.8268 H         1 UNK         0.0600 
    156 H156       -1.2274  -15.8866  -46.2664 H         1 UNK         0.0600 
    157 H157       -0.7029  -16.4016  -47.8558 H         1 UNK         0.0600 
    158 H158        0.4303  -15.5888  -46.7856 H         1 UNK         0.0600 
    159 H159        0.3313  -16.5830  -44.4449 H         1 UNK         0.3000 
    160 H160        1.3216  -19.0760  -42.0786 H         1 UNK         0.0600 
    161 H161        2.5829  -16.4408  -43.0049 H         1 UNK         0.0600 
    162 H162        3.4105  -17.9724  -42.7783 H         1 UNK         0.0600 
    163 H163        2.7392  -17.1314  -41.3897 H         1 UNK         0.0600 
    164 H164        0.2876  -16.3745  -41.9410 H         1 UNK         0.3000 
    165 H165       -3.1318  -17.3216  -41.5424 H         1 UNK         0.0600 
    166 H166       -2.8526  -16.0750  -39.4190 H         1 UNK         0.0600 
    167 H167       -2.1220  -17.6662  -39.2831 H         1 UNK         0.0600 
    168 H168       -1.1001  -16.2518  -39.5090 H         1 UNK         0.0600 
    169 H169       -1.7844  -14.8004  -41.4031 H         1 UNK         0.3000 
    170 H170       -1.8153  -14.0342  -44.8638 H         1 UNK         0.0600 
    171 H171       -4.1835  -13.5830  -44.2021 H         1 UNK         0.0600 
    172 H172       -3.6380  -12.9482  -42.6539 H         1 UNK         0.0600 
    173 H173       -3.2108  -12.1213  -44.1510 H         1 UNK         0.0600 
    174 H174       -1.1808  -12.3491  -42.7276 H         1 UNK         0.3000 
    175 H175        0.9158  -12.5748  -41.3740 H         1 UNK         0.0600 
    176 H176        3.1461  -13.5318  -43.2452 H         1 UNK         0.0600 
    177 H177        3.3761  -12.6891  -41.7136 H         1 UNK         0.0600 
    178 H178        2.6673  -14.2935  -41.7325 H         1 UNK         0.0600 
    179 H179        2.2363  -11.2837  -43.6073 H         1 UNK         0.3000 
    180 H180       -0.1198   -8.9340  -44.4034 H         1 UNK         0.0600 
    181 H181        2.0687   -8.1736  -42.3964 H         1 UNK         0.0600 
    182 H182        0.3555   -7.8159  -42.2208 H         1 UNK         0.0600 
    183 H183        1.2703   -7.0763  -43.5232 H         1 UNK         0.0600 
    184 H184        2.7057   -8.7986  -44.6943 H         1 UNK         0.3000 
    185 H185        3.1792   -9.2132  -47.2973 H         1 UNK         0.0600 
    186 H186        5.2184  -10.5830  -46.6549 H         1 UNK         0.0600 
    187 H187        4.5604   -9.7412  -45.2694 H         1 UNK         0.0600 
    188 H188        4.2491  -11.4614  -45.4766 H         1 UNK         0.0600 
    189 H189        2.1007  -11.8354  -47.6270 H         1 UNK         0.3000 
    190 H190       -0.9280  -21.4521  -47.6443 H         1 UNK         0.3000 
    191 H191       -1.3074  -22.8798  -50.0569 H         1 UNK         0.0600 
    192 H192       -3.4073  -21.4832  -48.3218 H         1 UNK         0.0600 
    193 H193       -3.5538  -21.8974  -50.0254 H         1 UNK         0.0600 
    194 H194       -2.3820  -20.6924  -49.5145 H         1 UNK         0.0600 
    195 H195       -2.6987  -23.4589  -46.7746 H         1 UNK         0.3000 
    196 H196       -4.2897  -25.6823  -47.4401 H         1 UNK         0.0600 
    197 H197       -4.2459  -26.1426  -44.9856 H         1 UNK         0.0600 
    198 H198       -4.5133  -24.4373  -45.3133 H         1 UNK         0.0600 
    199 H199       -2.9283  -24.9953  -44.7821 H         1 UNK         0.0600 
    200 H200       -0.8472  -25.5693  -46.4227 H         1 UNK         0.3000 
    201 H201       -0.3765  -28.3782  -46.4424 H         1 UNK         0.0600 
    202 H202        1.1334  -26.7536  -45.3336 H         1 UNK         0.0600 
    203 H203        1.5602  -26.0449  -46.8888 H         1 UNK         0.0600 
    204 H204        2.0228  -27.7007  -46.5171 H         1 UNK         0.0600 
    205 H205       -0.3406  -25.9597  -49.0418 H         1 UNK         0.3000 
    206 H206        0.6042  -27.7994  -51.1006 H         1 UNK         0.0600 
    207 H207        1.0972  -25.3445  -51.1555 H         1 UNK         0.0600 
    208 H208        0.2216  -25.8621  -52.5875 H         1 UNK         0.0600 
    209 H209       -0.6224  -24.9981  -51.3126 H         1 UNK         0.0600 
    210 H210       -2.3238  -27.5326  -49.5039 H         1 UNK         0.3000 
    211 H211       -4.3871  -28.2316  -49.7377 H         1 UNK         0.0600 
    212 H212       -3.4991  -29.8185  -52.2017 H         1 UNK         0.0600 
    213 H213       -4.9441  -30.0930  -51.2402 H         1 UNK         0.0600 
    214 H214       -3.3617  -30.3718  -50.5329 H         1 UNK         0.0600 
    215 H215       -3.7990  -25.6943  -50.6921 H         1 UNK         0.3000 
    216 H216       -5.8071  -25.2553  -52.8675 H         1 UNK         0.0600 
    217 H217       -4.4135  -23.2634  -53.4445 H         1 UNK         0.0600 
    218 H218       -3.4473  -24.7246  -53.5701 H         1 UNK         0.0600 
    219 H219       -3.2665  -23.6664  -52.1736 H         1 UNK         0.0600 
    220 H220       -6.7342  -23.0262  -52.7081 H         1 UNK         0.3000 
    221 H221       -7.6416  -22.3283  -50.0109 H         1 UNK         0.0600 
    222 H222       -8.1219  -21.0121  -52.7486 H         1 UNK         0.0600 
    223 H223       -9.1857  -22.1874  -51.9781 H         1 UNK         0.0600 
    224 H224       -8.9542  -20.6058  -51.2531 H         1 UNK         0.0600 
    225 H225       -7.1932  -20.3065  -48.9993 H         1 UNK         0.3000 
    226 H226       -4.5315  -19.4065  -49.0776 H         1 UNK         0.0600 
    227 H227       -6.0072  -19.2972  -47.0762 H         1 UNK         0.0600 
    228 H228       -5.3216  -17.7208  -47.4353 H         1 UNK         0.0600 
    229 H229       -6.9966  -18.0625  -47.8543 H         1 UNK         0.0600 
    230 H230       -7.2814  -18.2532  -50.9166 H         1 UNK         0.3000 
    231 H231       -5.9589  -15.7798  -51.8045 H         1 UNK         0.0600 
    232 H232       -8.4213  -15.8392  -51.4535 H         1 UNK         0.0600 
    233 H233       -8.5823  -17.1192  -52.6568 H         1 UNK         0.0600 
    234 H234       -8.0429  -15.5149  -53.1372 H         1 UNK         0.0600 
    235 H235       -6.0135  -19.1267  -52.7717 H         1 UNK         0.3000 
    236 H236       -5.3981  -18.5662  -55.6187 H         1 UNK         0.0600 
    237 H237       -5.6366  -21.0187  -55.8677 H         1 UNK         0.0600 
    238 H238       -5.8708  -21.2059  -54.1353 H         1 UNK         0.0600 
    239 H239       -7.0636  -20.3394  -55.1017 H         1 UNK         0.0600 
    240 H240       -3.9918  -19.9981  -52.6781 H         1 UNK         0.3000 
    241 H241       -1.9745  -20.3303  -51.9334 H         1 UNK         0.0600 
    242 H242       -1.4813  -22.9603  -54.8800 H         1 UNK         0.3800 
    243 H243       -2.7667  -21.7807  -54.9153 H         1 UNK         0.3800 
    244 H244       -0.8493  -18.6643  -54.2366 H         1 UNK         0.0800 
    245 H245        0.0655  -19.1595  -52.8570 H         1 UNK         0.0800 
    246 H246       -1.8284  -18.6698  -50.2760 H         1 UNK         0.0800 
    247 H247       -1.5285  -16.9959  -49.9437 H         1 UNK         0.0800 
@<TRIPOS>BOND
     1    1    2 1    
     2    1  127 1    
     3    1  128 1    
     4    1  129 1    
     5    2    3 2    
     6    2    4 am   BACKBONE|DICT|INTERRES
     7    4    5 1    
     8    4  130 1    
     9    5    6 1    
    10    5   65 1    
    11    5  131 1    
    12    6    7 1    
    13    6  132 1    
    14    6  133 1    
    15    7    8 1    
    16    8    9 1    
    17    8  134 1    
    18    8  135 1    
    19    9   10 ar   
    20    9   14 ar   
    21   10   11 ar   
    22   10  136 1    
    23   11   12 ar   
    24   11  126 1    
    25   12   13 ar   
    26   12  137 1    
    27   13   14 ar   
    28   13   15 1    
    29   14  138 1    
    30   15   16 1    
    31   15  139 1    
    32   15  140 1    
    33   16   17 1    
    34   17   18 1    
    35   17  141 1    
    36   17  142 1    
    37   18   19 1    
    38   18   67 1    
    39   18  143 1    
    40   19   20 am   BACKBONE|DICT|INTERRES
    41   19  144 1    
    42   20   21 2    
    43   20   22 1    
    44   22   23 1    
    45   22   24 1    
    46   22  145 1    
    47   23  146 1    
    48   23  147 1    
    49   23  148 1    
    50   24   25 am   BACKBONE|DICT|INTERRES
    51   24  149 1    
    52   25   26 2    
    53   25   27 1    
    54   27   28 1    
    55   27   29 1    
    56   27  150 1    
    57   28  151 1    
    58   28  152 1    
    59   28  153 1    
    60   29   30 am   BACKBONE|DICT|INTERRES
    61   29  154 1    
    62   30   31 2    
    63   30   32 1    
    64   32   33 1    
    65   32   34 1    
    66   32  155 1    
    67   33  156 1    
    68   33  157 1    
    69   33  158 1    
    70   34   35 am   BACKBONE|DICT|INTERRES
    71   34  159 1    
    72   35   36 2    
    73   35   37 1    
    74   37   38 1    
    75   37   39 1    
    76   37  160 1    
    77   38  161 1    
    78   38  162 1    
    79   38  163 1    
    80   39   40 am   BACKBONE|DICT|INTERRES
    81   39  164 1    
    82   40   41 2    
    83   40   42 1    
    84   42   43 1    
    85   42   44 1    
    86   42  165 1    
    87   43  166 1    
    88   43  167 1    
    89   43  168 1    
    90   44   45 am   BACKBONE|DICT|INTERRES
    91   44  169 1    
    92   45   46 2    
    93   45   47 1    
    94   47   48 1    
    95   47   49 1    
    96   47  170 1    
    97   48  171 1    
    98   48  172 1    
    99   48  173 1    
   100   49   50 am   BACKBONE|DICT|INTERRES
   101   49  174 1    
   102   50   51 2    
   103   50   52 1    
   104   52   53 1    
   105   52   54 1    
   106   52  175 1    
   107   53  176 1    
   108   53  177 1    
   109   53  178 1    
   110   54   55 am   BACKBONE|DICT|INTERRES
   111   54  179 1    
   112   55   56 2    
   113   55   57 1    
   114   57   58 1    
   115   57   59 1    
   116   57  180 1    
   117   58  181 1    
   118   58  182 1    
   119   58  183 1    
   120   59   60 am   BACKBONE|DICT|INTERRES
   121   59  184 1    
   122   60   61 2    
   123   60   62 1    
   124   62   63 1    
   125   62   64 1    
   126   62  185 1    
   127   63  186 1    
   128   63  187 1    
   129   63  188 1    
   130   64   65 am   BACKBONE|DICT|INTERRES
   131   64  189 1    
   132   65   66 2    
   133   67   68 2    
   134   67   69 am   BACKBONE|DICT|INTERRES
   135   69   70 1    
   136   69  190 1    
   137   70   71 1    
   138   70   72 1    
   139   70  191 1    
   140   71  192 1    
   141   71  193 1    
   142   71  194 1    
   143   72   73 2    
   144   72   74 am   BACKBONE|DICT|INTERRES
   145   74   75 1    
   146   74  195 1    
   147   75   76 1    
   148   75   77 1    
   149   75  196 1    
   150   76  197 1    
   151   76  198 1    
   152   76  199 1    
   153   77   78 2    
   154   77   79 am   BACKBONE|DICT|INTERRES
   155   79   80 1    
   156   79  200 1    
   157   80   81 1    
   158   80   82 1    
   159   80  201 1    
   160   81  202 1    
   161   81  203 1    
   162   81  204 1    
   163   82   83 2    
   164   82   84 am   BACKBONE|DICT|INTERRES
   165   84   85 1    
   166   84  205 1    
   167   85   86 1    
   168   85   87 1    
   169   85  206 1    
   170   86  207 1    
   171   86  208 1    
   172   86  209 1    
   173   87   88 2    
   174   87   89 am   BACKBONE|DICT|INTERRES
   175   89   90 1    
   176   89  210 1    
   177   90   91 1    
   178   90   92 1    
   179   90  211 1    
   180   91  212 1    
   181   91  213 1    
   182   91  214 1    
   183   92   93 2    
   184   92   94 am   BACKBONE|DICT|INTERRES
   185   94   95 1    
   186   94  215 1    
   187   95   96 1    
   188   95   97 1    
   189   95  216 1    
   190   96  217 1    
   191   96  218 1    
   192   96  219 1    
   193   97   98 2    
   194   97   99 am   BACKBONE|DICT|INTERRES
   195   99  100 1    
   196   99  220 1    
   197  100  101 1    
   198  100  102 1    
   199  100  221 1    
   200  101  222 1    
   201  101  223 1    
   202  101  224 1    
   203  102  103 2    
   204  102  104 am   BACKBONE|DICT|INTERRES
   205  104  105 1    
   206  104  225 1    
   207  105  106 1    
   208  105  107 1    
   209  105  226 1    
   210  106  227 1    
   211  106  228 1    
   212  106  229 1    
   213  107  108 2    
   214  107  109 am   BACKBONE|DICT|INTERRES
   215  109  110 1    
   216  109  230 1    
   217  110  111 1    
   218  110  112 1    
   219  110  231 1    
   220  111  232 1    
   221  111  233 1    
   222  111  234 1    
   223  112  113 2    
   224  112  114 am   BACKBONE|DICT|INTERRES
   225  114  115 1    
   226  114  235 1    
   227  115  116 1    
   228  115  117 1    
   229  115  236 1    
   230  116  237 1    
   231  116  238 1    
   232  116  239 1    
   233  117  118 2    
   234  117  119 am   BACKBONE|DICT|INTERRES
   235  119  120 1    
   236  119  240 1    
   237  120  121 1    
   238  120  124 1    
   239  120  241 1    
   240  121  122 am   BACKBONE|DICT|INTERRES
   241  121  123 2    
   242  122  242 1    
   243  122  243 1    
   244  124  125 1    
   245  124  244 1    
   246  124  245 1    
   247  125  126 1    
   248  126  246 1    
   249  126  247 1    
@<TRIPOS>SUBSTRUCTURE
     1 UNK         1 GROUP             0       ****    0 ROOT    
