@<TRIPOS>MOLECULE
3R540
247   249    1
SMALL
USER_CHARGES


@<TRIPOS>ATOM
      1 CA         -1.9216   -9.6502  -49.1057 C.3       0 UNK        -0.1800 
      2 C          -1.4436  -10.5548  -47.9804 C.2       0 UNK         0.5000 
      3 O          -0.2683  -10.5126  -47.6184 O.2       0 UNK        -0.5000 
      4 N          -2.3505  -11.3580  -47.4092 N.am      1 UNK        -0.5000 
      5 CA         -2.0908  -12.3566  -46.3590 C.3       1 UNK         0.1400 
      6 C6         -3.3400  -13.2234  -46.0781 C.3       23 UNK        -0.0398 
      7 S7         -3.8189  -14.2253  -47.5258 S.3       23 UNK        -0.2404 
      8 C8         -2.9089  -15.7482  -47.1406 C.3       23 UNK        -0.0205 
      9 C9         -3.2042  -16.8602  -48.1298 C.ar      23 UNK        -0.0193 
     10 C10        -2.4509  -16.9847  -49.3000 C.ar      23 UNK        -0.1150 
     11 C11        -2.6777  -18.0479  -50.1792 C.ar      23 UNK        -0.0193 
     12 C12        -3.6753  -18.9796  -49.8794 C.ar      23 UNK        -0.1150 
     13 C13        -4.4484  -18.8562  -48.7222 C.ar      23 UNK        -0.0193 
     14 C14        -4.2074  -17.7915  -47.8513 C.ar      23 UNK        -0.1150 
     15 C15        -5.5264  -19.8822  -48.3951 C.3       23 UNK        -0.0205 
     16 S16        -4.8765  -21.5797  -48.2498 S.3       23 UNK        -0.2404 
     17 C17        -3.4788  -21.3352  -47.1023 C.3       23 UNK        -0.0398 
     18 CA         -2.7470  -22.6550  -46.7621 C.3       11 UNK         0.1400 
     19 N          -1.3149  -22.4414  -46.5442 N.am      11 UNK        -0.5000 
     20 C          -0.3914  -23.4105  -46.5032 C.2       10 UNK         0.5000 
     21 O          -0.6401  -24.6042  -46.6659 O.2       10 UNK        -0.5000 
     22 CA          1.0521  -22.9785  -46.1813 C.3       10 UNK         0.1400 
     23 CB          1.7834  -22.5231  -47.4531 C.3       10 UNK        -0.1800 
     24 N           1.1184  -21.9263  -45.1636 N.am      10 UNK        -0.5000 
     25 C           0.6923  -22.0706  -43.9001 C.2       9 UNK         0.5000 
     26 O           0.2440  -23.1236  -43.4506 O.2       9 UNK        -0.5000 
     27 CA          0.7178  -20.8239  -42.9986 C.3       9 UNK         0.1400 
     28 CB          2.1267  -20.5788  -42.4390 C.3       9 UNK        -0.1800 
     29 N           0.2405  -19.6223  -43.6816 N.am      9 UNK        -0.5000 
     30 C          -0.9996  -19.4563  -44.1647 C.2       8 UNK         0.5000 
     31 O          -1.8993  -20.2897  -44.0500 O.2       8 UNK        -0.5000 
     32 CA         -1.2553  -18.1629  -44.9620 C.3       8 UNK         0.1400 
     33 CB         -1.4314  -16.9619  -44.0169 C.3       8 UNK        -0.1800 
     34 N          -0.1856  -17.8853  -45.9241 N.am      8 UNK        -0.5000 
     35 C           0.1558  -18.7027  -46.9326 C.2       7 UNK         0.5000 
     36 O          -0.4345  -19.7485  -47.1936 O.2       7 UNK        -0.5000 
     37 CA          1.4132  -18.3300  -47.7351 C.3       7 UNK         0.1400 
     38 CB          1.0906  -17.3118  -48.8368 C.3       7 UNK        -0.1800 
     39 N           2.4671  -17.8093  -46.8648 N.am      7 UNK        -0.5000 
     40 C           3.1676  -18.5632  -46.0047 C.2       6 UNK         0.5000 
     41 O           3.0305  -19.7814  -45.8977 O.2       6 UNK        -0.5000 
     42 CA          4.1541  -17.8271  -45.0791 C.3       6 UNK         0.1400 
     43 CB          5.5051  -17.6222  -45.7800 C.3       6 UNK        -0.1800 
     44 N           3.6392  -16.5332  -44.6291 N.am      6 UNK        -0.5000 
     45 C           2.5785  -16.3784  -43.8235 C.2       5 UNK         0.5000 
     46 O           1.9670  -17.3187  -43.3185 O.2       5 UNK        -0.5000 
     47 CA          2.0898  -14.9371  -43.5844 C.3       5 UNK         0.1400 
     48 CB          2.7450  -14.3410  -42.3306 C.3       5 UNK        -0.1800 
     49 N           2.3391  -14.0533  -44.7243 N.am      5 UNK        -0.5000 
     50 C           1.7808  -14.1808  -45.9340 C.2       4 UNK         0.5000 
     51 O           0.9777  -15.0730  -46.2159 O.2       4 UNK        -0.5000 
     52 CA          2.2198  -13.1523  -46.9972 C.3       4 UNK         0.1400 
     53 CB          1.5152  -13.3533  -48.3507 C.3       4 UNK        -0.1800 
     54 N           2.0089  -11.7745  -46.5529 N.am      4 UNK        -0.5000 
     55 C           2.8012  -11.0849  -45.7205 C.2       3 UNK         0.5000 
     56 O           3.8118  -11.5570  -45.1976 O.2       3 UNK        -0.5000 
     57 CA          2.3729   -9.6463  -45.3921 C.3       3 UNK         0.1400 
     58 CB          2.6650   -8.7070  -46.5731 C.3       3 UNK        -0.1800 
     59 N           0.9467   -9.6016  -45.0780 N.am      3 UNK        -0.5000 
     60 C           0.4355   -9.6160  -43.8391 C.2       2 UNK         0.5000 
     61 O           1.1172   -9.5686  -42.8146 O.2       2 UNK        -0.5000 
     62 CA         -1.0998   -9.7143  -43.7199 C.3       2 UNK         0.1400 
     63 CB         -1.7266   -8.3133  -43.6545 C.3       2 UNK        -0.1800 
     64 N          -1.7095  -10.4602  -44.8224 N.am      2 UNK        -0.5000 
     65 C          -1.5337  -11.7711  -45.0420 C.2       1 UNK         0.5000 
     66 O          -0.9350  -12.5131  -44.2634 O.2       1 UNK        -0.5000 
     67 C          -3.4192  -23.4015  -45.5918 C.2       11 UNK         0.5000 
     68 O          -4.2966  -24.2336  -45.8262 O.2       11 UNK        -0.5000 
     69 N          -2.9867  -23.1064  -44.3573 N.am      12 UNK        -0.5000 
     70 CA         -3.4104  -23.8095  -43.1454 C.3       12 UNK         0.1400 
     71 CB         -3.0164  -22.9782  -41.9149 C.3       12 UNK        -0.1800 
     72 C          -2.8290  -25.2351  -43.0555 C.2       12 UNK         0.5000 
     73 O          -3.5029  -26.1372  -42.5552 O.2       12 UNK        -0.5000 
     74 N          -1.5930  -25.4078  -43.5396 N.am      13 UNK        -0.5000 
     75 CA         -0.8858  -26.6815  -43.6489 C.3       13 UNK         0.1400 
     76 CB          0.6234  -26.3907  -43.7467 C.3       13 UNK        -0.1800 
     77 C          -1.3727  -27.5329  -44.8419 C.2       13 UNK         0.5000 
     78 O          -2.2881  -27.1480  -45.5726 O.2       13 UNK        -0.5000 
     79 N          -0.7282  -28.6929  -45.0246 N.am      14 UNK        -0.5000 
     80 CA         -1.0248  -29.6751  -46.0711 C.3       14 UNK         0.1400 
     81 CB         -0.2807  -30.9794  -45.7420 C.3       14 UNK        -0.1800 
     82 C          -0.6947  -29.2138  -47.5071 C.2       14 UNK         0.5000 
     83 O          -1.1499  -29.8560  -48.4547 O.2       14 UNK        -0.5000 
     84 N           0.0858  -28.1318  -47.6564 N.am      15 UNK        -0.5000 
     85 CA          0.4266  -27.5268  -48.9482 C.3       15 UNK         0.1400 
     86 CB          1.5419  -26.4882  -48.7557 C.3       15 UNK        -0.1800 
     87 C          -0.7951  -26.9187  -49.6679 C.2       15 UNK         0.5000 
     88 O          -0.8754  -27.0101  -50.8935 O.2       15 UNK        -0.5000 
     89 N          -1.7393  -26.3736  -48.8867 N.am      16 UNK        -0.5000 
     90 CA         -3.0660  -25.9063  -49.2893 C.3       16 UNK         0.1400 
     91 CB         -3.9628  -27.1125  -49.6505 C.3       16 UNK        -0.1800 
     92 C          -3.0224  -24.7994  -50.3670 C.2       16 UNK         0.5000 
     93 O          -2.5045  -23.7189  -50.0887 O.2       16 UNK        -0.5000 
     94 N          -3.5881  -25.0781  -51.5503 N.am      17 UNK        -0.5000 
     95 CA         -3.9475  -24.1360  -52.6152 C.3       17 UNK         0.1400 
     96 CB         -2.7497  -23.2776  -53.0902 C.3       17 UNK        -0.1800 
     97 C          -5.2033  -23.3302  -52.2194 C.2       17 UNK         0.5000 
     98 O          -6.0925  -23.8806  -51.5647 O.2       17 UNK        -0.5000 
     99 N          -5.2853  -22.0699  -52.6504 N.am      18 UNK        -0.5000 
    100 CA        -6.3930  -21.1523  -52.4097 C.3       18 UNK         0.1400 
    101 CB        -7.5065  -21.3934  -53.4453 C.3       18 UNK        -0.1800 
    102 C         -5.8545  -19.7188  -52.4897 C.2       18 UNK         0.5000 
    103 O         -4.7227  -19.5205  -52.9420 O.2       18 UNK        -0.5000 
    104 N         -6.6615  -18.7487  -52.0403 N.am      19 UNK        -0.5000 
    105 CA        -6.3270  -17.3229  -51.9859 C.3       19 UNK         0.1400 
    106 CB        -7.5389  -16.5374  -51.4623 C.3       19 UNK        -0.1800 
    107 C         -5.8528  -16.7745  -53.3463 C.2       19 UNK         0.5000 
    108 O         -6.6076  -16.8199  -54.3196 O.2       19 UNK        -0.5000 
    109 N         -4.5936  -16.3163  -53.3775 N.am      20 UNK        -0.5000 
    110 CA        -3.8372  -15.8337  -54.5404 C.3       20 UNK         0.1400 
    111 CB        -4.5097  -14.5931  -55.1648 C.3       20 UNK        -0.1800 
    112 C         -3.5026  -16.9136  -55.5977 C.2       20 UNK         0.5000 
    113 O         -2.9973  -16.5638  -56.6653 O.2       20 UNK        -0.5000 
    114 N         -3.7400  -18.1973  -55.2903 N.am      21 UNK        -0.5000 
    115 CA        -3.4519  -19.3421  -56.1613 C.3       21 UNK         0.1400 
    116 CB        -4.6768  -20.2727  -56.1921 C.3       21 UNK        -0.1800 
    117 C         -2.1852  -20.1060  -55.7232 C.2       21 UNK         0.5000 
    118 O         -1.8906  -21.1574  -56.2931 O.2       21 UNK        -0.5000 
    119 N         -1.4557  -19.5764  -54.7310 N.am      22 UNK        -0.5000 
    120 CA        -0.1884  -20.1273  -54.2165 C.3       22 UNK         0.1400 
    121 C          1.0029  -20.0764  -55.2214 C.2       22 UNK         0.5000 
    122 N          0.9428  -19.2954  -56.2936 N.am      22 UNK        -0.7600 
    123 O          2.0023  -20.7616  -55.0229 O.2       22 UNK        -0.5000 
    124 C124        0.2267  -19.4652  -52.8762 C.3       23 UNK        -0.0398 
    125 S125       -0.9466  -19.7655  -51.5117 S.3       23 UNK        -0.2404 
    126 C126       -1.8518  -18.1863  -51.4510 C.3       23 UNK        -0.0205 
    127 H127       -1.7536   -8.6058  -48.8434 H         1 UNK         0.0600 
    128 H128       -2.9838   -9.7845  -49.3109 H         1 UNK         0.0600 
    129 H129       -1.3678   -9.8668  -50.0191 H         1 UNK         0.0600 
    130 H130       -3.2988  -11.3443  -47.7576 H         1 UNK         0.3000 
    131 H131       -1.3086  -13.0172  -46.7363 H         1 UNK         0.0600 
    132 H132       -3.1741  -13.8899  -45.2293 H         1 UNK         0.0800 
    133 H133       -4.1860  -12.5928  -45.7994 H         1 UNK         0.0800 
    134 H134       -3.1870  -16.0774  -46.1396 H         1 UNK         0.0800 
    135 H135       -1.8370  -15.5426  -47.1173 H         1 UNK         0.0800 
    136 H136       -1.6795  -16.2590  -49.5151 H         1 UNK         0.1150 
    137 H137       -3.8324  -19.8208  -50.5377 H         1 UNK         0.1150 
    138 H138       -4.7893  -17.6949  -46.9455 H         1 UNK         0.1150 
    139 H139       -6.0341  -19.6248  -47.4644 H         1 UNK         0.0800 
    140 H140       -6.2872  -19.8592  -49.1757 H         1 UNK         0.0800 
    141 H141       -3.8113  -20.8069  -46.2067 H         1 UNK         0.0800 
    142 H142       -2.7873  -20.6609  -47.6065 H         1 UNK         0.0800 
    143 H143       -2.8160  -23.3129  -47.6260 H         1 UNK         0.0600 
    144 H144       -1.0066  -21.4760  -46.4720 H         1 UNK         0.3000 
    145 H145        1.5786  -23.8498  -45.7878 H         1 UNK         0.0600 
    146 H146        2.8245  -22.2776  -47.2435 H         1 UNK         0.0600 
    147 H147        1.7800  -23.3085  -48.2093 H         1 UNK         0.0600 
    148 H148        1.3144  -21.6451  -47.8960 H         1 UNK         0.0600 
    149 H149        1.5240  -21.0407  -45.4485 H         1 UNK         0.3000 
    150 H150        0.0480  -21.0117  -42.1569 H         1 UNK         0.0600 
    151 H151        2.4904  -21.4548  -41.9006 H         1 UNK         0.0600 
    152 H152        2.1328  -19.7416  -41.7408 H         1 UNK         0.0600 
    153 H153        2.8432  -20.3586  -43.2302 H         1 UNK         0.0600 
    154 H154        0.9044  -18.8583  -43.7722 H         1 UNK         0.3000 
    155 H155       -2.1781  -18.2956  -45.5299 H         1 UNK         0.0600 
    156 H156       -1.4613  -16.0171  -44.5591 H         1 UNK         0.0600 
    157 H157       -0.6230  -16.8926  -43.2900 H         1 UNK         0.0600 
    158 H158       -2.3620  -17.0489  -43.4553 H         1 UNK         0.0600 
    159 H159        0.3346  -17.0237  -45.8035 H         1 UNK         0.3000 
    160 H160        1.7874  -19.2353  -48.2176 H         1 UNK         0.0600 
    161 H161        0.5988  -16.4244  -48.4400 H         1 UNK         0.0600 
    162 H162        0.4216  -17.7526  -49.5749 H         1 UNK         0.0600 
    163 H163        1.9904  -16.9957  -49.3644 H         1 UNK         0.0600 
    164 H164        2.5928  -16.8083  -46.8537 H         1 UNK         0.3000 
    165 H165        4.3166  -18.4532  -44.1993 H         1 UNK         0.0600 
    166 H166        6.2329  -17.1672  -45.1079 H         1 UNK         0.0600 
    167 H167        5.9208  -18.5751  -46.1104 H         1 UNK         0.0600 
    168 H168        5.4122  -16.9823  -46.6584 H         1 UNK         0.0600 
    169 H169        4.0916  -15.7073  -44.9919 H         1 UNK         0.3000 
    170 H170        1.0106  -14.9748  -43.4223 H         1 UNK         0.0600 
    171 H171        2.5564  -14.9661  -41.4568 H         1 UNK         0.0600 
    172 H172        3.8260  -14.2512  -42.4448 H         1 UNK         0.0600 
    173 H173        2.3466  -13.3497  -42.1129 H         1 UNK         0.0600 
    174 H174        2.9810  -13.2804  -44.5817 H         1 UNK         0.3000 
    175 H175        3.2887  -13.3020  -47.1625 H         1 UNK         0.0600 
    176 H176        0.4317  -13.2791  -48.2625 H         1 UNK         0.0600 
    177 H177        1.8407  -12.6096  -49.0782 H         1 UNK         0.0600 
    178 H178        1.7460  -14.3330  -48.7687 H         1 UNK         0.0600 
    179 H179        1.1864  -11.3103  -46.9330 H         1 UNK         0.3000 
    180 H180        2.9612   -9.3044  -44.5379 H         1 UNK         0.0600 
    181 H181        2.1044   -8.9879  -47.4655 H         1 UNK         0.0600 
    182 H182        3.7245   -8.7235  -46.8314 H         1 UNK         0.0600 
    183 H183        2.4061   -7.6770  -46.3275 H         1 UNK         0.0600 
    184 H184        0.3154   -9.6936  -45.8661 H         1 UNK         0.3000 
    185 H185       -1.3279  -10.2361  -42.7880 H         1 UNK         0.0600 
    186 H186       -1.3101   -7.7380  -42.8266 H         1 UNK         0.0600 
    187 H187       -1.5467   -7.7484  -44.5701 H         1 UNK         0.0600 
    188 H188       -2.8042   -8.3697  -43.4998 H         1 UNK         0.0600 
    189 H189       -2.2197   -9.9244  -45.5092 H         1 UNK         0.3000 
    190 H190       -2.3014  -22.3676  -44.2442 H         1 UNK         0.3000 
    191 H191       -4.4990  -23.8941  -43.1619 H         1 UNK         0.0600 
    192 H192       -1.9359  -22.8535  -41.8407 H         1 UNK         0.0600 
    193 H193       -3.3556  -23.4575  -40.9958 H         1 UNK         0.0600 
    194 H194       -3.4650  -21.9851  -41.9500 H         1 UNK         0.0600 
    195 H195       -1.1009  -24.5951  -43.8927 H         1 UNK         0.3000 
    196 H196       -1.0671  -27.2550  -42.7377 H         1 UNK         0.0600 
    197 H197        1.2152  -27.3053  -43.7053 H         1 UNK         0.0600 
    198 H198        0.9568  -25.7621  -42.9207 H         1 UNK         0.0600 
    199 H199        0.8729  -25.8787  -44.6758 H         1 UNK         0.0600 
    200 H200        0.0154  -28.9392  -44.3874 H         1 UNK         0.3000 
    201 H201       -2.0971  -29.8796  -46.0417 H         1 UNK         0.0600 
    202 H202       -0.5723  -31.3654  -44.7650 H         1 UNK         0.0600 
    203 H203        0.8004  -30.8351  -45.7388 H         1 UNK         0.0600 
    204 H204       -0.5057  -31.7556  -46.4748 H         1 UNK         0.0600 
    205 H205        0.4069  -27.6538  -46.8281 H         1 UNK         0.3000 
    206 H206        0.8183  -28.3178  -49.5913 H         1 UNK         0.0600 
    207 H207        2.4493  -26.9528  -48.3698 H         1 UNK         0.0600 
    208 H208        1.7986  -26.0098  -49.7017 H         1 UNK         0.0600 
    209 H209        1.2482  -25.7038  -48.0607 H         1 UNK         0.0600 
    210 H210       -1.5322  -26.2737  -47.8989 H         1 UNK         0.3000 
    211 H211       -3.5003  -25.4440  -48.4022 H         1 UNK         0.0600 
    212 H212       -3.5855  -27.6659  -50.5111 H         1 UNK         0.0600 
    213 H213       -4.9821  -26.7943  -49.8736 H         1 UNK         0.0600 
    214 H214       -4.0237  -27.8105  -48.8151 H         1 UNK         0.0600 
    215 H215       -3.9802  -26.0024  -51.6588 H         1 UNK         0.3000 
    216 H216       -4.2489  -24.7556  -53.4608 H         1 UNK         0.0600 
    217 H217       -2.9727  -22.7822  -54.0357 H         1 UNK         0.0600 
    218 H218       -1.8657  -23.8936  -53.2547 H         1 UNK         0.0600 
    219 H219       -2.4845  -22.5015  -52.3713 H         1 UNK         0.0600 
    220 H220       -4.4919  -21.6404  -53.1097 H         1 UNK         0.3000 
    221 H221       -6.7825  -21.3109  -51.4018 H         1 UNK         0.0600 
    222 H222       -7.1514  -21.2301  -54.4632 H         1 UNK         0.0600 
    223 H223       -7.8890  -22.4123  -53.3849 H         1 UNK         0.0600 
    224 H224       -8.3509  -20.7232  -53.2810 H         1 UNK         0.0600 
    225 H225       -7.5845  -18.9968  -51.7166 H         1 UNK         0.3000 
    226 H226       -5.5197  -17.2075  -51.2603 H         1 UNK         0.0600 
    227 H227       -7.8207  -16.8672  -50.4621 H         1 UNK         0.0600 
    228 H228       -7.3154  -15.4715  -51.4008 H         1 UNK         0.0600 
    229 H229       -8.4065  -16.6544  -52.1130 H         1 UNK         0.0600 
    230 H230       -4.0712  -16.3379  -52.5134 H         1 UNK         0.3000 
    231 H231       -2.8737  -15.5099  -54.1444 H         1 UNK         0.0600 
    232 H232       -3.8614  -14.1286  -55.9087 H         1 UNK         0.0600 
    233 H233       -4.7245  -13.8377  -54.4090 H         1 UNK         0.0600 
    234 H234       -5.4455  -14.8453  -55.6641 H         1 UNK         0.0600 
    235 H235       -4.1469  -18.4307  -54.3877 H         1 UNK         0.3000 
    236 H236       -3.2765  -18.9996  -57.1828 H         1 UNK         0.0600 
    237 H237       -4.8153  -20.7912  -55.2449 H         1 UNK         0.0600 
    238 H238       -5.5907  -19.7202  -56.4113 H         1 UNK         0.0600 
    239 H239       -4.5660  -21.0358  -56.9632 H         1 UNK         0.0600 
    240 H240       -1.7769  -18.7178  -54.3138 H         1 UNK         0.3000 
    241 H241       -0.3625  -21.1869  -54.0187 H         1 UNK         0.0600 
    242 H242        0.1303  -18.7278  -56.4731 H         1 UNK         0.3800 
    243 H243        1.7192  -19.2757  -56.9363 H         1 UNK         0.3800 
    244 H244        1.1877  -19.8604  -52.5415 H         1 UNK         0.0800 
    245 H245        0.3798  -18.3933  -53.0098 H         1 UNK         0.0800 
    246 H246       -2.5129  -18.1219  -52.3140 H         1 UNK         0.0800 
    247 H247       -1.1454  -17.3592  -51.5332 H         1 UNK         0.0800 
@<TRIPOS>BOND
     1    1    2 1    
     2    1  127 1    
     3    1  128 1    
     4    1  129 1    
     5    2    3 2    
     6    2    4 am   BACKBONE|DICT|INTERRES
     7    4    5 1    
     8    4  130 1    
     9    5    6 1    
    10    5   65 1    
    11    5  131 1    
    12    6    7 1    
    13    6  132 1    
    14    6  133 1    
    15    7    8 1    
    16    8    9 1    
    17    8  134 1    
    18    8  135 1    
    19    9   10 ar   
    20    9   14 ar   
    21   10   11 ar   
    22   10  136 1    
    23   11   12 ar   
    24   11  126 1    
    25   12   13 ar   
    26   12  137 1    
    27   13   14 ar   
    28   13   15 1    
    29   14  138 1    
    30   15   16 1    
    31   15  139 1    
    32   15  140 1    
    33   16   17 1    
    34   17   18 1    
    35   17  141 1    
    36   17  142 1    
    37   18   19 1    
    38   18   67 1    
    39   18  143 1    
    40   19   20 am   BACKBONE|DICT|INTERRES
    41   19  144 1    
    42   20   21 2    
    43   20   22 1    
    44   22   23 1    
    45   22   24 1    
    46   22  145 1    
    47   23  146 1    
    48   23  147 1    
    49   23  148 1    
    50   24   25 am   BACKBONE|DICT|INTERRES
    51   24  149 1    
    52   25   26 2    
    53   25   27 1    
    54   27   28 1    
    55   27   29 1    
    56   27  150 1    
    57   28  151 1    
    58   28  152 1    
    59   28  153 1    
    60   29   30 am   BACKBONE|DICT|INTERRES
    61   29  154 1    
    62   30   31 2    
    63   30   32 1    
    64   32   33 1    
    65   32   34 1    
    66   32  155 1    
    67   33  156 1    
    68   33  157 1    
    69   33  158 1    
    70   34   35 am   BACKBONE|DICT|INTERRES
    71   34  159 1    
    72   35   36 2    
    73   35   37 1    
    74   37   38 1    
    75   37   39 1    
    76   37  160 1    
    77   38  161 1    
    78   38  162 1    
    79   38  163 1    
    80   39   40 am   BACKBONE|DICT|INTERRES
    81   39  164 1    
    82   40   41 2    
    83   40   42 1    
    84   42   43 1    
    85   42   44 1    
    86   42  165 1    
    87   43  166 1    
    88   43  167 1    
    89   43  168 1    
    90   44   45 am   BACKBONE|DICT|INTERRES
    91   44  169 1    
    92   45   46 2    
    93   45   47 1    
    94   47   48 1    
    95   47   49 1    
    96   47  170 1    
    97   48  171 1    
    98   48  172 1    
    99   48  173 1    
   100   49   50 am   BACKBONE|DICT|INTERRES
   101   49  174 1    
   102   50   51 2    
   103   50   52 1    
   104   52   53 1    
   105   52   54 1    
   106   52  175 1    
   107   53  176 1    
   108   53  177 1    
   109   53  178 1    
   110   54   55 am   BACKBONE|DICT|INTERRES
   111   54  179 1    
   112   55   56 2    
   113   55   57 1    
   114   57   58 1    
   115   57   59 1    
   116   57  180 1    
   117   58  181 1    
   118   58  182 1    
   119   58  183 1    
   120   59   60 am   BACKBONE|DICT|INTERRES
   121   59  184 1    
   122   60   61 2    
   123   60   62 1    
   124   62   63 1    
   125   62   64 1    
   126   62  185 1    
   127   63  186 1    
   128   63  187 1    
   129   63  188 1    
   130   64   65 am   BACKBONE|DICT|INTERRES
   131   64  189 1    
   132   65   66 2    
   133   67   68 2    
   134   67   69 am   BACKBONE|DICT|INTERRES
   135   69   70 1    
   136   69  190 1    
   137   70   71 1    
   138   70   72 1    
   139   70  191 1    
   140   71  192 1    
   141   71  193 1    
   142   71  194 1    
   143   72   73 2    
   144   72   74 am   BACKBONE|DICT|INTERRES
   145   74   75 1    
   146   74  195 1    
   147   75   76 1    
   148   75   77 1    
   149   75  196 1    
   150   76  197 1    
   151   76  198 1    
   152   76  199 1    
   153   77   78 2    
   154   77   79 am   BACKBONE|DICT|INTERRES
   155   79   80 1    
   156   79  200 1    
   157   80   81 1    
   158   80   82 1    
   159   80  201 1    
   160   81  202 1    
   161   81  203 1    
   162   81  204 1    
   163   82   83 2    
   164   82   84 am   BACKBONE|DICT|INTERRES
   165   84   85 1    
   166   84  205 1    
   167   85   86 1    
   168   85   87 1    
   169   85  206 1    
   170   86  207 1    
   171   86  208 1    
   172   86  209 1    
   173   87   88 2    
   174   87   89 am   BACKBONE|DICT|INTERRES
   175   89   90 1    
   176   89  210 1    
   177   90   91 1    
   178   90   92 1    
   179   90  211 1    
   180   91  212 1    
   181   91  213 1    
   182   91  214 1    
   183   92   93 2    
   184   92   94 am   BACKBONE|DICT|INTERRES
   185   94   95 1    
   186   94  215 1    
   187   95   96 1    
   188   95   97 1    
   189   95  216 1    
   190   96  217 1    
   191   96  218 1    
   192   96  219 1    
   193   97   98 2    
   194   97   99 am   BACKBONE|DICT|INTERRES
   195   99  100 1    
   196   99  220 1    
   197  100  101 1    
   198  100  102 1    
   199  100  221 1    
   200  101  222 1    
   201  101  223 1    
   202  101  224 1    
   203  102  103 2    
   204  102  104 am   BACKBONE|DICT|INTERRES
   205  104  105 1    
   206  104  225 1    
   207  105  106 1    
   208  105  107 1    
   209  105  226 1    
   210  106  227 1    
   211  106  228 1    
   212  106  229 1    
   213  107  108 2    
   214  107  109 am   BACKBONE|DICT|INTERRES
   215  109  110 1    
   216  109  230 1    
   217  110  111 1    
   218  110  112 1    
   219  110  231 1    
   220  111  232 1    
   221  111  233 1    
   222  111  234 1    
   223  112  113 2    
   224  112  114 am   BACKBONE|DICT|INTERRES
   225  114  115 1    
   226  114  235 1    
   227  115  116 1    
   228  115  117 1    
   229  115  236 1    
   230  116  237 1    
   231  116  238 1    
   232  116  239 1    
   233  117  118 2    
   234  117  119 am   BACKBONE|DICT|INTERRES
   235  119  120 1    
   236  119  240 1    
   237  120  121 1    
   238  120  124 1    
   239  120  241 1    
   240  121  122 am   BACKBONE|DICT|INTERRES
   241  121  123 2    
   242  122  242 1    
   243  122  243 1    
   244  124  125 1    
   245  124  244 1    
   246  124  245 1    
   247  125  126 1    
   248  126  246 1    
   249  126  247 1    
@<TRIPOS>SUBSTRUCTURE
     1 UNK         1 GROUP             0       ****    0 ROOT    
