@<TRIPOS>MOLECULE
3R540
247   249    1
SMALL
USER_CHARGES


@<TRIPOS>ATOM
      1 CA         -2.3108  -10.1807  -45.7833 C.3       0 UNK        -0.1800 
      2 C          -2.1361  -11.6916  -45.8396 C.2       0 UNK         0.5000 
      3 O          -1.9979  -12.2478  -46.9272 O.2       0 UNK        -0.5000 
      4 N          -2.1395  -12.3487  -44.6715 N.am      1 UNK        -0.5000 
      5 CA         -1.9713  -13.8015  -44.5113 C.3       1 UNK         0.1400 
      6 C6         -2.3037  -14.2705  -43.0713 C.3       23 UNK        -0.0398 
      7 S7         -3.9603  -13.7377  -42.5135 S.3       23 UNK        -0.2404 
      8 C8         -4.7870  -15.3273  -42.1647 C.3       23 UNK        -0.0205 
      9 C9         -4.8943  -16.2576  -43.3695 C.ar      23 UNK        -0.0193 
     10 C10        -5.2163  -15.7698  -44.6397 C.ar      23 UNK        -0.1150 
     11 C11        -5.3051  -16.6317  -45.7358 C.ar      23 UNK        -0.0193 
     12 C12        -5.0975  -18.0030  -45.5507 C.ar      23 UNK        -0.1150 
     13 C13        -4.8028  -18.5101  -44.2803 C.ar      23 UNK        -0.0193 
     14 C14        -4.6996  -17.6306  -43.1983 C.ar      23 UNK        -0.1150 
     15 C15        -4.6407  -20.0080  -44.0568 C.3       23 UNK        -0.0205 
     16 S16        -2.9647  -20.4347  -43.4905 S.3       23 UNK        -0.2404 
     17 C17        -3.1538  -22.1988  -43.0858 C.3       23 UNK        -0.0398 
     18 CA         -2.7191  -23.1269  -44.2438 C.3       11 UNK         0.1400 
     19 N          -1.2775  -23.0489  -44.5466 N.am      11 UNK        -0.5000 
     20 C          -0.6794  -23.6832  -45.5678 C.2       10 UNK         0.5000 
     21 O          -1.2963  -24.4091  -46.3506 O.2       10 UNK        -0.5000 
     22 CA          0.8398  -23.5226  -45.7500 C.3       10 UNK         0.1400 
     23 CB          1.2470  -23.5237  -47.2352 C.3       10 UNK        -0.1800 
     24 N           1.3784  -22.3229  -45.1102 N.am      10 UNK        -0.5000 
     25 C           2.5716  -22.2723  -44.4984 C.2       9 UNK         0.5000 
     26 O           3.2589  -23.2700  -44.2737 O.2       9 UNK        -0.5000 
     27 CA          3.1283  -20.8922  -44.0922 C.3       9 UNK         0.1400 
     28 CB          4.2992  -20.4970  -45.0067 C.3       9 UNK        -0.1800 
     29 N           2.1338  -19.8242  -44.1313 N.am      9 UNK        -0.5000 
     30 C           1.1999  -19.6180  -43.1952 C.2       8 UNK         0.5000 
     31 O           1.0994  -20.2943  -42.1710 O.2       8 UNK        -0.5000 
     32 CA          0.2036  -18.4703  -43.4480 C.3       8 UNK         0.1400 
     33 CB          0.6863  -17.1934  -42.7418 C.3       8 UNK        -0.1800 
     34 N          -0.0501  -18.1624  -44.8596 N.am      8 UNK        -0.5000 
     35 C          -0.4097  -19.0188  -45.8292 C.2       7 UNK         0.5000 
     36 O          -0.5125  -20.2360  -45.6853 O.2       7 UNK        -0.5000 
     37 CA         -0.6258  -18.4080  -47.2205 C.3       7 UNK         0.1400 
     38 CB         -2.0232  -17.7735  -47.3022 C.3       7 UNK        -0.1800 
     39 N           0.3961  -17.4152  -47.5588 N.am      7 UNK        -0.5000 
     40 C           1.7096  -17.6653  -47.6701 C.2       6 UNK         0.5000 
     41 O           2.2107  -18.7738  -47.4729 O.2       6 UNK        -0.5000 
     42 CA          2.6111  -16.4673  -48.0368 C.3       6 UNK         0.1400 
     43 CB          3.9923  -16.8869  -48.5814 C.3       6 UNK        -0.1800 
     44 N           1.9534  -15.5130  -48.9335 N.am      6 UNK        -0.5000 
     45 C           1.5334  -15.7311  -50.1886 C.2       5 UNK         0.5000 
     46 O           1.7317  -16.7663  -50.8238 O.2       5 UNK        -0.5000 
     47 CA          0.7844  -14.5643  -50.8513 C.3       5 UNK         0.1400 
     48 CB         -0.6069  -14.3744  -50.2248 C.3       5 UNK        -0.1800 
     49 N           1.5385  -13.3141  -50.7573 N.am      5 UNK        -0.5000 
     50 C           2.6376  -13.0357  -51.4742 C.2       4 UNK         0.5000 
     51 O           3.1131  -13.7987  -52.3160 O.2       4 UNK        -0.5000 
     52 CA          3.3146  -11.6705  -51.2373 C.3       4 UNK         0.1400 
     53 CB          2.9514  -10.6896  -52.3634 C.3       4 UNK        -0.1800 
     54 N           2.9559  -11.0655  -49.9540 N.am      4 UNK        -0.5000 
     55 C           3.4763  -11.4212  -48.7728 C.2       3 UNK         0.5000 
     56 O           4.3705  -12.2612  -48.6496 O.2       3 UNK        -0.5000 
     57 CA          2.9091  -10.7255  -47.5136 C.3       3 UNK         0.1400 
     58 CB          1.6107   -9.9235  -47.7662 C.3       3 UNK        -0.1800 
     59 N           2.7044  -11.6583  -46.4004 N.am      3 UNK        -0.5000 
     60 C           1.9673  -12.7784  -46.4165 C.2       2 UNK         0.5000 
     61 O           1.3877  -13.2020  -47.4181 O.2       2 UNK        -0.5000 
     62 CA          1.8209  -13.5467  -45.0898 C.3       2 UNK         0.1400 
     63 CB          2.7650  -13.0704  -43.9681 C.3       2 UNK        -0.1800 
     64 N           0.4420  -13.3987  -44.6418 N.am      2 UNK        -0.5000 
     65 C          -0.5493  -14.2611  -44.8991 C.2       1 UNK         0.5000 
     66 O          -0.3780  -15.3676  -45.4102 O.2       1 UNK        -0.5000 
     67 C          -3.1970  -24.5687  -43.9648 C.2       11 UNK         0.5000 
     68 O          -4.3102  -24.9225  -44.3538 O.2       11 UNK        -0.5000 
     69 N          -2.3260  -25.3925  -43.3634 N.am      12 UNK        -0.5000 
     70 CA         -2.5438  -26.8233  -43.1245 C.3       12 UNK         0.1400 
     71 CB         -1.4137  -27.3522  -42.2282 C.3       12 UNK        -0.1800 
     72 C          -2.6430  -27.6629  -44.4170 C.2       12 UNK         0.5000 
     73 O          -3.2105  -28.7550  -44.3857 O.2       12 UNK        -0.5000 
     74 N          -2.1110  -27.1315  -45.5251 N.am      13 UNK        -0.5000 
     75 CA         -2.1775  -27.6984  -46.8698 C.3       13 UNK         0.1400 
     76 CB         -0.7581  -27.7030  -47.4669 C.3       13 UNK        -0.1800 
     77 C          -3.1637  -26.9123  -47.7584 C.2       13 UNK         0.5000 
     78 O          -3.0507  -26.9793  -48.9819 O.2       13 UNK        -0.5000 
     79 N          -4.0930  -26.1608  -47.1447 N.am      14 UNK        -0.5000 
     80 CA         -5.1047  -25.3090  -47.7824 C.3       14 UNK         0.1400 
     81 CB         -6.1252  -26.1612  -48.5665 C.3       14 UNK        -0.1800 
     82 C          -4.4768  -24.1854  -48.6325 C.2       14 UNK         0.5000 
     83 O          -4.8740  -23.9761  -49.7795 O.2       14 UNK        -0.5000 
     84 N          -3.4704  -23.5131  -48.0550 N.am      15 UNK        -0.5000 
     85 CA         -2.6257  -22.4844  -48.6706 C.3       15 UNK         0.1400 
     86 CB         -3.4360  -21.2154  -49.0023 C.3       15 UNK        -0.1800 
     87 C          -1.8470  -23.0549  -49.8712 C.2       15 UNK         0.5000 
     88 O          -1.8625  -22.4741  -50.9575 O.2       15 UNK        -0.5000 
     89 N          -1.2141  -24.2158  -49.6410 N.am      16 UNK        -0.5000 
     90 CA         -0.4515  -25.0184  -50.6039 C.3       16 UNK         0.1400 
     91 CB          0.8424  -24.2813  -51.0126 C.3       16 UNK        -0.1800 
     92 C          -1.3074  -25.4381  -51.8168 C.2       16 UNK         0.5000 
     93 O          -0.9337  -25.1720  -52.9585 O.2       16 UNK        -0.5000 
     94 N          -2.4749  -26.0379  -51.5422 N.am      17 UNK        -0.5000 
     95 CA         -3.5235  -26.4040  -52.5037 C.3       17 UNK         0.1400 
     96 CB         -3.0649  -27.5837  -53.3854 C.3       17 UNK        -0.1800 
     97 C          -4.0154  -25.1887  -53.3211 C.2       17 UNK         0.5000 
     98 O          -4.1930  -25.2785  -54.5371 O.2       17 UNK        -0.5000 
     99 N          -4.1811  -24.0614  -52.6176 N.am      18 UNK        -0.5000 
    100 CA        -4.5333  -22.7251  -53.0963 C.3       18 UNK         0.1400 
    101 CB        -5.9387  -22.7161  -53.7310 C.3       18 UNK        -0.1800 
    102 C         -3.4770  -22.0436  -53.9956 C.2       18 UNK         0.5000 
    103 O         -3.7679  -20.9814  -54.5473 O.2       18 UNK        -0.5000 
    104 N         -2.2643  -22.6059  -54.1153 N.am      19 UNK        -0.5000 
    105 CA        -1.1661  -22.0088  -54.8835 C.3       19 UNK         0.1400 
    106 CB        -0.0844  -23.0634  -55.1576 C.3       19 UNK        -0.1800 
    107 C         -0.5486  -20.7777  -54.1922 C.2       19 UNK         0.5000 
    108 O         -0.0132  -19.9075  -54.8795 O.2       19 UNK        -0.5000 
    109 N         -0.6445  -20.7203  -52.8584 N.am      20 UNK        -0.5000 
    110 CA        -0.1716  -19.6232  -52.0159 C.3       20 UNK         0.1400 
    111 CB         0.7388  -20.2055  -50.9172 C.3       20 UNK        -0.1800 
    112 C         -1.3507  -18.8316  -51.4170 C.2       20 UNK         0.5000 
    113 O         -1.1612  -18.1383  -50.4213 O.2       20 UNK        -0.5000 
    114 N         -2.5548  -18.9585  -51.9969 N.am      21 UNK        -0.5000 
    115 CA        -3.7750  -18.2926  -51.5341 C.3       21 UNK         0.1400 
    116 CB        -4.9746  -18.8039  -52.3454 C.3       21 UNK        -0.1800 
    117 C         -3.7015  -16.7548  -51.6024 C.2       21 UNK         0.5000 
    118 O         -2.9948  -16.1988  -52.4467 O.2       21 UNK        -0.5000 
    119 N         -4.4708  -16.1068  -50.7208 N.am      22 UNK        -0.5000 
    120 CA        -4.5380  -14.6445  -50.5606 C.3       22 UNK         0.1400 
    121 C         -5.2338  -13.8779  -51.7255 C.2       22 UNK         0.5000 
    122 N         -5.9152  -14.5411  -52.6518 N.am      22 UNK        -0.7600 
    123 O         -5.1519  -12.6545  -51.7903 O.2       22 UNK        -0.5000 
    124 C124       -5.1690  -14.2468  -49.2009 C.3       23 UNK        -0.0398 
    125 S125       -4.3374  -15.0035  -47.7609 S.3       23 UNK        -0.2404 
    126 C126       -5.6599  -16.0712  -47.1052 C.3       23 UNK        -0.0205 
    127 H127       -3.1984   -9.8850  -46.3426 H         1 UNK         0.0600 
    128 H128       -1.4463   -9.6876  -46.2281 H         1 UNK         0.0600 
    129 H129       -2.4182   -9.8216  -44.7595 H         1 UNK         0.0600 
    130 H130       -2.2971  -11.8347  -43.8163 H         1 UNK         0.3000 
    131 H131       -2.6651  -14.2924  -45.1970 H         1 UNK         0.0600 
    132 H132       -1.5735  -13.8800  -42.3602 H         1 UNK         0.0800 
    133 H133       -2.2367  -15.3579  -43.0069 H         1 UNK         0.0800 
    134 H134       -4.2538  -15.8187  -41.3492 H         1 UNK         0.0800 
    135 H135       -5.7929  -15.1232  -41.7961 H         1 UNK         0.0800 
    136 H136       -5.3894  -14.7126  -44.7837 H         1 UNK         0.1150 
    137 H137       -5.1822  -18.6768  -46.3915 H         1 UNK         0.1150 
    138 H138       -4.4733  -18.0235  -42.2169 H         1 UNK         0.1150 
    139 H139       -5.3711  -20.3295  -43.3130 H         1 UNK         0.0800 
    140 H140       -4.8589  -20.5629  -44.9706 H         1 UNK         0.0800 
    141 H141       -4.1949  -22.3769  -42.8089 H         1 UNK         0.0800 
    142 H142       -2.5662  -22.4081  -42.1904 H         1 UNK         0.0800 
    143 H143       -3.2460  -22.7984  -45.1421 H         1 UNK         0.0600 
    144 H144       -0.7258  -22.4347  -43.9651 H         1 UNK         0.3000 
    145 H145        1.2706  -24.4115  -45.2854 H         1 UNK         0.0600 
    146 H146        0.7886  -22.6950  -47.7765 H         1 UNK         0.0600 
    147 H147        2.3276  -23.4392  -47.3498 H         1 UNK         0.0600 
    148 H148        0.9483  -24.4506  -47.7250 H         1 UNK         0.0600 
    149 H149        0.8465  -21.4667  -45.2562 H         1 UNK         0.3000 
    150 H150        3.5089  -20.9798  -43.0724 H         1 UNK         0.0600 
    151 H151        5.0943  -21.2429  -44.9707 H         1 UNK         0.0600 
    152 H152        4.7347  -19.5449  -44.7029 H         1 UNK         0.0600 
    153 H153        3.9828  -20.4051  -46.0466 H         1 UNK         0.0600 
    154 H154        2.1164  -19.2523  -44.9649 H         1 UNK         0.3000 
    155 H155       -0.7454  -18.7596  -42.9988 H         1 UNK         0.0600 
    156 H156        0.9163  -17.3853  -41.6929 H         1 UNK         0.0600 
    157 H157       -0.0776  -16.4180  -42.7639 H         1 UNK         0.0600 
    158 H158        1.5862  -16.7912  -43.2089 H         1 UNK         0.0600 
    159 H159       -0.0278  -17.1755  -45.1083 H         1 UNK         0.3000 
    160 H160       -0.5646  -19.2100  -47.9588 H         1 UNK         0.0600 
    161 H161       -2.1841  -17.2614  -48.2497 H         1 UNK         0.0600 
    162 H162       -2.1898  -17.0468  -46.5062 H         1 UNK         0.0600 
    163 H163       -2.7940  -18.5385  -47.2124 H         1 UNK         0.0600 
    164 H164        0.0718  -16.4685  -47.6932 H         1 UNK         0.3000 
    165 H165        2.7845  -15.9302  -47.1048 H         1 UNK         0.0600 
    166 H166        3.9062  -17.5053  -49.4751 H         1 UNK         0.0600 
    167 H167        4.5980  -16.0158  -48.8316 H         1 UNK         0.0600 
    168 H168        4.5450  -17.4641  -47.8392 H         1 UNK         0.0600 
    169 H169        1.7295  -14.6130  -48.5111 H         1 UNK         0.3000 
    170 H170        0.6455  -14.8098  -51.9065 H         1 UNK         0.0600 
    171 H171       -0.5504  -14.0760  -49.1771 H         1 UNK         0.0600 
    172 H172       -1.1744  -13.6123  -50.7583 H         1 UNK         0.0600 
    173 H173       -1.1819  -15.3004  -50.2690 H         1 UNK         0.0600 
    174 H174        1.2394  -12.6550  -50.0534 H         1 UNK         0.3000 
    175 H175        4.3948  -11.8302  -51.2624 H         1 UNK         0.0600 
    176 H176        1.8803  -10.4854  -52.3901 H         1 UNK         0.0600 
    177 H177        3.4724   -9.7397  -52.2428 H         1 UNK         0.0600 
    178 H178        3.2331  -11.0913  -53.3377 H         1 UNK         0.0600 
    179 H179        2.2314  -10.3624  -49.9722 H         1 UNK         0.3000 
    180 H180        3.6757  -10.0211  -47.1882 H         1 UNK         0.0600 
    181 H181        0.8056  -10.5562  -48.1429 H         1 UNK         0.0600 
    182 H182        1.7705   -9.1170  -48.4827 H         1 UNK         0.0600 
    183 H183        1.2565   -9.4593  -46.8456 H         1 UNK         0.0600 
    184 H184        3.1722  -11.4139  -45.5394 H         1 UNK         0.3000 
    185 H185        2.0445  -14.5958  -45.2897 H         1 UNK         0.0600 
    186 H186        2.6462  -13.6888  -43.0780 H         1 UNK         0.0600 
    187 H187        3.8099  -13.1478  -44.2718 H         1 UNK         0.0600 
    188 H188        2.5722  -12.0375  -43.6752 H         1 UNK         0.0600 
    189 H189        0.1923  -12.4998  -44.2563 H         1 UNK         0.3000 
    190 H190       -1.4290  -25.0214  -43.0857 H         1 UNK         0.3000 
    191 H191       -3.4889  -26.9356  -42.5892 H         1 UNK         0.0600 
    192 H192       -0.4390  -27.2482  -42.7066 H         1 UNK         0.0600 
    193 H193       -1.3811  -26.8195  -41.2776 H         1 UNK         0.0600 
    194 H194       -1.5567  -28.4096  -42.0011 H         1 UNK         0.0600 
    195 H195       -1.7033  -26.2052  -45.4737 H         1 UNK         0.3000 
    196 H196       -2.5344  -28.7293  -46.8336 H         1 UNK         0.0600 
    197 H197       -0.0686  -28.2618  -46.8341 H         1 UNK         0.0600 
    198 H198       -0.3640  -26.6927  -47.5781 H         1 UNK         0.0600 
    199 H199       -0.7439  -28.1733  -48.4509 H         1 UNK         0.0600 
    200 H200       -4.0911  -26.1363  -46.1320 H         1 UNK         0.3000 
    201 H201       -5.6435  -24.8136  -46.9735 H         1 UNK         0.0600 
    202 H202       -6.9439  -25.5438  -48.9379 H         1 UNK         0.0600 
    203 H203       -6.5628  -26.9328  -47.9333 H         1 UNK         0.0600 
    204 H204       -5.6716  -26.6517  -49.4282 H         1 UNK         0.0600 
    205 H205       -3.1423  -23.8457  -47.1569 H         1 UNK         0.3000 
    206 H206       -1.8806  -22.2018  -47.9260 H         1 UNK         0.0600 
    207 H207       -3.9842  -20.8586  -48.1305 H         1 UNK         0.0600 
    208 H208       -4.1525  -21.3826  -49.8066 H         1 UNK         0.0600 
    209 H209       -2.7711  -20.4112  -49.3159 H         1 UNK         0.0600 
    210 H210       -1.3015  -24.6105  -48.7136 H         1 UNK         0.3000 
    211 H211       -0.1650  -25.9378  -50.0919 H         1 UNK         0.0600 
    212 H212        1.4444  -24.0221  -50.1427 H         1 UNK         0.0600 
    213 H213        1.4595  -24.9072  -51.6580 H         1 UNK         0.0600 
    214 H214        0.6318  -23.3607  -51.5578 H         1 UNK         0.0600 
    215 H215       -2.6923  -26.2469  -50.5679 H         1 UNK         0.3000 
    216 H216       -4.3759  -26.7421  -51.9126 H         1 UNK         0.0600 
    217 H217       -3.8789  -27.9362  -54.0198 H         1 UNK         0.0600 
    218 H218       -2.2381  -27.3043  -54.0391 H         1 UNK         0.0600 
    219 H219       -2.7405  -28.4270  -52.7758 H         1 UNK         0.0600 
    220 H220       -4.0461  -24.1147  -51.6123 H         1 UNK         0.3000 
    221 H221       -4.5805  -22.1170  -52.1931 H         1 UNK         0.0600 
    222 H222       -5.9598  -23.2575  -54.6770 H         1 UNK         0.0600 
    223 H223       -6.6737  -23.1699  -53.0662 H         1 UNK         0.0600 
    224 H224       -6.2720  -21.6973  -53.9319 H         1 UNK         0.0600 
    225 H225       -2.0611  -23.4676  -53.6210 H         1 UNK         0.3000 
    226 H226       -1.5647  -21.6834  -55.8468 H         1 UNK         0.0600 
    227 H227       -0.5086  -23.9614  -55.6073 H         1 UNK         0.0600 
    228 H228        0.6676  -22.6770  -55.8463 H         1 UNK         0.0600 
    229 H229        0.4336  -23.3549  -54.2435 H         1 UNK         0.0600 
    230 H230       -1.1232  -21.4703  -52.3624 H         1 UNK         0.3000 
    231 H231        0.4187  -18.9153  -52.6007 H         1 UNK         0.0600 
    232 H232        1.1916  -19.4126  -50.3210 H         1 UNK         0.0600 
    233 H233        1.5524  -20.7901  -51.3464 H         1 UNK         0.0600 
    234 H234        0.1877  -20.8492  -50.2322 H         1 UNK         0.0600 
    235 H235       -2.6306  -19.5209  -52.8322 H         1 UNK         0.3000 
    236 H236       -3.9230  -18.5738  -50.4896 H         1 UNK         0.0600 
    237 H237       -5.1207  -19.8725  -52.2007 H         1 UNK         0.0600 
    238 H238       -5.8993  -18.3137  -52.0387 H         1 UNK         0.0600 
    239 H239       -4.8447  -18.6215  -53.4129 H         1 UNK         0.0600 
    240 H240       -5.0286  -16.6404  -50.0721 H         1 UNK         0.3000 
    241 H241       -3.5090  -14.2836  -50.5519 H         1 UNK         0.0600 
    242 H242       -5.9826  -15.5451  -52.6189 H         1 UNK         0.3800 
    243 H243       -6.3572  -14.0327  -53.4016 H         1 UNK         0.3800 
    244 H244       -5.1183  -13.1650  -49.0648 H         1 UNK         0.0800 
    245 H245       -6.2302  -14.5002  -49.1892 H         1 UNK         0.0800 
    246 H246       -5.8586  -16.8760  -47.8140 H         1 UNK         0.0800 
    247 H247       -6.5831  -15.4965  -47.0172 H         1 UNK         0.0800 
@<TRIPOS>BOND
     1    1    2 1    
     2    1  127 1    
     3    1  128 1    
     4    1  129 1    
     5    2    3 2    
     6    2    4 am   BACKBONE|DICT|INTERRES
     7    4    5 1    
     8    4  130 1    
     9    5    6 1    
    10    5   65 1    
    11    5  131 1    
    12    6    7 1    
    13    6  132 1    
    14    6  133 1    
    15    7    8 1    
    16    8    9 1    
    17    8  134 1    
    18    8  135 1    
    19    9   10 ar   
    20    9   14 ar   
    21   10   11 ar   
    22   10  136 1    
    23   11   12 ar   
    24   11  126 1    
    25   12   13 ar   
    26   12  137 1    
    27   13   14 ar   
    28   13   15 1    
    29   14  138 1    
    30   15   16 1    
    31   15  139 1    
    32   15  140 1    
    33   16   17 1    
    34   17   18 1    
    35   17  141 1    
    36   17  142 1    
    37   18   19 1    
    38   18   67 1    
    39   18  143 1    
    40   19   20 am   BACKBONE|DICT|INTERRES
    41   19  144 1    
    42   20   21 2    
    43   20   22 1    
    44   22   23 1    
    45   22   24 1    
    46   22  145 1    
    47   23  146 1    
    48   23  147 1    
    49   23  148 1    
    50   24   25 am   BACKBONE|DICT|INTERRES
    51   24  149 1    
    52   25   26 2    
    53   25   27 1    
    54   27   28 1    
    55   27   29 1    
    56   27  150 1    
    57   28  151 1    
    58   28  152 1    
    59   28  153 1    
    60   29   30 am   BACKBONE|DICT|INTERRES
    61   29  154 1    
    62   30   31 2    
    63   30   32 1    
    64   32   33 1    
    65   32   34 1    
    66   32  155 1    
    67   33  156 1    
    68   33  157 1    
    69   33  158 1    
    70   34   35 am   BACKBONE|DICT|INTERRES
    71   34  159 1    
    72   35   36 2    
    73   35   37 1    
    74   37   38 1    
    75   37   39 1    
    76   37  160 1    
    77   38  161 1    
    78   38  162 1    
    79   38  163 1    
    80   39   40 am   BACKBONE|DICT|INTERRES
    81   39  164 1    
    82   40   41 2    
    83   40   42 1    
    84   42   43 1    
    85   42   44 1    
    86   42  165 1    
    87   43  166 1    
    88   43  167 1    
    89   43  168 1    
    90   44   45 am   BACKBONE|DICT|INTERRES
    91   44  169 1    
    92   45   46 2    
    93   45   47 1    
    94   47   48 1    
    95   47   49 1    
    96   47  170 1    
    97   48  171 1    
    98   48  172 1    
    99   48  173 1    
   100   49   50 am   BACKBONE|DICT|INTERRES
   101   49  174 1    
   102   50   51 2    
   103   50   52 1    
   104   52   53 1    
   105   52   54 1    
   106   52  175 1    
   107   53  176 1    
   108   53  177 1    
   109   53  178 1    
   110   54   55 am   BACKBONE|DICT|INTERRES
   111   54  179 1    
   112   55   56 2    
   113   55   57 1    
   114   57   58 1    
   115   57   59 1    
   116   57  180 1    
   117   58  181 1    
   118   58  182 1    
   119   58  183 1    
   120   59   60 am   BACKBONE|DICT|INTERRES
   121   59  184 1    
   122   60   61 2    
   123   60   62 1    
   124   62   63 1    
   125   62   64 1    
   126   62  185 1    
   127   63  186 1    
   128   63  187 1    
   129   63  188 1    
   130   64   65 am   BACKBONE|DICT|INTERRES
   131   64  189 1    
   132   65   66 2    
   133   67   68 2    
   134   67   69 am   BACKBONE|DICT|INTERRES
   135   69   70 1    
   136   69  190 1    
   137   70   71 1    
   138   70   72 1    
   139   70  191 1    
   140   71  192 1    
   141   71  193 1    
   142   71  194 1    
   143   72   73 2    
   144   72   74 am   BACKBONE|DICT|INTERRES
   145   74   75 1    
   146   74  195 1    
   147   75   76 1    
   148   75   77 1    
   149   75  196 1    
   150   76  197 1    
   151   76  198 1    
   152   76  199 1    
   153   77   78 2    
   154   77   79 am   BACKBONE|DICT|INTERRES
   155   79   80 1    
   156   79  200 1    
   157   80   81 1    
   158   80   82 1    
   159   80  201 1    
   160   81  202 1    
   161   81  203 1    
   162   81  204 1    
   163   82   83 2    
   164   82   84 am   BACKBONE|DICT|INTERRES
   165   84   85 1    
   166   84  205 1    
   167   85   86 1    
   168   85   87 1    
   169   85  206 1    
   170   86  207 1    
   171   86  208 1    
   172   86  209 1    
   173   87   88 2    
   174   87   89 am   BACKBONE|DICT|INTERRES
   175   89   90 1    
   176   89  210 1    
   177   90   91 1    
   178   90   92 1    
   179   90  211 1    
   180   91  212 1    
   181   91  213 1    
   182   91  214 1    
   183   92   93 2    
   184   92   94 am   BACKBONE|DICT|INTERRES
   185   94   95 1    
   186   94  215 1    
   187   95   96 1    
   188   95   97 1    
   189   95  216 1    
   190   96  217 1    
   191   96  218 1    
   192   96  219 1    
   193   97   98 2    
   194   97   99 am   BACKBONE|DICT|INTERRES
   195   99  100 1    
   196   99  220 1    
   197  100  101 1    
   198  100  102 1    
   199  100  221 1    
   200  101  222 1    
   201  101  223 1    
   202  101  224 1    
   203  102  103 2    
   204  102  104 am   BACKBONE|DICT|INTERRES
   205  104  105 1    
   206  104  225 1    
   207  105  106 1    
   208  105  107 1    
   209  105  226 1    
   210  106  227 1    
   211  106  228 1    
   212  106  229 1    
   213  107  108 2    
   214  107  109 am   BACKBONE|DICT|INTERRES
   215  109  110 1    
   216  109  230 1    
   217  110  111 1    
   218  110  112 1    
   219  110  231 1    
   220  111  232 1    
   221  111  233 1    
   222  111  234 1    
   223  112  113 2    
   224  112  114 am   BACKBONE|DICT|INTERRES
   225  114  115 1    
   226  114  235 1    
   227  115  116 1    
   228  115  117 1    
   229  115  236 1    
   230  116  237 1    
   231  116  238 1    
   232  116  239 1    
   233  117  118 2    
   234  117  119 am   BACKBONE|DICT|INTERRES
   235  119  120 1    
   236  119  240 1    
   237  120  121 1    
   238  120  124 1    
   239  120  241 1    
   240  121  122 am   BACKBONE|DICT|INTERRES
   241  121  123 2    
   242  122  242 1    
   243  122  243 1    
   244  124  125 1    
   245  124  244 1    
   246  124  245 1    
   247  125  126 1    
   248  126  246 1    
   249  126  247 1    
@<TRIPOS>SUBSTRUCTURE
     1 UNK         1 GROUP             0       ****    0 ROOT    
