@<TRIPOS>MOLECULE
3R540
247   249    1
SMALL
USER_CHARGES


@<TRIPOS>ATOM
      1 CA         -1.0565   -8.2610  -52.1471 C.3       0 UNK        -0.1800 
      2 C          -0.5548   -9.6964  -52.0730 C.2       0 UNK         0.5000 
      3 O           0.5371   -9.9902  -52.5613 O.2       0 UNK        -0.5000 
      4 N          -1.3506  -10.5899  -51.4741 N.am      1 UNK        -0.5000 
      5 CA         -1.0106  -11.9958  -51.2369 C.3       1 UNK         0.1400 
      6 C6         -2.2788  -12.8697  -51.0623 C.3       23 UNK        -0.0398 
      7 S7         -3.4131  -12.3381  -49.7272 S.3       23 UNK        -0.2404 
      8 C8         -3.0814  -13.5465  -48.4001 C.3       23 UNK        -0.0205 
      9 C9         -3.2827  -14.9885  -48.8465 C.ar      23 UNK        -0.0193 
     10 C10        -4.5318  -15.4285  -49.2950 C.ar      23 UNK        -0.1150 
     11 C11        -4.7031  -16.7417  -49.7445 C.ar      23 UNK        -0.0193 
     12 C12        -3.6216  -17.6264  -49.7124 C.ar      23 UNK        -0.1150 
     13 C13        -2.3768  -17.2052  -49.2397 C.ar      23 UNK        -0.0193 
     14 C14        -2.2112  -15.8846  -48.8186 C.ar      23 UNK        -0.1150 
     15 C15        -1.2047  -18.1700  -49.1937 C.3       23 UNK        -0.0205 
     16 S16        -0.7975  -18.6706  -47.4990 S.3       23 UNK        -0.2404 
     17 C17        -2.2113  -19.7280  -47.0368 C.3       23 UNK        -0.0398 
     18 CA         -1.7966  -21.2049  -46.8421 C.3       11 UNK         0.1400 
     19 N          -0.6744  -21.3493  -45.9082 N.am      11 UNK        -0.5000 
     20 C           0.0653  -22.4558  -45.7619 C.2       10 UNK         0.5000 
     21 O          -0.1127  -23.4875  -46.4074 O.2       10 UNK        -0.5000 
     22 CA          1.1305  -22.4186  -44.6528 C.3       10 UNK         0.1400 
     23 CB          2.4376  -21.8002  -45.1674 C.3       10 UNK        -0.1800 
     24 N           0.6632  -21.6769  -43.4798 N.am      10 UNK        -0.5000 
     25 C          -0.3162  -22.0957  -42.6665 C.2       9 UNK         0.5000 
     26 O          -0.9045  -23.1655  -42.8300 O.2       9 UNK        -0.5000 
     27 CA         -0.7631  -21.1480  -41.5345 C.3       9 UNK         0.1400 
     28 CB         -1.2164  -21.9045  -40.2689 C.3       9 UNK        -0.1800 
     29 N           0.2105  -20.0999  -41.2132 N.am      9 UNK        -0.5000 
     30 C           1.4226  -20.2364  -40.6534 C.2       8 UNK         0.5000 
     31 O           1.8950  -21.3176  -40.3008 O.2       8 UNK        -0.5000 
     32 CA          2.2667  -18.9559  -40.4670 C.3       8 UNK         0.1400 
     33 CB          3.5374  -19.0192  -41.3298 C.3       8 UNK        -0.1800 
     34 N           1.5418  -17.7222  -40.7842 N.am      8 UNK        -0.5000 
     35 C           0.6187  -17.1470  -40.0010 C.2       7 UNK         0.5000 
     36 O           0.3282  -17.5543  -38.8760 O.2       7 UNK        -0.5000 
     37 CA         -0.1392  -15.9418  -40.5923 C.3       7 UNK         0.1400 
     38 CB          0.6151  -14.6347  -40.3063 C.3       7 UNK        -0.1800 
     39 N          -0.3771  -16.0626  -42.0337 N.am      7 UNK        -0.5000 
     40 C          -1.1377  -17.0045  -42.6110 C.2       6 UNK         0.5000 
     41 O          -1.7616  -17.8582  -41.9815 O.2       6 UNK        -0.5000 
     42 CA         -1.1433  -17.0505  -44.1492 C.3       6 UNK         0.1400 
     43 CB         -2.0926  -16.0016  -44.7458 C.3       6 UNK        -0.1800 
     44 N           0.1982  -16.8830  -44.7047 N.am      6 UNK        -0.5000 
     45 C           1.1930  -17.7688  -44.5554 C.2       5 UNK         0.5000 
     46 O           1.0642  -18.8523  -43.9839 O.2       5 UNK        -0.5000 
     47 CA          2.5714  -17.3554  -45.0967 C.3       5 UNK         0.1400 
     48 CB          2.7196  -17.7308  -46.5789 C.3       5 UNK        -0.1800 
     49 N           2.8103  -15.9221  -44.9211 N.am      5 UNK        -0.5000 
     50 C           3.0605  -15.3410  -43.7388 C.2       4 UNK         0.5000 
     51 O           3.1620  -15.9643  -42.6827 O.2       4 UNK        -0.5000 
     52 CA          3.1777  -13.8047  -43.7265 C.3       4 UNK         0.1400 
     53 CB          4.6030  -13.3684  -44.0963 C.3       4 UNK        -0.1800 
     54 N           2.2235  -13.1555  -44.6270 N.am      4 UNK        -0.5000 
     55 C           0.8935  -13.1686  -44.4598 C.2       3 UNK         0.5000 
     56 O           0.3359  -13.6823  -43.4913 O.2       3 UNK        -0.5000 
     57 CA          0.0391  -12.5535  -45.5863 C.3       3 UNK         0.1400 
     58 CB         -0.2336  -11.0683  -45.3104 C.3       3 UNK        -0.1800 
     59 N           0.6231  -12.6956  -46.9231 N.am      3 UNK        -0.5000 
     60 C           0.9449  -13.8535  -47.5108 C.2       2 UNK         0.5000 
     61 O           0.7881  -14.9476  -46.9677 O.2       2 UNK        -0.5000 
     62 CA          1.5369  -13.7647  -48.9334 C.3       2 UNK         0.1400 
     63 CB          2.1801  -15.0910  -49.3767 C.3       2 UNK        -0.1800 
     64 N           0.5452  -13.3739  -49.9370 N.am      2 UNK        -0.5000 
     65 C          -0.0069  -12.1601  -50.0714 C.2       1 UNK         0.5000 
     66 O           0.2528  -11.2095  -49.3270 O.2       1 UNK        -0.5000 
     67 C          -3.0132  -22.0605  -46.4302 C.2       11 UNK         0.5000 
     68 O          -3.8002  -22.4368  -47.2968 O.2       11 UNK        -0.5000 
     69 N          -3.1394  -22.3586  -45.1281 N.am      12 UNK        -0.5000 
     70 CA         -4.1536  -23.2570  -44.5780 C.3       12 UNK         0.1400 
     71 CB         -4.4179  -22.8984  -43.1075 C.3       12 UNK        -0.1800 
     72 C          -3.7363  -24.7317  -44.7191 C.2       12 UNK         0.5000 
     73 O          -4.5830  -25.5746  -45.0134 O.2       12 UNK        -0.5000 
     74 N          -2.4406  -25.0208  -44.5307 N.am      13 UNK        -0.5000 
     75 CA         -1.8543  -26.3499  -44.7119 C.3       13 UNK         0.1400 
     76 CB         -0.4189  -26.3558  -44.1644 C.3       13 UNK        -0.1800 
     77 C          -1.8829  -26.8098  -46.1817 C.2       13 UNK         0.5000 
     78 O          -2.2407  -27.9555  -46.4554 O.2       13 UNK        -0.5000 
     79 N          -1.5424  -25.8959  -47.0988 N.am      14 UNK        -0.5000 
     80 CA         -1.5312  -26.1065  -48.5464 C.3       14 UNK         0.1400 
     81 CB         -0.2394  -25.5015  -49.1226 C.3       14 UNK        -0.1800 
     82 C          -2.7901  -25.5242  -49.2199 C.2       14 UNK         0.5000 
     83 O          -2.7135  -25.0717  -50.3650 O.2       14 UNK        -0.5000 
     84 N          -3.9324  -25.5466  -48.5155 N.am      15 UNK        -0.5000 
     85 CA         -5.2172  -24.9767  -48.9439 C.3       15 UNK         0.1400 
     86 CB         -6.2420  -25.0984  -47.8073 C.3       15 UNK        -0.1800 
     87 C          -5.7956  -25.5662  -50.2435 C.2       15 UNK         0.5000 
     88 O          -6.5687  -24.8842  -50.9156 O.2       15 UNK        -0.5000 
     89 N          -5.3861  -26.7914  -50.6008 N.am      16 UNK        -0.5000 
     90 CA         -5.7341  -27.4586  -51.8585 C.3       16 UNK         0.1400 
     91 CB         -5.2104  -28.9022  -51.8198 C.3       16 UNK        -0.1800 
     92 C          -5.2049  -26.7262  -53.1097 C.2       16 UNK         0.5000 
     93 O          -5.8348  -26.8049  -54.1651 O.2       16 UNK        -0.5000 
     94 N          -4.0758  -26.0199  -52.9629 N.am      17 UNK        -0.5000 
     95 CA         -3.4610  -25.1863  -53.9983 C.3       17 UNK         0.1400 
     96 CB         -2.0127  -25.6645  -54.2015 C.3       17 UNK        -0.1800 
     97 C          -3.4722  -23.6925  -53.6206 C.2       17 UNK         0.5000 
     98 O          -3.0018  -22.8744  -54.4106 O.2       17 UNK        -0.5000 
     99 N          -3.9297  -23.3671  -52.4009 N.am      18 UNK        -0.5000 
    100 CA        -3.8132  -22.0732  -51.7147 C.3       18 UNK         0.1400 
    101 CB        -4.7477  -21.0307  -52.3579 C.3       18 UNK        -0.1800 
    102 C         -2.3458  -21.5986  -51.6260 C.2       18 UNK         0.5000 
    103 O         -2.0567  -20.4252  -51.8639 O.2       18 UNK        -0.5000 
    104 N         -1.4395  -22.5587  -51.3760 N.am      19 UNK        -0.5000 
    105 CA         0.0269  -22.4495  -51.4206 C.3       19 UNK         0.1400 
    106 CB         0.5481  -21.6365  -50.2185 C.3       19 UNK        -0.1800 
    107 C          0.5916  -21.9320  -52.7664 C.2       19 UNK         0.5000 
    108 O          1.7100  -21.4166  -52.7966 O.2       19 UNK        -0.5000 
    109 N         -0.1930  -22.0645  -53.8490 N.am      20 UNK        -0.5000 
    110 CA         0.0324  -21.5114  -55.1890 C.3       20 UNK         0.1400 
    111 CB         1.2621  -22.1600  -55.8586 C.3       20 UNK        -0.1800 
    112 C          0.0704  -19.9655  -55.2096 C.2       20 UNK         0.5000 
    113 O          0.7211  -19.3810  -56.0783 O.2       20 UNK        -0.5000 
    114 N         -0.6256  -19.3337  -54.2556 N.am      21 UNK        -0.5000 
    115 CA        -0.7099  -17.8894  -54.0739 C.3       21 UNK         0.1400 
    116 CB         0.0139  -17.5183  -52.7648 C.3       21 UNK        -0.1800 
    117 C         -2.1874  -17.4544  -54.1259 C.2       21 UNK         0.5000 
    118 O         -2.9121  -17.8910  -55.0225 O.2       21 UNK        -0.5000 
    119 N         -2.6041  -16.5863  -53.1932 N.am      22 UNK        -0.5000 
    120 CA        -3.9432  -15.9728  -53.1136 C.3       22 UNK         0.1400 
    121 C         -4.2369  -14.9127  -54.2227 C.2       22 UNK         0.5000 
    122 N         -3.2308  -14.3837  -54.9097 N.am      22 UNK        -0.7600 
    123 O         -5.3825  -14.5372  -54.4540 O.2       22 UNK        -0.5000 
    124 C124       -5.0750  -17.0291  -52.9408 C.3       23 UNK        -0.0398 
    125 S125       -6.4474  -16.4409  -51.8868 S.3       23 UNK        -0.2404 
    126 C126       -6.0517  -17.2009  -50.2784 C.3       23 UNK        -0.0205 
    127 H127       -2.0390   -8.1507  -51.6874 H         1 UNK         0.0600 
    128 H128       -0.3639   -7.5949  -51.6324 H         1 UNK         0.0600 
    129 H129       -1.1298   -7.9417  -53.1867 H         1 UNK         0.0600 
    130 H130       -2.2202  -10.2845  -51.0605 H         1 UNK         0.3000 
    131 H131       -0.4992  -12.3603  -52.1307 H         1 UNK         0.0600 
    132 H132       -2.0108  -13.9185  -50.9402 H         1 UNK         0.0800 
    133 H133       -2.8518  -12.8384  -51.9900 H         1 UNK         0.0800 
    134 H134       -3.7479  -13.3411  -47.5616 H         1 UNK         0.0800 
    135 H135       -2.0683  -13.3925  -48.0276 H         1 UNK         0.0800 
    136 H136       -5.3644  -14.7395  -49.3235 H         1 UNK         0.1150 
    137 H137       -3.7456  -18.6429  -50.0580 H         1 UNK         0.1150 
    138 H138       -1.2447  -15.5632  -48.4613 H         1 UNK         0.1150 
    139 H139       -1.4086  -19.0561  -49.7919 H         1 UNK         0.0800 
    140 H140       -0.3261  -17.6920  -49.6266 H         1 UNK         0.0800 
    141 H141       -2.9880  -19.6534  -47.7989 H         1 UNK         0.0800 
    142 H142       -2.6478  -19.3248  -46.1221 H         1 UNK         0.0800 
    143 H143       -1.4701  -21.5839  -47.8112 H         1 UNK         0.0600 
    144 H144       -0.4350  -20.5354  -45.3593 H         1 UNK         0.3000 
    145 H145        1.3365  -23.4467  -44.3484 H         1 UNK         0.0600 
    146 H146        3.2069  -21.8047  -44.3950 H         1 UNK         0.0600 
    147 H147        2.8254  -22.3608  -46.0188 H         1 UNK         0.0600 
    148 H148        2.2944  -20.7701  -45.4907 H         1 UNK         0.0600 
    149 H149        1.0333  -20.7398  -43.3529 H         1 UNK         0.3000 
    150 H150       -1.6369  -20.6245  -41.9241 H         1 UNK         0.0600 
    151 H151       -2.0648  -22.5550  -40.4837 H         1 UNK         0.0600 
    152 H152       -1.5308  -21.2125  -39.4876 H         1 UNK         0.0600 
    153 H153       -0.4229  -22.5325  -39.8637 H         1 UNK         0.0600 
    154 H154       -0.0761  -19.1655  -41.4778 H         1 UNK         0.3000 
    155 H155        2.5709  -18.9183  -39.4191 H         1 UNK         0.0600 
    156 H156        3.2993  -19.0845  -42.3912 H         1 UNK         0.0600 
    157 H157        4.1416  -19.8910  -41.0762 H         1 UNK         0.0600 
    158 H158        4.1619  -18.1385  -41.1790 H         1 UNK         0.0600 
    159 H159        1.7676  -17.2825  -41.6687 H         1 UNK         0.3000 
    160 H160       -1.1115  -15.8887  -40.0984 H         1 UNK         0.0600 
    161 H161        0.0480  -13.7694  -40.6497 H         1 UNK         0.0600 
    162 H162        1.5869  -14.6149  -40.8002 H         1 UNK         0.0600 
    163 H163        0.7867  -14.5078  -39.2367 H         1 UNK         0.0600 
    164 H164        0.0552  -15.3565  -42.6239 H         1 UNK         0.3000 
    165 H165       -1.5036  -18.0365  -44.4465 H         1 UNK         0.0600 
    166 H166       -2.0918  -16.0444  -45.8352 H         1 UNK         0.0600 
    167 H167       -3.1171  -16.1728  -44.4139 H         1 UNK         0.0600 
    168 H168       -1.8180  -14.9905  -44.4487 H         1 UNK         0.0600 
    169 H169        0.3736  -16.0506  -45.2562 H         1 UNK         0.3000 
    170 H170        3.3305  -17.9029  -44.5346 H         1 UNK         0.0600 
    171 H171        3.6996  -17.4480  -46.9630 H         1 UNK         0.0600 
    172 H172        2.6117  -18.8054  -46.7237 H         1 UNK         0.0600 
    173 H173        1.9639  -17.2488  -47.1982 H         1 UNK         0.0600 
    174 H174        2.6516  -15.3386  -45.7304 H         1 UNK         0.3000 
    175 H175        2.9697  -13.4641  -42.7099 H         1 UNK         0.0600 
    176 H176        4.7181  -12.2874  -44.0149 H         1 UNK         0.0600 
    177 H177        5.3354  -13.8233  -43.4280 H         1 UNK         0.0600 
    178 H178        4.8630  -13.6588  -45.1150 H         1 UNK         0.0600 
    179 H179        2.5994  -12.7073  -45.4494 H         1 UNK         0.3000 
    180 H180       -0.9178  -13.0781  -45.5937 H         1 UNK         0.0600 
    181 H181        0.6852  -10.4810  -45.3269 H         1 UNK         0.0600 
    182 H182       -0.6955  -10.9306  -44.3317 H         1 UNK         0.0600 
    183 H183       -0.9138  -10.6487  -46.0521 H         1 UNK         0.0600 
    184 H184        0.7019  -11.8519  -47.4822 H         1 UNK         0.3000 
    185 H185        2.3224  -13.0064  -48.9128 H         1 UNK         0.0600 
    186 H186        1.4477  -15.8973  -49.4339 H         1 UNK         0.0600 
    187 H187        2.6499  -14.9952  -50.3558 H         1 UNK         0.0600 
    188 H188        2.9567  -15.4014  -48.6767 H         1 UNK         0.0600 
    189 H189        0.2800  -14.1011  -50.5836 H         1 UNK         0.3000 
    190 H190       -2.4303  -22.0330  -44.4892 H         1 UNK         0.3000 
    191 H191       -5.0869  -23.1160  -45.1268 H         1 UNK         0.0600 
    192 H192       -4.7317  -21.8596  -43.0047 H         1 UNK         0.0600 
    193 H193       -3.5351  -23.0455  -42.4861 H         1 UNK         0.0600 
    194 H194       -5.2132  -23.5203  -42.6946 H         1 UNK         0.0600 
    195 H195       -1.8163  -24.2903  -44.2060 H         1 UNK         0.3000 
    196 H196       -2.4427  -27.0599  -44.1271 H         1 UNK         0.0600 
    197 H197        0.0249  -27.3488  -44.2450 H         1 UNK         0.0600 
    198 H198       -0.3973  -26.0734  -43.1116 H         1 UNK         0.0600 
    199 H199        0.2241  -25.6641  -44.7088 H         1 UNK         0.0600 
    200 H200       -1.2248  -24.9827  -46.7818 H         1 UNK         0.3000 
    201 H201       -1.5217  -27.1750  -48.7692 H         1 UNK         0.0600 
    202 H202        0.6419  -25.9159  -48.6330 H         1 UNK         0.0600 
    203 H203       -0.2143  -24.4199  -48.9926 H         1 UNK         0.0600 
    204 H204       -0.1452  -25.7114  -50.1887 H         1 UNK         0.0600 
    205 H205       -3.9051  -25.9295  -47.5809 H         1 UNK         0.3000 
    206 H206       -5.0541  -23.9149  -49.1338 H         1 UNK         0.0600 
    207 H207       -5.9627  -24.4678  -46.9651 H         1 UNK         0.0600 
    208 H208       -7.2325  -24.7727  -48.1281 H         1 UNK         0.0600 
    209 H209       -6.3312  -26.1250  -47.4505 H         1 UNK         0.0600 
    210 H210       -4.7574  -27.2833  -49.9831 H         1 UNK         0.3000 
    211 H211       -6.8232  -27.4899  -51.9311 H         1 UNK         0.0600 
    212 H212       -4.1244  -28.9341  -51.7226 H         1 UNK         0.0600 
    213 H213       -5.4741  -29.4380  -52.7327 H         1 UNK         0.0600 
    214 H214       -5.6396  -29.4559  -50.9845 H         1 UNK         0.0600 
    215 H215       -3.6200  -26.0126  -52.0576 H         1 UNK         0.3000 
    216 H216       -3.9939  -25.2819  -54.9462 H         1 UNK         0.0600 
    217 H217       -1.5133  -25.0931  -54.9852 H         1 UNK         0.0600 
    218 H218       -1.9836  -26.7129  -54.4985 H         1 UNK         0.0600 
    219 H219       -1.4226  -25.5583  -53.2899 H         1 UNK         0.0600 
    220 H220       -4.2769  -24.1232  -51.8294 H         1 UNK         0.3000 
    221 H221       -4.1463  -22.2325  -50.6885 H         1 UNK         0.0600 
    222 H222       -4.4125  -20.7433  -53.3553 H         1 UNK         0.0600 
    223 H223       -5.7657  -21.4113  -52.4413 H         1 UNK         0.0600 
    224 H224       -4.7897  -20.1279  -51.7501 H         1 UNK         0.0600 
    225 H225       -1.8004  -23.4886  -51.1828 H         1 UNK         0.3000 
    226 H226        0.4066  -23.4664  -51.3178 H         1 UNK         0.0600 
    227 H227        0.1856  -22.0441  -49.2769 H         1 UNK         0.0600 
    228 H228        1.6373  -21.6575  -50.1711 H         1 UNK         0.0600 
    229 H229        0.2471  -20.5917  -50.2778 H         1 UNK         0.0600 
    230 H230       -1.1123  -22.4728  -53.7231 H         1 UNK         0.3000 
    231 H231       -0.8418  -21.7920  -55.7777 H         1 UNK         0.0600 
    232 H232        1.2014  -23.2478  -55.8241 H         1 UNK         0.0600 
    233 H233        2.1933  -21.8593  -55.3780 H         1 UNK         0.0600 
    234 H234        1.3311  -21.8738  -56.9086 H         1 UNK         0.0600 
    235 H235       -1.1542  -19.8826  -53.5840 H         1 UNK         0.3000 
    236 H236       -0.2109  -17.3701  -54.8941 H         1 UNK         0.0600 
    237 H237        0.0378  -16.4403  -52.6029 H         1 UNK         0.0600 
    238 H238       -0.4676  -17.9858  -51.9077 H         1 UNK         0.0600 
    239 H239        1.0492  -17.8597  -52.7834 H         1 UNK         0.0600 
    240 H240       -1.9487  -16.2997  -52.4822 H         1 UNK         0.3000 
    241 H241       -3.9021  -15.3867  -52.1956 H         1 UNK         0.0600 
    242 H242       -2.2815  -14.6754  -54.7467 H         1 UNK         0.3800 
    243 H243       -3.4278  -13.6960  -55.6199 H         1 UNK         0.3800 
    244 H244       -5.4739  -17.3362  -53.9089 H         1 UNK         0.0800 
    245 H245       -4.6743  -17.9378  -52.4934 H         1 UNK         0.0800 
    246 H246       -6.8296  -16.9356  -49.5611 H         1 UNK         0.0800 
    247 H247       -6.0838  -18.2871  -50.3757 H         1 UNK         0.0800 
@<TRIPOS>BOND
     1    1    2 1    
     2    1  127 1    
     3    1  128 1    
     4    1  129 1    
     5    2    3 2    
     6    2    4 am   BACKBONE|DICT|INTERRES
     7    4    5 1    
     8    4  130 1    
     9    5    6 1    
    10    5   65 1    
    11    5  131 1    
    12    6    7 1    
    13    6  132 1    
    14    6  133 1    
    15    7    8 1    
    16    8    9 1    
    17    8  134 1    
    18    8  135 1    
    19    9   10 ar   
    20    9   14 ar   
    21   10   11 ar   
    22   10  136 1    
    23   11   12 ar   
    24   11  126 1    
    25   12   13 ar   
    26   12  137 1    
    27   13   14 ar   
    28   13   15 1    
    29   14  138 1    
    30   15   16 1    
    31   15  139 1    
    32   15  140 1    
    33   16   17 1    
    34   17   18 1    
    35   17  141 1    
    36   17  142 1    
    37   18   19 1    
    38   18   67 1    
    39   18  143 1    
    40   19   20 am   BACKBONE|DICT|INTERRES
    41   19  144 1    
    42   20   21 2    
    43   20   22 1    
    44   22   23 1    
    45   22   24 1    
    46   22  145 1    
    47   23  146 1    
    48   23  147 1    
    49   23  148 1    
    50   24   25 am   BACKBONE|DICT|INTERRES
    51   24  149 1    
    52   25   26 2    
    53   25   27 1    
    54   27   28 1    
    55   27   29 1    
    56   27  150 1    
    57   28  151 1    
    58   28  152 1    
    59   28  153 1    
    60   29   30 am   BACKBONE|DICT|INTERRES
    61   29  154 1    
    62   30   31 2    
    63   30   32 1    
    64   32   33 1    
    65   32   34 1    
    66   32  155 1    
    67   33  156 1    
    68   33  157 1    
    69   33  158 1    
    70   34   35 am   BACKBONE|DICT|INTERRES
    71   34  159 1    
    72   35   36 2    
    73   35   37 1    
    74   37   38 1    
    75   37   39 1    
    76   37  160 1    
    77   38  161 1    
    78   38  162 1    
    79   38  163 1    
    80   39   40 am   BACKBONE|DICT|INTERRES
    81   39  164 1    
    82   40   41 2    
    83   40   42 1    
    84   42   43 1    
    85   42   44 1    
    86   42  165 1    
    87   43  166 1    
    88   43  167 1    
    89   43  168 1    
    90   44   45 am   BACKBONE|DICT|INTERRES
    91   44  169 1    
    92   45   46 2    
    93   45   47 1    
    94   47   48 1    
    95   47   49 1    
    96   47  170 1    
    97   48  171 1    
    98   48  172 1    
    99   48  173 1    
   100   49   50 am   BACKBONE|DICT|INTERRES
   101   49  174 1    
   102   50   51 2    
   103   50   52 1    
   104   52   53 1    
   105   52   54 1    
   106   52  175 1    
   107   53  176 1    
   108   53  177 1    
   109   53  178 1    
   110   54   55 am   BACKBONE|DICT|INTERRES
   111   54  179 1    
   112   55   56 2    
   113   55   57 1    
   114   57   58 1    
   115   57   59 1    
   116   57  180 1    
   117   58  181 1    
   118   58  182 1    
   119   58  183 1    
   120   59   60 am   BACKBONE|DICT|INTERRES
   121   59  184 1    
   122   60   61 2    
   123   60   62 1    
   124   62   63 1    
   125   62   64 1    
   126   62  185 1    
   127   63  186 1    
   128   63  187 1    
   129   63  188 1    
   130   64   65 am   BACKBONE|DICT|INTERRES
   131   64  189 1    
   132   65   66 2    
   133   67   68 2    
   134   67   69 am   BACKBONE|DICT|INTERRES
   135   69   70 1    
   136   69  190 1    
   137   70   71 1    
   138   70   72 1    
   139   70  191 1    
   140   71  192 1    
   141   71  193 1    
   142   71  194 1    
   143   72   73 2    
   144   72   74 am   BACKBONE|DICT|INTERRES
   145   74   75 1    
   146   74  195 1    
   147   75   76 1    
   148   75   77 1    
   149   75  196 1    
   150   76  197 1    
   151   76  198 1    
   152   76  199 1    
   153   77   78 2    
   154   77   79 am   BACKBONE|DICT|INTERRES
   155   79   80 1    
   156   79  200 1    
   157   80   81 1    
   158   80   82 1    
   159   80  201 1    
   160   81  202 1    
   161   81  203 1    
   162   81  204 1    
   163   82   83 2    
   164   82   84 am   BACKBONE|DICT|INTERRES
   165   84   85 1    
   166   84  205 1    
   167   85   86 1    
   168   85   87 1    
   169   85  206 1    
   170   86  207 1    
   171   86  208 1    
   172   86  209 1    
   173   87   88 2    
   174   87   89 am   BACKBONE|DICT|INTERRES
   175   89   90 1    
   176   89  210 1    
   177   90   91 1    
   178   90   92 1    
   179   90  211 1    
   180   91  212 1    
   181   91  213 1    
   182   91  214 1    
   183   92   93 2    
   184   92   94 am   BACKBONE|DICT|INTERRES
   185   94   95 1    
   186   94  215 1    
   187   95   96 1    
   188   95   97 1    
   189   95  216 1    
   190   96  217 1    
   191   96  218 1    
   192   96  219 1    
   193   97   98 2    
   194   97   99 am   BACKBONE|DICT|INTERRES
   195   99  100 1    
   196   99  220 1    
   197  100  101 1    
   198  100  102 1    
   199  100  221 1    
   200  101  222 1    
   201  101  223 1    
   202  101  224 1    
   203  102  103 2    
   204  102  104 am   BACKBONE|DICT|INTERRES
   205  104  105 1    
   206  104  225 1    
   207  105  106 1    
   208  105  107 1    
   209  105  226 1    
   210  106  227 1    
   211  106  228 1    
   212  106  229 1    
   213  107  108 2    
   214  107  109 am   BACKBONE|DICT|INTERRES
   215  109  110 1    
   216  109  230 1    
   217  110  111 1    
   218  110  112 1    
   219  110  231 1    
   220  111  232 1    
   221  111  233 1    
   222  111  234 1    
   223  112  113 2    
   224  112  114 am   BACKBONE|DICT|INTERRES
   225  114  115 1    
   226  114  235 1    
   227  115  116 1    
   228  115  117 1    
   229  115  236 1    
   230  116  237 1    
   231  116  238 1    
   232  116  239 1    
   233  117  118 2    
   234  117  119 am   BACKBONE|DICT|INTERRES
   235  119  120 1    
   236  119  240 1    
   237  120  121 1    
   238  120  124 1    
   239  120  241 1    
   240  121  122 am   BACKBONE|DICT|INTERRES
   241  121  123 2    
   242  122  242 1    
   243  122  243 1    
   244  124  125 1    
   245  124  244 1    
   246  124  245 1    
   247  125  126 1    
   248  126  246 1    
   249  126  247 1    
@<TRIPOS>SUBSTRUCTURE
     1 UNK         1 GROUP             0       ****    0 ROOT    
