@<TRIPOS>MOLECULE
3R540
247   249    1
SMALL
USER_CHARGES


@<TRIPOS>ATOM
      1 CA          0.0263  -12.1444  -43.7570 C.3       0 UNK        -0.1800 
      2 C          -0.2261  -12.3032  -45.2488 C.2       0 UNK         0.5000 
      3 O          -0.8633  -11.4442  -45.8587 O.2       0 UNK        -0.5000 
      4 N           0.2746  -13.3950  -45.8317 N.am      1 UNK        -0.5000 
      5 CA          0.2480  -13.6777  -47.2659 C.3       1 UNK         0.1400 
      6 C6          0.0300  -15.1877  -47.5369 C.3       23 UNK        -0.0398 
      7 S7         -1.5946  -15.7956  -46.9689 S.3       23 UNK        -0.2404 
      8 C8         -2.4121  -16.2686  -48.5315 C.3       23 UNK        -0.0205 
      9 C9         -1.5954  -17.2471  -49.3696 C.ar      23 UNK        -0.0193 
     10 C10        -1.3254  -16.9611  -50.7111 C.ar      23 UNK        -0.1150 
     11 C11        -0.5458  -17.8280  -51.4817 C.ar      23 UNK        -0.0193 
     12 C12        -0.0331  -18.9891  -50.8962 C.ar      23 UNK        -0.1150 
     13 C13        -0.3042  -19.2984  -49.5612 C.ar      23 UNK        -0.0193 
     14 C14        -1.0948  -18.4247  -48.8067 C.ar      23 UNK        -0.1150 
     15 C15         0.2463  -20.5863  -48.9611 C.3       23 UNK        -0.0205 
     16 S16         1.4521  -20.2913  -47.6290 S.3       23 UNK        -0.2404 
     17 C17         0.3835  -20.3229  -46.1506 C.3       23 UNK        -0.0398 
     18 CA          0.6078  -21.5692  -45.2555 C.3       11 UNK         0.1400 
     19 N           0.4378  -21.2266  -43.8390 N.am      11 UNK        -0.5000 
     20 C           0.8672  -21.9581  -42.8015 C.2       10 UNK         0.5000 
     21 O           1.4539  -23.0340  -42.9180 O.2       10 UNK        -0.5000 
     22 CA          0.5605  -21.4019  -41.4022 C.3       10 UNK         0.1400 
     23 CB          1.6256  -20.3794  -40.9901 C.3       10 UNK        -0.1800 
     24 N          -0.7541  -20.7617  -41.3620 N.am      10 UNK        -0.5000 
     25 C          -1.8999  -21.4031  -41.0959 C.2       9 UNK         0.5000 
     26 O          -1.9636  -22.5971  -40.8029 O.2       9 UNK        -0.5000 
     27 CA         -3.1973  -20.5766  -41.1942 C.3       9 UNK         0.1400 
     28 CB         -3.4803  -19.8558  -39.8676 C.3       9 UNK        -0.1800 
     29 N          -3.1636  -19.5929  -42.2772 N.am      9 UNK        -0.5000 
     30 C          -3.1243  -19.9005  -43.5807 C.2       8 UNK         0.5000 
     31 O          -3.1834  -21.0494  -44.0118 O.2       8 UNK        -0.5000 
     32 CA         -2.9545  -18.7406  -44.5772 C.3       8 UNK         0.1400 
     33 CB         -4.3054  -18.3495  -45.1931 C.3       8 UNK        -0.1800 
     34 N          -2.3148  -17.5438  -44.0289 N.am      8 UNK        -0.5000 
     35 C          -1.0851  -17.4712  -43.5014 C.2       7 UNK         0.5000 
     36 O          -0.3625  -18.4544  -43.3141 O.2       7 UNK        -0.5000 
     37 CA         -0.5975  -16.0476  -43.1728 C.3       7 UNK         0.1400 
     38 CB         -1.6524  -15.2216  -42.4027 C.3       7 UNK        -0.1800 
     39 N           0.7023  -16.0017  -42.5002 N.am      7 UNK        -0.5000 
     40 C           0.9985  -16.3431  -41.2364 C.2       6 UNK         0.5000 
     41 O           0.1890  -16.8419  -40.4533 O.2       6 UNK        -0.5000 
     42 CA          2.4366  -16.0502  -40.7433 C.3       6 UNK         0.1400 
     43 CB          3.1672  -17.3336  -40.3214 C.3       6 UNK        -0.1800 
     44 N           3.2645  -15.3535  -41.7298 N.am      6 UNK        -0.5000 
     45 C           3.1967  -14.0485  -42.0275 C.2       5 UNK         0.5000 
     46 O           2.4958  -13.2440  -41.4143 O.2       5 UNK        -0.5000 
     47 CA          4.0244  -13.5706  -43.2403 C.3       5 UNK         0.1400 
     48 CB          5.2962  -12.8467  -42.7732 C.3       5 UNK        -0.1800 
     49 N           4.4005  -14.6512  -44.1612 N.am      5 UNK        -0.5000 
     50 C           3.5373  -15.3630  -44.8973 C.2       4 UNK         0.5000 
     51 O           2.3170  -15.1834  -44.8829 O.2       4 UNK        -0.5000 
     52 CA          4.1218  -16.5077  -45.7310 C.3       4 UNK         0.1400 
     53 CB          3.5272  -17.8556  -45.2765 C.3       4 UNK        -0.1800 
     54 N           3.8395  -16.2780  -47.1447 N.am      4 UNK        -0.5000 
     55 C           4.4921  -16.8710  -48.1541 C.2       3 UNK         0.5000 
     56 O           5.4497  -17.6283  -47.9897 O.2       3 UNK        -0.5000 
     57 CA          3.9993  -16.6008  -49.5892 C.3       3 UNK         0.1400 
     58 CB          3.0833  -17.7427  -50.0514 C.3       3 UNK        -0.1800 
     59 N           3.2724  -15.3408  -49.7334 N.am      3 UNK        -0.5000 
     60 C           3.8411  -14.1337  -49.8593 C.2       2 UNK         0.5000 
     61 O           5.0577  -13.9456  -49.8757 O.2       2 UNK        -0.5000 
     62 CA          2.8769  -12.9329  -49.9711 C.3       2 UNK         0.1400 
     63 CB          2.5328  -12.6535  -51.4421 C.3       2 UNK        -0.1800 
     64 N           1.6353  -13.1353  -49.2157 N.am      2 UNK        -0.5000 
     65 C           1.5888  -13.2293  -47.8803 C.2       1 UNK         0.5000 
     66 O           2.5739  -13.0443  -47.1610 O.2       1 UNK        -0.5000 
     67 C          -0.2722  -22.7616  -45.7100 C.2       11 UNK         0.5000 
     68 O          -0.0889  -23.2526  -46.8232 O.2       11 UNK        -0.5000 
     69 N          -1.2084  -23.2067  -44.8561 N.am      12 UNK        -0.5000 
     70 CA         -2.2213  -24.2455  -45.0833 C.3       12 UNK         0.1400 
     71 CB         -2.9487  -24.5252  -43.7591 C.3       12 UNK        -0.1800 
     72 C          -1.7061  -25.5664  -45.6860 C.2       12 UNK         0.5000 
     73 O          -2.4422  -26.2163  -46.4292 O.2       12 UNK        -0.5000 
     74 N          -0.4440  -25.9159  -45.4009 N.am      13 UNK        -0.5000 
     75 CA          0.2705  -27.0652  -45.9628 C.3       13 UNK         0.1400 
     76 CB          1.6537  -27.1571  -45.3009 C.3       13 UNK        -0.1800 
     77 C           0.4103  -27.0374  -47.5010 C.2       13 UNK         0.5000 
     78 O           0.5629  -28.0979  -48.1082 O.2       13 UNK        -0.5000 
     79 N           0.3356  -25.8435  -48.1081 N.am      14 UNK        -0.5000 
     80 CA          0.3429  -25.6441  -49.5581 C.3       14 UNK         0.1400 
     81 CB          0.7472  -24.1920  -49.8550 C.3       14 UNK        -0.1800 
     82 C          -1.0117  -25.9562  -50.2268 C.2       14 UNK         0.5000 
     83 O          -1.0670  -26.0041  -51.4557 O.2       14 UNK        -0.5000 
     84 N          -2.0832  -26.1125  -49.4314 N.am      15 UNK        -0.5000 
     85 CA         -3.4836  -26.3846  -49.7957 C.3       15 UNK         0.1400 
     86 CB         -3.6155  -27.7081  -50.5723 C.3       15 UNK        -0.1800 
     87 C          -4.2057  -25.2340  -50.5302 C.2       15 UNK         0.5000 
     88 O          -5.3961  -25.0251  -50.2987 O.2       15 UNK        -0.5000 
     89 N          -3.4804  -24.4836  -51.3669 N.am      16 UNK        -0.5000 
     90 CA         -3.9486  -23.3182  -52.1224 C.3       16 UNK         0.1400 
     91 CB         -3.0368  -23.1425  -53.3483 C.3       16 UNK        -0.1800 
     92 C          -4.0062  -22.0178  -51.2899 C.2       16 UNK         0.5000 
     93 O          -4.2568  -20.9524  -51.8557 O.2       16 UNK        -0.5000 
     94 N          -3.7525  -22.1156  -49.9775 N.am      17 UNK        -0.5000 
     95 CA         -3.7016  -21.0213  -49.0108 C.3       17 UNK         0.1400 
     96 CB         -3.3886  -21.6018  -47.6237 C.3       17 UNK        -0.1800 
     97 C          -4.9875  -20.1747  -48.9882 C.2       17 UNK         0.5000 
     98 O          -6.0160  -20.6384  -48.4933 O.2       17 UNK        -0.5000 
     99 N          -4.8951  -18.9655  -49.5603 N.am      18 UNK        -0.5000 
    100 CA        -5.9704  -17.9841  -49.7545 C.3       18 UNK         0.1400 
    101 CB        -6.5030  -17.4701  -48.3998 C.3       18 UNK        -0.1800 
    102 C         -7.1044  -18.4581  -50.6934 C.2       18 UNK         0.5000 
    103 O         -8.1829  -17.8610  -50.6913 O.2       18 UNK        -0.5000 
    104 N         -6.8478  -19.5002  -51.4944 N.am      19 UNK        -0.5000 
    105 CA        -7.7545  -19.9994  -52.5246 C.3       19 UNK         0.1400 
    106 CB        -7.4952  -21.5023  -52.7220 C.3       19 UNK        -0.1800 
    107 C         -7.5235  -19.2451  -53.8434 C.2       19 UNK         0.5000 
    108 O         -6.4859  -18.5996  -54.0162 O.2       19 UNK        -0.5000 
    109 N         -8.4547  -19.4027  -54.7935 N.am      20 UNK        -0.5000 
    110 CA        -8.3732  -18.8490  -56.1534 C.3       20 UNK         0.1400 
    111 CB        -9.6851  -19.1522  -56.8933 C.3       20 UNK        -0.1800 
    112 C         -7.1622  -19.3541  -56.9704 C.2       20 UNK         0.5000 
    113 O         -6.7646  -18.7046  -57.9378 O.2       20 UNK        -0.5000 
    114 N         -6.5854  -20.4867  -56.5466 N.am      21 UNK        -0.5000 
    115 CA        -5.3473  -21.0651  -57.0628 C.3       21 UNK         0.1400 
    116 CB        -5.2360  -22.5090  -56.5466 C.3       21 UNK        -0.1800 
    117 C         -4.0768  -20.2609  -56.7078 C.2       21 UNK         0.5000 
    118 O         -3.0492  -20.4815  -57.3504 O.2       21 UNK        -0.5000 
    119 N         -4.1489  -19.3613  -55.7148 N.am      22 UNK        -0.5000 
    120 CA        -3.0316  -18.5006  -55.2878 C.3       22 UNK         0.1400 
    121 C         -3.4239  -17.0071  -55.1130 C.2       22 UNK         0.5000 
    122 N         -4.6643  -16.6743  -54.7811 N.am      22 UNK        -0.7600 
    123 O         -2.5928  -16.1249  -55.3086 O.2       22 UNK        -0.5000 
    124 C124       -2.3249  -19.0618  -54.0235 C.3       23 UNK        -0.0398 
    125 S125       -0.5114  -18.8683  -54.0862 S.3       23 UNK        -0.2404 
    126 C126       -0.2289  -17.4839  -52.9325 C.3       23 UNK        -0.0205 
    127 H127       -0.9155  -11.9987  -43.2283 H         1 UNK         0.0600 
    128 H128        0.6617  -11.2783  -43.5724 H         1 UNK         0.0600 
    129 H129        0.5187  -13.0218  -43.3384 H         1 UNK         0.0600 
    130 H130        0.8886  -14.0100  -45.3045 H         1 UNK         0.3000 
    131 H131       -0.5537  -13.1155  -47.7494 H         1 UNK         0.0600 
    132 H132        0.1344  -15.3997  -48.6007 H         1 UNK         0.0800 
    133 H133        0.7943  -15.7868  -47.0393 H         1 UNK         0.0800 
    134 H134       -2.6298  -15.3610  -49.0966 H         1 UNK         0.0800 
    135 H135       -3.3737  -16.7239  -48.2973 H         1 UNK         0.0800 
    136 H136       -1.7107  -16.0532  -51.1539 H         1 UNK         0.1150 
    137 H137        0.5814  -19.6542  -51.4864 H         1 UNK         0.1150 
    138 H138       -1.3130  -18.6429  -47.7736 H         1 UNK         0.1150 
    139 H139       -0.5721  -21.2092  -48.6044 H         1 UNK         0.0800 
    140 H140        0.7485  -21.1707  -49.7328 H         1 UNK         0.0800 
    141 H141       -0.6642  -20.2365  -46.4316 H         1 UNK         0.0800 
    142 H142        0.6147  -19.4105  -45.6011 H         1 UNK         0.0800 
    143 H143        1.6451  -21.8912  -45.3704 H         1 UNK         0.0600 
    144 H144        0.0138  -20.3245  -43.6423 H         1 UNK         0.3000 
    145 H145        0.5914  -22.2303  -40.6911 H         1 UNK         0.0600 
    146 H146        1.4422  -20.0098  -39.9814 H         1 UNK         0.0600 
    147 H147        2.6225  -20.8217  -41.0012 H         1 UNK         0.0600 
    148 H148        1.6347  -19.5240  -41.6661 H         1 UNK         0.0600 
    149 H149       -0.7892  -19.7877  -41.6376 H         1 UNK         0.3000 
    150 H150       -4.0186  -21.2692  -41.3905 H         1 UNK         0.0600 
    151 H151       -3.5294  -20.5655  -39.0406 H         1 UNK         0.0600 
    152 H152       -4.4346  -19.3298  -39.9001 H         1 UNK         0.0600 
    153 H153       -2.7028  -19.1281  -39.6305 H         1 UNK         0.0600 
    154 H154       -3.1074  -18.6208  -42.0120 H         1 UNK         0.3000 
    155 H155       -2.3152  -19.1003  -45.3822 H         1 UNK         0.0600 
    156 H156       -4.7958  -19.2104  -45.6498 H         1 UNK         0.0600 
    157 H157       -4.1761  -17.6003  -45.9736 H         1 UNK         0.0600 
    158 H158       -4.9859  -17.9422  -44.4446 H         1 UNK         0.0600 
    159 H159       -2.8280  -16.6831  -44.1506 H         1 UNK         0.3000 
    160 H160       -0.4357  -15.5597  -44.1336 H         1 UNK         0.0600 
    161 H161       -2.0163  -15.7496  -41.5206 H         1 UNK         0.0600 
    162 H162       -2.5156  -14.9950  -43.0289 H         1 UNK         0.0600 
    163 H163       -1.2443  -14.2678  -42.0696 H         1 UNK         0.0600 
    164 H164        1.4581  -15.6646  -43.0843 H         1 UNK         0.3000 
    165 H165        2.3415  -15.4145  -39.8606 H         1 UNK         0.0600 
    166 H166        4.1308  -17.1035  -39.8666 H         1 UNK         0.0600 
    167 H167        2.5901  -17.8908  -39.5830 H         1 UNK         0.0600 
    168 H168        3.3502  -17.9901  -41.1720 H         1 UNK         0.0600 
    169 H169        3.8845  -15.9295  -42.2790 H         1 UNK         0.3000 
    170 H170        3.4076  -12.8588  -43.7937 H         1 UNK         0.0600 
    171 H171        5.0521  -12.0158  -42.1099 H         1 UNK         0.0600 
    172 H172        5.9636  -13.5161  -42.2291 H         1 UNK         0.0600 
    173 H173        5.8480  -12.4338  -43.6179 H         1 UNK         0.0600 
    174 H174        5.3869  -14.8597  -44.2234 H         1 UNK         0.3000 
    175 H175        5.2037  -16.5327  -45.5836 H         1 UNK         0.0600 
    176 H176        2.4494  -17.8896  -45.4384 H         1 UNK         0.0600 
    177 H177        3.9699  -18.6925  -45.8165 H         1 UNK         0.0600 
    178 H178        3.7038  -18.0262  -44.2139 H         1 UNK         0.0600 
    179 H179        3.1111  -15.6073  -47.3419 H         1 UNK         0.3000 
    180 H180        4.8742  -16.5805  -50.2426 H         1 UNK         0.0600 
    181 H181        2.1850  -17.8015  -49.4363 H         1 UNK         0.0600 
    182 H182        3.5886  -18.7070  -49.9832 H         1 UNK         0.0600 
    183 H183        2.7740  -17.6103  -51.0883 H         1 UNK         0.0600 
    184 H184        2.2669  -15.4028  -49.7636 H         1 UNK         0.3000 
    185 H185        3.3872  -12.0565  -49.5657 H         1 UNK         0.0600 
    186 H186        3.4365  -12.4775  -52.0272 H         1 UNK         0.0600 
    187 H187        2.0036  -13.4905  -51.8996 H         1 UNK         0.0600 
    188 H188        1.9069  -11.7661  -51.5393 H         1 UNK         0.0600 
    189 H189        0.7934  -13.2672  -49.7580 H         1 UNK         0.3000 
    190 H190       -1.3056  -22.7004  -43.9877 H         1 UNK         0.3000 
    191 H191       -2.9467  -23.8356  -45.7867 H         1 UNK         0.0600 
    192 H192       -3.4457  -23.6320  -43.3816 H         1 UNK         0.0600 
    193 H193       -3.7161  -25.2903  -43.8850 H         1 UNK         0.0600 
    194 H194       -2.2592  -24.8732  -42.9888 H         1 UNK         0.0600 
    195 H195        0.0875  -25.3065  -44.7959 H         1 UNK         0.3000 
    196 H196       -0.2948  -27.9629  -45.7048 H         1 UNK         0.0600 
    197 H197        2.2093  -28.0193  -45.6722 H         1 UNK         0.0600 
    198 H198        1.5680  -27.2689  -44.2198 H         1 UNK         0.0600 
    199 H199        2.2536  -26.2683  -45.5009 H         1 UNK         0.0600 
    200 H200        0.2108  -25.0067  -47.5431 H         1 UNK         0.3000 
    201 H201        1.0917  -26.3049  -49.9997 H         1 UNK         0.0600 
    202 H202        1.6875  -23.9313  -49.3687 H         1 UNK         0.0600 
    203 H203       -0.0146  -23.4926  -49.5108 H         1 UNK         0.0600 
    204 H204        0.8780  -24.0314  -50.9259 H         1 UNK         0.0600 
    205 H205       -1.9277  -26.0455  -48.4312 H         1 UNK         0.3000 
    206 H206       -4.0054  -26.5144  -48.8462 H         1 UNK         0.0600 
    207 H207       -3.1567  -28.5324  -50.0261 H         1 UNK         0.0600 
    208 H208       -4.6644  -27.9642  -50.7264 H         1 UNK         0.0600 
    209 H209       -3.1478  -27.6547  -51.5557 H         1 UNK         0.0600 
    210 H210       -2.5187  -24.7718  -51.5228 H         1 UNK         0.3000 
    211 H211       -4.9612  -23.5179  -52.4776 H         1 UNK         0.0600 
    212 H212       -3.0220  -24.0434  -53.9619 H         1 UNK         0.0600 
    213 H213       -2.0102  -22.9181  -53.0556 H         1 UNK         0.0600 
    214 H214       -3.3819  -22.3276  -53.9842 H         1 UNK         0.0600 
    215 H215       -3.5900  -23.0404  -49.6110 H         1 UNK         0.3000 
    216 H216       -2.8718  -20.3835  -49.3081 H         1 UNK         0.0600 
    217 H217       -3.2399  -20.8084  -46.8923 H         1 UNK         0.0600 
    218 H218       -2.4815  -22.2030  -47.6435 H         1 UNK         0.0600 
    219 H219       -4.1975  -22.2363  -47.2593 H         1 UNK         0.0600 
    220 H220       -4.0140  -18.7194  -49.9898 H         1 UNK         0.3000 
    221 H221       -5.5074  -17.1372  -50.2628 H         1 UNK         0.0600 
    222 H222       -7.0313  -18.2481  -47.8486 H         1 UNK         0.0600 
    223 H223       -5.6952  -17.1023  -47.7695 H         1 UNK         0.0600 
    224 H224       -7.1989  -16.6423  -48.5401 H         1 UNK         0.0600 
    225 H225       -5.9139  -19.8985  -51.4937 H         1 UNK         0.3000 
    226 H226       -8.7901  -19.8578  -52.2087 H         1 UNK         0.0600 
    227 H227       -7.5357  -22.0395  -51.7740 H         1 UNK         0.0600 
    228 H228       -8.2440  -21.9477  -53.3777 H         1 UNK         0.0600 
    229 H229       -6.5188  -21.6871  -53.1705 H         1 UNK         0.0600 
    230 H230       -9.2741  -19.9563  -54.5873 H         1 UNK         0.3000 
    231 H231       -8.2716  -17.7654  -56.0645 H         1 UNK         0.0600 
    232 H232       -9.8528  -20.2255  -56.9908 H         1 UNK         0.0600 
    233 H233       -9.6746  -18.7289  -57.8987 H         1 UNK         0.0600 
    234 H234      -10.5411  -18.7233  -56.3719 H         1 UNK         0.0600 
    235 H235       -6.9992  -20.9524  -55.7536 H         1 UNK         0.3000 
    236 H236       -5.4148  -21.0962  -58.1522 H         1 UNK         0.0600 
    237 H237       -6.0610  -23.1210  -56.9116 H         1 UNK         0.0600 
    238 H238       -4.3113  -22.9795  -56.8837 H         1 UNK         0.0600 
    239 H239       -5.2481  -22.5487  -55.4573 H         1 UNK         0.0600 
    240 H240       -5.0287  -19.2196  -55.2319 H         1 UNK         0.3000 
    241 H241       -2.3038  -18.4871  -56.1014 H         1 UNK         0.0600 
    242 H242       -5.3618  -17.3769  -54.5402 H         1 UNK         0.3800 
    243 H243       -4.8984  -15.6989  -54.6913 H         1 UNK         0.3800 
    244 H244       -2.7333  -18.6368  -53.1047 H         1 UNK         0.0800 
    245 H245       -2.5039  -20.1334  -53.9398 H         1 UNK         0.0800 
    246 H246        0.8190  -17.1882  -52.9943 H         1 UNK         0.0800 
    247 H247       -0.8103  -16.6227  -53.2644 H         1 UNK         0.0800 
@<TRIPOS>BOND
     1    1    2 1    
     2    1  127 1    
     3    1  128 1    
     4    1  129 1    
     5    2    3 2    
     6    2    4 am   BACKBONE|DICT|INTERRES
     7    4    5 1    
     8    4  130 1    
     9    5    6 1    
    10    5   65 1    
    11    5  131 1    
    12    6    7 1    
    13    6  132 1    
    14    6  133 1    
    15    7    8 1    
    16    8    9 1    
    17    8  134 1    
    18    8  135 1    
    19    9   10 ar   
    20    9   14 ar   
    21   10   11 ar   
    22   10  136 1    
    23   11   12 ar   
    24   11  126 1    
    25   12   13 ar   
    26   12  137 1    
    27   13   14 ar   
    28   13   15 1    
    29   14  138 1    
    30   15   16 1    
    31   15  139 1    
    32   15  140 1    
    33   16   17 1    
    34   17   18 1    
    35   17  141 1    
    36   17  142 1    
    37   18   19 1    
    38   18   67 1    
    39   18  143 1    
    40   19   20 am   BACKBONE|DICT|INTERRES
    41   19  144 1    
    42   20   21 2    
    43   20   22 1    
    44   22   23 1    
    45   22   24 1    
    46   22  145 1    
    47   23  146 1    
    48   23  147 1    
    49   23  148 1    
    50   24   25 am   BACKBONE|DICT|INTERRES
    51   24  149 1    
    52   25   26 2    
    53   25   27 1    
    54   27   28 1    
    55   27   29 1    
    56   27  150 1    
    57   28  151 1    
    58   28  152 1    
    59   28  153 1    
    60   29   30 am   BACKBONE|DICT|INTERRES
    61   29  154 1    
    62   30   31 2    
    63   30   32 1    
    64   32   33 1    
    65   32   34 1    
    66   32  155 1    
    67   33  156 1    
    68   33  157 1    
    69   33  158 1    
    70   34   35 am   BACKBONE|DICT|INTERRES
    71   34  159 1    
    72   35   36 2    
    73   35   37 1    
    74   37   38 1    
    75   37   39 1    
    76   37  160 1    
    77   38  161 1    
    78   38  162 1    
    79   38  163 1    
    80   39   40 am   BACKBONE|DICT|INTERRES
    81   39  164 1    
    82   40   41 2    
    83   40   42 1    
    84   42   43 1    
    85   42   44 1    
    86   42  165 1    
    87   43  166 1    
    88   43  167 1    
    89   43  168 1    
    90   44   45 am   BACKBONE|DICT|INTERRES
    91   44  169 1    
    92   45   46 2    
    93   45   47 1    
    94   47   48 1    
    95   47   49 1    
    96   47  170 1    
    97   48  171 1    
    98   48  172 1    
    99   48  173 1    
   100   49   50 am   BACKBONE|DICT|INTERRES
   101   49  174 1    
   102   50   51 2    
   103   50   52 1    
   104   52   53 1    
   105   52   54 1    
   106   52  175 1    
   107   53  176 1    
   108   53  177 1    
   109   53  178 1    
   110   54   55 am   BACKBONE|DICT|INTERRES
   111   54  179 1    
   112   55   56 2    
   113   55   57 1    
   114   57   58 1    
   115   57   59 1    
   116   57  180 1    
   117   58  181 1    
   118   58  182 1    
   119   58  183 1    
   120   59   60 am   BACKBONE|DICT|INTERRES
   121   59  184 1    
   122   60   61 2    
   123   60   62 1    
   124   62   63 1    
   125   62   64 1    
   126   62  185 1    
   127   63  186 1    
   128   63  187 1    
   129   63  188 1    
   130   64   65 am   BACKBONE|DICT|INTERRES
   131   64  189 1    
   132   65   66 2    
   133   67   68 2    
   134   67   69 am   BACKBONE|DICT|INTERRES
   135   69   70 1    
   136   69  190 1    
   137   70   71 1    
   138   70   72 1    
   139   70  191 1    
   140   71  192 1    
   141   71  193 1    
   142   71  194 1    
   143   72   73 2    
   144   72   74 am   BACKBONE|DICT|INTERRES
   145   74   75 1    
   146   74  195 1    
   147   75   76 1    
   148   75   77 1    
   149   75  196 1    
   150   76  197 1    
   151   76  198 1    
   152   76  199 1    
   153   77   78 2    
   154   77   79 am   BACKBONE|DICT|INTERRES
   155   79   80 1    
   156   79  200 1    
   157   80   81 1    
   158   80   82 1    
   159   80  201 1    
   160   81  202 1    
   161   81  203 1    
   162   81  204 1    
   163   82   83 2    
   164   82   84 am   BACKBONE|DICT|INTERRES
   165   84   85 1    
   166   84  205 1    
   167   85   86 1    
   168   85   87 1    
   169   85  206 1    
   170   86  207 1    
   171   86  208 1    
   172   86  209 1    
   173   87   88 2    
   174   87   89 am   BACKBONE|DICT|INTERRES
   175   89   90 1    
   176   89  210 1    
   177   90   91 1    
   178   90   92 1    
   179   90  211 1    
   180   91  212 1    
   181   91  213 1    
   182   91  214 1    
   183   92   93 2    
   184   92   94 am   BACKBONE|DICT|INTERRES
   185   94   95 1    
   186   94  215 1    
   187   95   96 1    
   188   95   97 1    
   189   95  216 1    
   190   96  217 1    
   191   96  218 1    
   192   96  219 1    
   193   97   98 2    
   194   97   99 am   BACKBONE|DICT|INTERRES
   195   99  100 1    
   196   99  220 1    
   197  100  101 1    
   198  100  102 1    
   199  100  221 1    
   200  101  222 1    
   201  101  223 1    
   202  101  224 1    
   203  102  103 2    
   204  102  104 am   BACKBONE|DICT|INTERRES
   205  104  105 1    
   206  104  225 1    
   207  105  106 1    
   208  105  107 1    
   209  105  226 1    
   210  106  227 1    
   211  106  228 1    
   212  106  229 1    
   213  107  108 2    
   214  107  109 am   BACKBONE|DICT|INTERRES
   215  109  110 1    
   216  109  230 1    
   217  110  111 1    
   218  110  112 1    
   219  110  231 1    
   220  111  232 1    
   221  111  233 1    
   222  111  234 1    
   223  112  113 2    
   224  112  114 am   BACKBONE|DICT|INTERRES
   225  114  115 1    
   226  114  235 1    
   227  115  116 1    
   228  115  117 1    
   229  115  236 1    
   230  116  237 1    
   231  116  238 1    
   232  116  239 1    
   233  117  118 2    
   234  117  119 am   BACKBONE|DICT|INTERRES
   235  119  120 1    
   236  119  240 1    
   237  120  121 1    
   238  120  124 1    
   239  120  241 1    
   240  121  122 am   BACKBONE|DICT|INTERRES
   241  121  123 2    
   242  122  242 1    
   243  122  243 1    
   244  124  125 1    
   245  124  244 1    
   246  124  245 1    
   247  125  126 1    
   248  126  246 1    
   249  126  247 1    
@<TRIPOS>SUBSTRUCTURE
     1 UNK         1 GROUP             0       ****    0 ROOT    
