@<TRIPOS>MOLECULE
3R540
247   249    1
SMALL
USER_CHARGES


@<TRIPOS>ATOM
      1 CA          6.8249  -12.8138  -47.5834 C.3       0 UNK        -0.1800 
      2 C           5.4432  -13.4476  -47.6483 C.2       0 UNK         0.5000 
      3 O           4.9060  -13.8446  -46.6129 O.2       0 UNK        -0.5000 
      4 N           4.8683  -13.5464  -48.8568 N.am      1 UNK        -0.5000 
      5 CA          3.5529  -14.1382  -49.1393 C.3       1 UNK         0.1400 
      6 C6          2.4031  -13.2850  -48.5244 C.3       23 UNK        -0.0398 
      7 S7          0.7688  -13.5698  -49.2894 S.3       23 UNK        -0.2404 
      8 C8         -0.2340  -14.0721  -47.8411 C.3       23 UNK        -0.0205 
      9 C9         -1.4738  -14.9185  -48.1452 C.ar      23 UNK        -0.0193 
     10 C10        -1.8538  -15.2913  -49.4436 C.ar      23 UNK        -0.1150 
     11 C11        -3.0006  -16.0603  -49.6576 C.ar      23 UNK        -0.0193 
     12 C12        -3.7713  -16.4654  -48.5671 C.ar      23 UNK        -0.1150 
     13 C13        -3.4007  -16.1220  -47.2659 C.ar      23 UNK        -0.0193 
     14 C14        -2.2564  -15.3441  -47.0654 C.ar      23 UNK        -0.1150 
     15 C15        -4.2655  -16.5533  -46.0885 C.3       23 UNK        -0.0205 
     16 S16        -4.5257  -18.3579  -46.0216 S.3       23 UNK        -0.2404 
     17 C17        -2.9448  -18.9660  -45.3346 C.3       23 UNK        -0.0398 
     18 CA         -2.1051  -19.8846  -46.2588 C.3       11 UNK         0.1400 
     19 N          -0.8723  -20.3121  -45.5764 N.am      11 UNK        -0.5000 
     20 C           0.0754  -21.1162  -46.0857 C.2       10 UNK         0.5000 
     21 O           0.0021  -21.6151  -47.2068 O.2       10 UNK        -0.5000 
     22 CA          1.3075  -21.4355  -45.2204 C.3       10 UNK         0.1400 
     23 CB          2.6130  -21.3228  -46.0267 C.3       10 UNK        -0.1800 
     24 N           1.3958  -20.5752  -44.0408 N.am      10 UNK        -0.5000 
     25 C           1.1668  -20.9872  -42.7869 C.2       9 UNK         0.5000 
     26 O           0.8337  -22.1373  -42.4979 O.2       9 UNK        -0.5000 
     27 CA          1.3344  -19.9583  -41.6523 C.3       9 UNK         0.1400 
     28 CB          2.6933  -20.1500  -40.9627 C.3       9 UNK        -0.1800 
     29 N           1.1920  -18.5574  -42.0548 N.am      9 UNK        -0.5000 
     30 C           0.0743  -18.0068  -42.5474 C.2       8 UNK         0.5000 
     31 O          -0.9386  -18.6509  -42.8264 O.2       8 UNK        -0.5000 
     32 CA          0.1148  -16.4797  -42.7410 C.3       8 UNK         0.1400 
     33 CB         -1.2370  -15.8643  -43.1532 C.3       8 UNK        -0.1800 
     34 N           0.6746  -15.7965  -41.5697 N.am      8 UNK        -0.5000 
     35 C           0.1406  -15.6971  -40.3435 C.2       7 UNK         0.5000 
     36 O          -0.9368  -16.1966  -40.0154 O.2       7 UNK        -0.5000 
     37 CA          0.9540  -14.8688  -39.3271 C.3       7 UNK         0.1400 
     38 CB          0.4559  -15.0139  -37.8729 C.3       7 UNK        -0.1800 
     39 N           2.3990  -15.1015  -39.4275 N.am      7 UNK        -0.5000 
     40 C           3.0676  -16.2285  -39.1346 C.2       6 UNK         0.5000 
     41 O           2.5266  -17.2473  -38.7051 O.2       6 UNK        -0.5000 
     42 CA          4.5949  -16.2180  -39.3633 C.3       6 UNK         0.1400 
     43 CB          5.1126  -17.5772  -39.8644 C.3       6 UNK        -0.1800 
     44 N           4.9805  -15.1921  -40.3316 N.am      6 UNK        -0.5000 
     45 C           5.5631  -14.0199  -40.0459 C.2       5 UNK         0.5000 
     46 O           5.9071  -13.6858  -38.9120 O.2       5 UNK        -0.5000 
     47 CA          5.7765  -13.0395  -41.2200 C.3       5 UNK         0.1400 
     48 CB          7.2334  -13.0922  -41.7043 C.3       5 UNK        -0.1800 
     49 N           4.8915  -13.2842  -42.3627 N.am      5 UNK        -0.5000 
     50 C           3.5563  -13.1676  -42.3481 C.2       4 UNK         0.5000 
     51 O           2.9128  -12.7905  -41.3688 O.2       4 UNK        -0.5000 
     52 CA          2.8098  -13.6300  -43.6129 C.3       4 UNK         0.1400 
     53 CB          2.5830  -12.4511  -44.5690 C.3       4 UNK        -0.1800 
     54 N           3.4794  -14.7319  -44.3166 N.am      4 UNK        -0.5000 
     55 C           3.7132  -15.9476  -43.7980 C.2       3 UNK         0.5000 
     56 O           3.3759  -16.2693  -42.6556 O.2       3 UNK        -0.5000 
     57 CA          4.4420  -16.9565  -44.7072 C.3       3 UNK         0.1400 
     58 CB          4.6312  -18.3387  -44.0491 C.3       3 UNK        -0.1800 
     59 N           3.7996  -17.0890  -46.0163 N.am      3 UNK        -0.5000 
     60 C           2.5588  -17.5173  -46.2888 C.2       2 UNK         0.5000 
     61 O           1.7666  -17.9159  -45.4321 O.2       2 UNK        -0.5000 
     62 CA          2.1474  -17.4821  -47.7794 C.3       2 UNK         0.1400 
     63 CB          0.6804  -17.8822  -48.0082 C.3       2 UNK        -0.1800 
     64 N           2.3568  -16.1540  -48.3537 N.am      2 UNK        -0.5000 
     65 C           3.5257  -15.6404  -48.7503 C.2       1 UNK         0.5000 
     66 O           4.5656  -16.3046  -48.7807 O.2       1 UNK        -0.5000 
     67 C          -2.9190  -21.0770  -46.8133 C.2       11 UNK         0.5000 
     68 O          -3.2868  -21.0724  -47.9884 O.2       11 UNK        -0.5000 
     69 N          -3.1299  -22.1032  -45.9761 N.am      12 UNK        -0.5000 
     70 CA         -3.8474  -23.3264  -46.3414 C.3       12 UNK         0.1400 
     71 CB         -4.1163  -24.1538  -45.0760 C.3       12 UNK        -0.1800 
     72 C          -3.1077  -24.1727  -47.3945 C.2       12 UNK         0.5000 
     73 O          -3.7524  -24.7495  -48.2703 O.2       12 UNK        -0.5000 
     74 N          -1.7713  -24.2140  -47.3057 N.am      13 UNK        -0.5000 
     75 CA         -0.9024  -24.9211  -48.2469 C.3       13 UNK         0.1400 
     76 CB          0.5009  -25.0732  -47.6392 C.3       13 UNK        -0.1800 
     77 C          -0.8390  -24.2206  -49.6151 C.2       13 UNK         0.5000 
     78 O          -0.8616  -24.8974  -50.6428 O.2       13 UNK        -0.5000 
     79 N          -0.7880  -22.8820  -49.5995 N.am      14 UNK        -0.5000 
     80 CA         -0.8163  -22.0258  -50.7829 C.3       14 UNK         0.1400 
     81 CB         -0.4537  -20.5881  -50.3811 C.3       14 UNK        -0.1800 
     82 C          -2.1726  -22.0800  -51.5077 C.2       14 UNK         0.5000 
     83 O          -2.1965  -22.1943  -52.7323 O.2       14 UNK        -0.5000 
     84 N          -3.2722  -22.0371  -50.7407 N.am      15 UNK        -0.5000 
     85 CA         -4.6362  -22.1856  -51.2484 C.3       15 UNK         0.1400 
     86 CB         -5.6379  -21.7869  -50.1555 C.3       15 UNK        -0.1800 
     87 C          -4.9379  -23.6015  -51.7663 C.2       15 UNK         0.5000 
     88 O          -5.7244  -23.7405  -52.7037 O.2       15 UNK        -0.5000 
     89 N          -4.3301  -24.6213  -51.1411 N.am      16 UNK        -0.5000 
     90 CA         -4.3457  -26.0426  -51.5144 C.3       16 UNK         0.1400 
     91 CB         -3.5738  -26.2401  -52.8357 C.3       16 UNK        -0.1800 
     92 C          -5.7559  -26.6736  -51.5672 C.2       16 UNK         0.5000 
     93 O          -5.9567  -27.6636  -52.2717 O.2       16 UNK        -0.5000 
     94 N          -6.7144  -26.0577  -50.8570 N.am      17 UNK        -0.5000 
     95 CA         -8.1635  -26.3053  -50.8825 C.3       17 UNK         0.1400 
     96 CB         -8.4945  -27.7303  -50.3929 C.3       17 UNK        -0.1800 
     97 C          -8.8439  -25.9777  -52.2349 C.2       17 UNK         0.5000 
     98 O         -10.0318  -26.2625  -52.3957 O.2       17 UNK        -0.5000 
     99 N          -8.1031  -25.3687  -53.1702 N.am      18 UNK        -0.5000 
    100 CA        -8.5733  -24.9401  -54.4870 C.3       18 UNK         0.1400 
    101 CB        -7.4894  -25.2739  -55.5247 C.3       18 UNK        -0.1800 
    102 C         -8.8784  -23.4330  -54.5183 C.2       18 UNK         0.5000 
    103 O         -9.6743  -22.9961  -55.3501 O.2       18 UNK        -0.5000 
    104 N         -8.2161  -22.6646  -53.6396 N.am      19 UNK        -0.5000 
    105 CA        -8.2461  -21.2069  -53.4627 C.3       19 UNK         0.1400 
    106 CB        -9.6667  -20.6858  -53.1775 C.3       19 UNK        -0.1800 
    107 C         -7.5762  -20.4352  -54.6136 C.2       19 UNK         0.5000 
    108 O         -6.7400  -19.5706  -54.3526 O.2       19 UNK        -0.5000 
    109 N         -7.9019  -20.7939  -55.8623 N.am      20 UNK        -0.5000 
    110 CA        -7.3325  -20.2363  -57.0933 C.3       20 UNK         0.1400 
    111 CB        -8.0615  -20.8448  -58.3003 C.3       20 UNK        -0.1800 
    112 C         -5.8106  -20.4481  -57.2190 C.2       20 UNK         0.5000 
    113 O         -5.1264  -19.6191  -57.8209 O.2       20 UNK        -0.5000 
    114 N         -5.3025  -21.5238  -56.5990 N.am      21 UNK        -0.5000 
    115 CA        -3.8792  -21.8508  -56.4830 C.3       21 UNK         0.1400 
    116 CB        -3.7415  -23.2321  -55.8241 C.3       21 UNK        -0.1800 
    117 C         -3.0574  -20.7977  -55.7088 C.2       21 UNK         0.5000 
    118 O         -1.8453  -20.7156  -55.9123 O.2       21 UNK        -0.5000 
    119 N         -3.7278  -19.9980  -54.8669 N.am      22 UNK        -0.5000 
    120 CA        -3.1392  -18.8721  -54.1283 C.3       22 UNK         0.1400 
    121 C         -2.8335  -17.6196  -55.0058 C.2       22 UNK         0.5000 
    122 N         -3.2860  -17.5478  -56.2538 N.am      22 UNK        -0.7600 
    123 O         -2.1666  -16.6955  -54.5500 O.2       22 UNK        -0.5000 
    124 C124       -4.0076  -18.5081  -52.8927 C.3       23 UNK        -0.0398 
    125 S125       -3.0223  -18.1946  -51.3928 S.3       23 UNK        -0.2404 
    126 C126       -3.4244  -16.4542  -51.0623 C.3       23 UNK        -0.0205 
    127 H127        7.1748  -12.5011  -48.5675 H         1 UNK         0.0600 
    128 H128        7.5433  -13.5248  -47.1758 H         1 UNK         0.0600 
    129 H129        6.8043  -11.9382  -46.9346 H         1 UNK         0.0600 
    130 H130        5.3819  -13.2332  -49.6685 H         1 UNK         0.3000 
    131 H131        3.4478  -14.1101  -50.2248 H         1 UNK         0.0600 
    132 H132        2.3542  -13.4310  -47.4466 H         1 UNK         0.0800 
    133 H133        2.6243  -12.2256  -48.6621 H         1 UNK         0.0800 
    134 H134        0.3840  -14.6270  -47.1344 H         1 UNK         0.0800 
    135 H135       -0.5487  -13.1665  -47.3203 H         1 UNK         0.0800 
    136 H136       -1.2712  -14.9883  -50.3004 H         1 UNK         0.1150 
    137 H137       -4.6597  -17.0590  -48.7326 H         1 UNK         0.1150 
    138 H138       -1.9754  -15.0561  -46.0629 H         1 UNK         0.1150 
    139 H139       -3.8487  -16.2088  -45.1411 H         1 UNK         0.0800 
    140 H140       -5.2380  -16.0689  -46.1846 H         1 UNK         0.0800 
    141 H141       -2.3374  -18.1075  -45.0565 H         1 UNK         0.0800 
    142 H142       -3.1718  -19.4814  -44.3999 H         1 UNK         0.0800 
    143 H143       -1.7997  -19.2889  -47.1211 H         1 UNK         0.0600 
    144 H144       -0.7272  -19.9364  -44.6469 H         1 UNK         0.3000 
    145 H145        1.2047  -22.4809  -44.9236 H         1 UNK         0.0600 
    146 H146        3.4821  -21.5257  -45.4009 H         1 UNK         0.0600 
    147 H147        2.6304  -22.0426  -46.8460 H         1 UNK         0.0600 
    148 H148        2.7382  -20.3341  -46.4629 H         1 UNK         0.0600 
    149 H149        1.6143  -19.5991  -44.2161 H         1 UNK         0.3000 
    150 H150        0.5527  -20.1641  -40.9183 H         1 UNK         0.0600 
    151 H151        2.8246  -21.1818  -40.6342 H         1 UNK         0.0600 
    152 H152        2.7769  -19.5213  -40.0775 H         1 UNK         0.0600 
    153 H153        3.5224  -19.9117  -41.6287 H         1 UNK         0.0600 
    154 H154        1.9849  -17.9511  -41.8887 H         1 UNK         0.3000 
    155 H155        0.8040  -16.2960  -43.5640 H         1 UNK         0.0600 
    156 H156       -1.1703  -14.7794  -43.2334 H         1 UNK         0.0600 
    157 H157       -2.0312  -16.1033  -42.4456 H         1 UNK         0.0600 
    158 H158       -1.5430  -16.2395  -44.1267 H         1 UNK         0.0600 
    159 H159        1.6159  -15.4477  -41.6941 H         1 UNK         0.3000 
    160 H160        0.8039  -13.8264  -39.6121 H         1 UNK         0.0600 
    161 H161        0.4922  -16.0478  -37.5292 H         1 UNK         0.0600 
    162 H162       -0.5778  -14.6787  -37.7812 H         1 UNK         0.0600 
    163 H163        1.0530  -14.4107  -37.1892 H         1 UNK         0.0600 
    164 H164        2.9283  -14.3234  -39.8019 H         1 UNK         0.3000 
    165 H165        5.0577  -16.0192  -38.3949 H         1 UNK         0.0600 
    166 H166        4.6428  -17.8594  -40.8060 H         1 UNK         0.0600 
    167 H167        6.1908  -17.5540  -40.0227 H         1 UNK         0.0600 
    168 H168        4.9098  -18.3691  -39.1425 H         1 UNK         0.0600 
    169 H169        4.6897  -15.3731  -41.2850 H         1 UNK         0.3000 
    170 H170        5.5732  -12.0335  -40.8471 H         1 UNK         0.0600 
    171 H171        7.9252  -12.8833  -40.8872 H         1 UNK         0.0600 
    172 H172        7.4879  -14.0733  -42.1073 H         1 UNK         0.0600 
    173 H173        7.4184  -12.3506  -42.4817 H         1 UNK         0.0600 
    174 H174        5.3299  -13.6040  -43.2142 H         1 UNK         0.3000 
    175 H175        1.8282  -13.9838  -43.2969 H         1 UNK         0.0600 
    176 H176        3.5122  -12.1180  -45.0320 H         1 UNK         0.0600 
    177 H177        1.8825  -12.7194  -45.3580 H         1 UNK         0.0600 
    178 H178        2.1543  -11.5966  -44.0435 H         1 UNK         0.0600 
    179 H179        3.8547  -14.5151  -45.2382 H         1 UNK         0.3000 
    180 H180        5.4335  -16.5409  -44.8920 H         1 UNK         0.0600 
    181 H181        3.6794  -18.7961  -43.7830 H         1 UNK         0.0600 
    182 H182        5.2227  -18.2584  -43.1370 H         1 UNK         0.0600 
    183 H183        5.1550  -19.0241  -44.7151 H         1 UNK         0.0600 
    184 H184        4.3519  -16.7721  -46.8067 H         1 UNK         0.3000 
    185 H185        2.7748  -18.2000  -48.3115 H         1 UNK         0.0600 
    186 H186        0.3791  -17.7303  -49.0451 H         1 UNK         0.0600 
    187 H187        0.5369  -18.9374  -47.7897 H         1 UNK         0.0600 
    188 H188       -0.0028  -17.3165  -47.3745 H         1 UNK         0.0600 
    189 H189        1.5433  -15.5553  -48.3948 H         1 UNK         0.3000 
    190 H190       -2.7776  -22.0435  -45.0320 H         1 UNK         0.3000 
    191 H191       -4.8097  -23.0368  -46.7691 H         1 UNK         0.0600 
    192 H192       -4.7141  -23.5926  -44.3574 H         1 UNK         0.0600 
    193 H193       -4.6680  -25.0640  -45.3150 H         1 UNK         0.0600 
    194 H194       -3.1897  -24.4513  -44.5833 H         1 UNK         0.0600 
    195 H195       -1.3167  -23.6630  -46.5935 H         1 UNK         0.3000 
    196 H196       -1.3120  -25.9215  -48.4035 H         1 UNK         0.0600 
    197 H197        1.1544  -25.6345  -48.3081 H         1 UNK         0.0600 
    198 H198        0.4646  -25.6128  -46.6928 H         1 UNK         0.0600 
    199 H199        0.9729  -24.1076  -47.4571 H         1 UNK         0.0600 
    200 H200       -0.7061  -22.4094  -48.7017 H         1 UNK         0.3000 
    201 H201       -0.0531  -22.3855  -51.4760 H         1 UNK         0.0600 
    202 H202        0.5344  -20.5442  -49.9229 H         1 UNK         0.0600 
    203 H203       -1.1693  -20.1754  -49.6688 H         1 UNK         0.0600 
    204 H204       -0.4389  -19.9315  -51.2517 H         1 UNK         0.0600 
    205 H205       -3.1717  -21.8698  -49.7428 H         1 UNK         0.3000 
    206 H206       -4.7610  -21.5079  -52.0932 H         1 UNK         0.0600 
    207 H207       -5.5002  -20.7464  -49.8600 H         1 UNK         0.0600 
    208 H208       -6.6664  -21.8946  -50.5013 H         1 UNK         0.0600 
    209 H209       -5.5245  -22.4044  -49.2636 H         1 UNK         0.0600 
    210 H210       -3.7849  -24.4083  -50.3131 H         1 UNK         0.3000 
    211 H211       -3.8037  -26.5691  -50.7276 H         1 UNK         0.0600 
    212 H212       -4.0996  -25.7939  -53.6808 H         1 UNK         0.0600 
    213 H213       -3.4341  -27.2987  -53.0572 H         1 UNK         0.0600 
    214 H214       -2.5830  -25.7881  -52.7834 H         1 UNK         0.0600 
    215 H215       -6.4239  -25.2613  -50.3074 H         1 UNK         0.3000 
    216 H216       -8.5926  -25.6075  -50.1622 H         1 UNK         0.0600 
    217 H217       -8.0114  -27.9423  -49.4392 H         1 UNK         0.0600 
    218 H218       -8.1779  -28.4907  -51.1071 H         1 UNK         0.0600 
    219 H219       -9.5680  -27.8530  -50.2450 H         1 UNK         0.0600 
    220 H220       -7.1418  -25.1363  -52.9460 H         1 UNK         0.3000 
    221 H221       -9.4862  -25.4742  -54.7583 H         1 UNK         0.0600 
    222 H222       -6.5489  -24.7674  -55.3030 H         1 UNK         0.0600 
    223 H223       -7.2909  -26.3455  -55.5531 H         1 UNK         0.0600 
    224 H224       -7.7983  -24.9733  -56.5267 H         1 UNK         0.0600 
    225 H225       -7.5029  -23.1334  -53.0899 H         1 UNK         0.3000 
    226 H226       -7.6475  -21.0107  -52.5723 H         1 UNK         0.0600 
    227 H227      -10.1156  -21.2095  -52.3335 H         1 UNK         0.0600 
    228 H228       -9.6455  -19.6244  -52.9278 H         1 UNK         0.0600 
    229 H229      -10.3288  -20.8023  -54.0357 H         1 UNK         0.0600 
    230 H230       -8.6016  -21.5237  -55.9654 H         1 UNK         0.3000 
    231 H231       -7.5144  -19.1598  -57.0859 H         1 UNK         0.0600 
    232 H232       -7.6776  -20.4368  -59.2363 H         1 UNK         0.0600 
    233 H233       -9.1294  -20.6282  -58.2659 H         1 UNK         0.0600 
    234 H234       -7.9402  -21.9282  -58.3385 H         1 UNK         0.0600 
    235 H235       -5.9444  -22.1394  -56.1230 H         1 UNK         0.3000 
    236 H236       -3.4679  -21.9083  -57.4927 H         1 UNK         0.0600 
    237 H237       -4.2555  -24.0018  -56.3999 H         1 UNK         0.0600 
    238 H238       -2.6940  -23.5269  -55.7490 H         1 UNK         0.0600 
    239 H239       -4.1510  -23.2353  -54.8140 H         1 UNK         0.0600 
    240 H240       -4.7328  -20.0963  -54.7917 H         1 UNK         0.3000 
    241 H241       -2.1697  -19.2240  -53.7697 H         1 UNK         0.0600 
    242 H242       -3.8342  -18.2969  -56.6570 H         1 UNK         0.3800 
    243 H243       -3.0748  -16.7329  -56.8078 H         1 UNK         0.3800 
    244 H244       -4.6736  -19.3298  -52.6353 H         1 UNK         0.0800 
    245 H245       -4.6754  -17.6707  -53.1031 H         1 UNK         0.0800 
    246 H246       -2.9407  -15.8228  -51.8094 H         1 UNK         0.0800 
    247 H247       -4.4988  -16.2958  -51.1664 H         1 UNK         0.0800 
@<TRIPOS>BOND
     1    1    2 1    
     2    1  127 1    
     3    1  128 1    
     4    1  129 1    
     5    2    3 2    
     6    2    4 am   BACKBONE|DICT|INTERRES
     7    4    5 1    
     8    4  130 1    
     9    5    6 1    
    10    5   65 1    
    11    5  131 1    
    12    6    7 1    
    13    6  132 1    
    14    6  133 1    
    15    7    8 1    
    16    8    9 1    
    17    8  134 1    
    18    8  135 1    
    19    9   10 ar   
    20    9   14 ar   
    21   10   11 ar   
    22   10  136 1    
    23   11   12 ar   
    24   11  126 1    
    25   12   13 ar   
    26   12  137 1    
    27   13   14 ar   
    28   13   15 1    
    29   14  138 1    
    30   15   16 1    
    31   15  139 1    
    32   15  140 1    
    33   16   17 1    
    34   17   18 1    
    35   17  141 1    
    36   17  142 1    
    37   18   19 1    
    38   18   67 1    
    39   18  143 1    
    40   19   20 am   BACKBONE|DICT|INTERRES
    41   19  144 1    
    42   20   21 2    
    43   20   22 1    
    44   22   23 1    
    45   22   24 1    
    46   22  145 1    
    47   23  146 1    
    48   23  147 1    
    49   23  148 1    
    50   24   25 am   BACKBONE|DICT|INTERRES
    51   24  149 1    
    52   25   26 2    
    53   25   27 1    
    54   27   28 1    
    55   27   29 1    
    56   27  150 1    
    57   28  151 1    
    58   28  152 1    
    59   28  153 1    
    60   29   30 am   BACKBONE|DICT|INTERRES
    61   29  154 1    
    62   30   31 2    
    63   30   32 1    
    64   32   33 1    
    65   32   34 1    
    66   32  155 1    
    67   33  156 1    
    68   33  157 1    
    69   33  158 1    
    70   34   35 am   BACKBONE|DICT|INTERRES
    71   34  159 1    
    72   35   36 2    
    73   35   37 1    
    74   37   38 1    
    75   37   39 1    
    76   37  160 1    
    77   38  161 1    
    78   38  162 1    
    79   38  163 1    
    80   39   40 am   BACKBONE|DICT|INTERRES
    81   39  164 1    
    82   40   41 2    
    83   40   42 1    
    84   42   43 1    
    85   42   44 1    
    86   42  165 1    
    87   43  166 1    
    88   43  167 1    
    89   43  168 1    
    90   44   45 am   BACKBONE|DICT|INTERRES
    91   44  169 1    
    92   45   46 2    
    93   45   47 1    
    94   47   48 1    
    95   47   49 1    
    96   47  170 1    
    97   48  171 1    
    98   48  172 1    
    99   48  173 1    
   100   49   50 am   BACKBONE|DICT|INTERRES
   101   49  174 1    
   102   50   51 2    
   103   50   52 1    
   104   52   53 1    
   105   52   54 1    
   106   52  175 1    
   107   53  176 1    
   108   53  177 1    
   109   53  178 1    
   110   54   55 am   BACKBONE|DICT|INTERRES
   111   54  179 1    
   112   55   56 2    
   113   55   57 1    
   114   57   58 1    
   115   57   59 1    
   116   57  180 1    
   117   58  181 1    
   118   58  182 1    
   119   58  183 1    
   120   59   60 am   BACKBONE|DICT|INTERRES
   121   59  184 1    
   122   60   61 2    
   123   60   62 1    
   124   62   63 1    
   125   62   64 1    
   126   62  185 1    
   127   63  186 1    
   128   63  187 1    
   129   63  188 1    
   130   64   65 am   BACKBONE|DICT|INTERRES
   131   64  189 1    
   132   65   66 2    
   133   67   68 2    
   134   67   69 am   BACKBONE|DICT|INTERRES
   135   69   70 1    
   136   69  190 1    
   137   70   71 1    
   138   70   72 1    
   139   70  191 1    
   140   71  192 1    
   141   71  193 1    
   142   71  194 1    
   143   72   73 2    
   144   72   74 am   BACKBONE|DICT|INTERRES
   145   74   75 1    
   146   74  195 1    
   147   75   76 1    
   148   75   77 1    
   149   75  196 1    
   150   76  197 1    
   151   76  198 1    
   152   76  199 1    
   153   77   78 2    
   154   77   79 am   BACKBONE|DICT|INTERRES
   155   79   80 1    
   156   79  200 1    
   157   80   81 1    
   158   80   82 1    
   159   80  201 1    
   160   81  202 1    
   161   81  203 1    
   162   81  204 1    
   163   82   83 2    
   164   82   84 am   BACKBONE|DICT|INTERRES
   165   84   85 1    
   166   84  205 1    
   167   85   86 1    
   168   85   87 1    
   169   85  206 1    
   170   86  207 1    
   171   86  208 1    
   172   86  209 1    
   173   87   88 2    
   174   87   89 am   BACKBONE|DICT|INTERRES
   175   89   90 1    
   176   89  210 1    
   177   90   91 1    
   178   90   92 1    
   179   90  211 1    
   180   91  212 1    
   181   91  213 1    
   182   91  214 1    
   183   92   93 2    
   184   92   94 am   BACKBONE|DICT|INTERRES
   185   94   95 1    
   186   94  215 1    
   187   95   96 1    
   188   95   97 1    
   189   95  216 1    
   190   96  217 1    
   191   96  218 1    
   192   96  219 1    
   193   97   98 2    
   194   97   99 am   BACKBONE|DICT|INTERRES
   195   99  100 1    
   196   99  220 1    
   197  100  101 1    
   198  100  102 1    
   199  100  221 1    
   200  101  222 1    
   201  101  223 1    
   202  101  224 1    
   203  102  103 2    
   204  102  104 am   BACKBONE|DICT|INTERRES
   205  104  105 1    
   206  104  225 1    
   207  105  106 1    
   208  105  107 1    
   209  105  226 1    
   210  106  227 1    
   211  106  228 1    
   212  106  229 1    
   213  107  108 2    
   214  107  109 am   BACKBONE|DICT|INTERRES
   215  109  110 1    
   216  109  230 1    
   217  110  111 1    
   218  110  112 1    
   219  110  231 1    
   220  111  232 1    
   221  111  233 1    
   222  111  234 1    
   223  112  113 2    
   224  112  114 am   BACKBONE|DICT|INTERRES
   225  114  115 1    
   226  114  235 1    
   227  115  116 1    
   228  115  117 1    
   229  115  236 1    
   230  116  237 1    
   231  116  238 1    
   232  116  239 1    
   233  117  118 2    
   234  117  119 am   BACKBONE|DICT|INTERRES
   235  119  120 1    
   236  119  240 1    
   237  120  121 1    
   238  120  124 1    
   239  120  241 1    
   240  121  122 am   BACKBONE|DICT|INTERRES
   241  121  123 2    
   242  122  242 1    
   243  122  243 1    
   244  124  125 1    
   245  124  244 1    
   246  124  245 1    
   247  125  126 1    
   248  126  246 1    
   249  126  247 1    
@<TRIPOS>SUBSTRUCTURE
     1 UNK         1 GROUP             0       ****    0 ROOT    
