@<TRIPOS>MOLECULE
3R540
247   249    1
SMALL
USER_CHARGES


@<TRIPOS>ATOM
      1 CA          6.8739  -21.2223  -45.4328 C.3       0 UNK        -0.1800 
      2 C           5.5006  -21.5628  -45.9932 C.2       0 UNK         0.5000 
      3 O           5.0990  -22.7260  -45.9675 O.2       0 UNK        -0.5000 
      4 N           4.7765  -20.5517  -46.4912 N.am      1 UNK        -0.5000 
      5 CA          3.4341  -20.6830  -47.0814 C.3       1 UNK         0.1400 
      6 C6          3.1421  -19.5534  -48.1004 C.3       23 UNK        -0.0398 
      7 S7          4.2551  -19.7025  -49.5404 S.3       23 UNK        -0.2404 
      8 C8          3.8721  -18.1988  -50.4865 C.3       23 UNK        -0.0205 
      9 C9          2.4829  -18.2321  -51.1071 C.ar      23 UNK        -0.0193 
     10 C10         2.1812  -19.1364  -52.1304 C.ar      23 UNK        -0.1150 
     11 C11         0.9188  -19.1333  -52.7314 C.ar      23 UNK        -0.0193 
     12 C12        -0.0371  -18.2039  -52.3124 C.ar      23 UNK        -0.1150 
     13 C13         0.2433  -17.3057  -51.2748 C.ar      23 UNK        -0.0193 
     14 C14         1.5066  -17.3302  -50.6792 C.ar      23 UNK        -0.1150 
     15 C15        -0.7703  -16.2706  -50.7907 C.3       23 UNK        -0.0205 
     16 S16        -2.5227  -16.7341  -50.9743 S.3       23 UNK        -0.2404 
     17 C17        -2.6440  -18.3330  -50.0968 C.3       23 UNK        -0.0398 
     18 CA         -2.1484  -18.4173  -48.6240 C.3       11 UNK         0.1400 
     19 N          -2.5029  -17.2483  -47.8163 N.am      11 UNK        -0.5000 
     20 C          -3.7341  -16.7890  -47.5483 C.2       10 UNK         0.5000 
     21 O          -4.7658  -17.3449  -47.9275 O.2       10 UNK        -0.5000 
     22 CA         -3.8388  -15.4929  -46.7144 C.3       10 UNK         0.1400 
     23 CB         -4.6147  -15.7420  -45.4105 C.3       10 UNK        -0.1800 
     24 N          -2.5329  -14.9121  -46.3873 N.am      10 UNK        -0.5000 
     25 C          -1.8039  -14.1377  -47.2035 C.2       9 UNK         0.5000 
     26 O          -2.1960  -13.7438  -48.3014 O.2       9 UNK        -0.5000 
     27 CA         -0.3812  -13.7721  -46.7316 C.3       9 UNK         0.1400 
     28 CB         -0.3902  -12.4427  -45.9624 C.3       9 UNK        -0.1800 
     29 N           0.2330  -14.8076  -45.8970 N.am      9 UNK        -0.5000 
     30 C           0.5589  -16.0381  -46.3181 C.2       8 UNK         0.5000 
     31 O           0.4418  -16.4173  -47.4805 O.2       8 UNK        -0.5000 
     32 CA          1.0113  -17.0423  -45.2483 C.3       8 UNK         0.1400 
     33 CB          2.5087  -16.8988  -44.9422 C.3       8 UNK        -0.1800 
     34 N           0.2345  -16.9106  -44.0170 N.am      8 UNK        -0.5000 
     35 C          -1.0693  -17.1991  -43.9062 C.2       7 UNK         0.5000 
     36 O          -1.7463  -17.6344  -44.8365 O.2       7 UNK        -0.5000 
     37 CA         -1.7320  -16.9264  -42.5443 C.3       7 UNK         0.1400 
     38 CB         -1.5739  -18.1178  -41.5882 C.3       7 UNK        -0.1800 
     39 N          -1.1911  -15.7272  -41.9098 N.am      7 UNK        -0.5000 
     40 C          -1.4558  -14.4768  -42.3102 C.2       6 UNK         0.5000 
     41 O          -2.2300  -14.2005  -43.2264 O.2       6 UNK        -0.5000 
     42 CA         -0.6921  -13.3532  -41.5861 C.3       6 UNK         0.1400 
     43 CB         -1.4115  -12.9573  -40.2881 C.3       6 UNK        -0.1800 
     44 N           0.6926  -13.7227  -41.2811 N.am      6 UNK        -0.5000 
     45 C           1.6398  -13.9180  -42.2089 C.2       5 UNK         0.5000 
     46 O           1.4462  -13.7919  -43.4179 O.2       5 UNK        -0.5000 
     47 CA          3.0233  -14.3689  -41.7045 C.3       5 UNK         0.1400 
     48 CB          3.8649  -13.1544  -41.2852 C.3       5 UNK        -0.1800 
     49 N           2.9720  -15.3306  -40.5980 N.am      5 UNK        -0.5000 
     50 C           2.4130  -16.5458  -40.6647 C.2       4 UNK         0.5000 
     51 O           1.7909  -16.9621  -41.6437 O.2       4 UNK        -0.5000 
     52 CA          2.5379  -17.4325  -39.4208 C.3       4 UNK         0.1400 
     53 CB          1.3892  -17.1513  -38.4383 C.3       4 UNK        -0.1800 
     54 N           2.4913  -18.8339  -39.8301 N.am      4 UNK        -0.5000 
     55 C           3.2157  -19.8242  -39.2951 C.2       3 UNK         0.5000 
     56 O           4.0052  -19.6583  -38.3639 O.2       3 UNK        -0.5000 
     57 CA          3.0282  -21.2455  -39.8698 C.3       3 UNK         0.1400 
     58 CB          2.2733  -22.1311  -38.8653 C.3       3 UNK        -0.1800 
     59 N           2.3156  -21.2858  -41.1499 N.am      3 UNK        -0.5000 
     60 C           2.8567  -20.9866  -42.3370 C.2       2 UNK         0.5000 
     61 O           4.0335  -20.6451  -42.4885 O.2       2 UNK        -0.5000 
     62 CA          1.9146  -21.0663  -43.5510 C.3       2 UNK         0.1400 
     63 CB          0.7052  -20.1410  -43.3625 C.3       2 UNK        -0.1800 
     64 N           2.6795  -20.7125  -44.7405 N.am      2 UNK        -0.5000 
     65 C           2.3152  -20.8279  -46.0236 C.2       1 UNK         0.5000 
     66 O           1.1646  -21.0781  -46.3930 O.2       1 UNK        -0.5000 
     67 C          -2.5925  -19.7454  -47.9557 C.2       11 UNK         0.5000 
     68 O          -2.9692  -20.6869  -48.6616 O.2       11 UNK        -0.5000 
     69 N          -2.6034  -19.7834  -46.6127 N.am      12 UNK        -0.5000 
     70 CA         -3.2541  -20.8160  -45.8014 C.3       12 UNK         0.1400 
     71 CB         -3.1219  -20.4895  -44.3081 C.3       12 UNK        -0.1800 
     72 C          -2.8130  -22.2588  -46.0966 C.2       12 UNK         0.5000 
     73 O          -3.6656  -23.0769  -46.4411 O.2       12 UNK        -0.5000 
     74 N          -1.5116  -22.5514  -45.9759 N.am      13 UNK        -0.5000 
     75 CA         -0.9880  -23.9005  -46.2069 C.3       13 UNK         0.1400 
     76 CB          0.2296  -24.1578  -45.3060 C.3       13 UNK        -0.1800 
     77 C          -0.6357  -24.1332  -47.6842 C.2       13 UNK         0.5000 
     78 O          -0.8297  -25.2421  -48.1825 O.2       13 UNK        -0.5000 
     79 N          -0.1241  -23.0921  -48.3555 N.am      14 UNK        -0.5000 
     80 CA          0.3611  -23.1605  -49.7350 C.3       14 UNK         0.1400 
     81 CB          1.1285  -21.8763  -50.0710 C.3       14 UNK        -0.1800 
     82 C          -0.7341  -23.4032  -50.7862 C.2       14 UNK         0.5000 
     83 O          -0.4818  -24.1171  -51.7576 O.2       14 UNK        -0.5000 
     84 N          -1.9076  -22.7904  -50.5911 N.am      15 UNK        -0.5000 
     85 CA         -2.9886  -22.7660  -51.5772 C.3       15 UNK         0.1400 
     86 CB         -3.1365  -21.3259  -52.0784 C.3       15 UNK        -0.1800 
     87 C          -4.3274  -23.2572  -51.0098 C.2       15 UNK         0.5000 
     88 O          -5.3461  -23.0827  -51.6806 O.2       15 UNK        -0.5000 
     89 N          -4.3228  -23.8060  -49.7857 N.am      16 UNK        -0.5000 
     90 CA         -5.5020  -24.2145  -49.0123 C.3       16 UNK         0.1400 
     91 CB         -6.1913  -25.4320  -49.6636 C.3       16 UNK        -0.1800 
     92 C          -6.4589  -23.0280  -48.7625 C.2       16 UNK         0.5000 
     93 O          -7.6572  -23.1259  -49.0302 O.2       16 UNK        -0.5000 
     94 N          -5.8806  -21.9135  -48.2893 N.am      17 UNK        -0.5000 
     95 CA         -6.5175  -20.6144  -48.0462 C.3       17 UNK         0.1400 
     96 CB         -7.5899  -20.7108  -46.9414 C.3       17 UNK        -0.1800 
     97 C          -7.0218  -19.9640  -49.3487 C.2       17 UNK         0.5000 
     98 O          -8.1707  -19.5259  -49.4293 O.2       17 UNK        -0.5000 
     99 N          -6.1228  -19.9219  -50.3425 N.am      18 UNK        -0.5000 
    100 CA        -6.2796  -19.2893  -51.6577 C.3       18 UNK         0.1400 
    101 CB        -6.5011  -17.7681  -51.5170 C.3       18 UNK        -0.1800 
    102 C         -7.3246  -19.9710  -52.5662 C.2       18 UNK         0.5000 
    103 O         -7.8809  -19.3200  -53.4518 O.2       18 UNK        -0.5000 
    104 N         -7.5487  -21.2768  -52.3673 N.am      19 UNK        -0.5000 
    105 CA        -8.3727  -22.1117  -53.2425 C.3       19 UNK         0.1400 
    106 CB        -8.7856  -23.3860  -52.4914 C.3       19 UNK        -0.1800 
    107 C         -7.6296  -22.4598  -54.5461 C.2       19 UNK         0.5000 
    108 O         -8.2360  -22.4485  -55.6176 O.2       19 UNK        -0.5000 
    109 N         -6.3234  -22.7259  -54.4267 N.am      20 UNK        -0.5000 
    110 CA        -5.3928  -22.9846  -55.5242 C.3       20 UNK         0.1400 
    111 CB        -4.8428  -24.4152  -55.3772 C.3       20 UNK        -0.1800 
    112 C         -4.2893  -21.9122  -55.4947 C.2       20 UNK         0.5000 
    113 O         -3.1091  -22.2362  -55.3525 O.2       20 UNK        -0.5000 
    114 N         -4.7137  -20.6411  -55.5367 N.am      21 UNK        -0.5000 
    115 CA        -3.8768  -19.4510  -55.3666 C.3       21 UNK         0.1400 
    116 CB        -4.7798  -18.2080  -55.3762 C.3       21 UNK        -0.1800 
    117 C         -2.7568  -19.3061  -56.4153 C.2       21 UNK         0.5000 
    118 O         -2.9242  -19.7110  -57.5681 O.2       21 UNK        -0.5000 
    119 N         -1.6540  -18.6808  -55.9879 N.am      22 UNK        -0.5000 
    120 CA        -0.4782  -18.3596  -56.8141 C.3       22 UNK         0.1400 
    121 C         -0.6566  -17.0969  -57.7111 C.2       22 UNK         0.5000 
    122 N         -1.7274  -16.3227  -57.5801 N.am      22 UNK        -0.7600 
    123 O          0.1916  -16.8191  -58.5546 O.2       22 UNK        -0.5000 
    124 C124        0.8006  -18.2462  -55.9395 C.3       23 UNK        -0.0398 
    125 S125        1.4365  -19.8662  -55.3843 S.3       23 UNK        -0.2404 
    126 C126        0.5720  -20.1542  -53.8069 C.3       23 UNK        -0.0205 
    127 H127        6.9147  -21.4643  -44.3706 H         1 UNK         0.0600 
    128 H128        7.1089  -20.1640  -45.5496 H         1 UNK         0.0600 
    129 H129        7.6429  -21.7997  -45.9458 H         1 UNK         0.0600 
    130 H130        5.1688  -19.6210  -46.4983 H         1 UNK         0.3000 
    131 H131        3.4146  -21.6265  -47.6304 H         1 UNK         0.0600 
    132 H132        2.1122  -19.5947  -48.4589 H         1 UNK         0.0800 
    133 H133        3.2680  -18.5716  -47.6436 H         1 UNK         0.0800 
    134 H134        4.6087  -18.0915  -51.2838 H         1 UNK         0.0800 
    135 H135        3.9938  -17.3275  -49.8411 H         1 UNK         0.0800 
    136 H136        2.9292  -19.8448  -52.4577 H         1 UNK         0.1150 
    137 H137       -1.0061  -18.1915  -52.7880 H         1 UNK         0.1150 
    138 H138        1.7354  -16.6306  -49.8871 H         1 UNK         0.1150 
    139 H139       -0.5961  -16.0288  -49.7438 H         1 UNK         0.0800 
    140 H140       -0.6032  -15.3460  -51.3439 H         1 UNK         0.0800 
    141 H141       -2.1000  -19.0668  -50.6884 H         1 UNK         0.0800 
    142 H142       -3.6965  -18.6084  -50.1486 H         1 UNK         0.0800 
    143 H143       -1.0582  -18.4439  -48.6446 H         1 UNK         0.0600 
    144 H144       -1.7155  -16.7316  -47.4469 H         1 UNK         0.3000 
    145 H145       -4.4042  -14.7726  -47.3090 H         1 UNK         0.0600 
    146 H146       -4.6895  -14.8321  -44.8146 H         1 UNK         0.0600 
    147 H147       -5.6311  -16.0778  -45.6193 H         1 UNK         0.0600 
    148 H148       -4.1401  -16.5066  -44.7967 H         1 UNK         0.0600 
    149 H149       -2.1420  -15.1692  -45.4909 H         1 UNK         0.3000 
    150 H150        0.2395  -13.6483  -47.6215 H         1 UNK         0.0600 
    151 H151       -0.8183  -11.6429  -46.5679 H         1 UNK         0.0600 
    152 H152        0.6205  -12.1390  -45.6890 H         1 UNK         0.0600 
    153 H153       -0.9771  -12.5125  -45.0461 H         1 UNK         0.0600 
    154 H154        0.4230  -14.5597  -44.9304 H         1 UNK         0.3000 
    155 H155        0.8435  -18.0449  -45.6470 H         1 UNK         0.0600 
    156 H156        2.7414  -15.9191  -44.5273 H         1 UNK         0.0600 
    157 H157        3.1071  -17.0187  -45.8450 H         1 UNK         0.0600 
    158 H158        2.8392  -17.6533  -44.2279 H         1 UNK         0.0600 
    159 H159        0.7464  -16.6386  -43.1826 H         1 UNK         0.3000 
    160 H160       -2.7992  -16.7760  -42.7198 H         1 UNK         0.0600 
    161 H161       -2.1161  -17.9466  -40.6582 H         1 UNK         0.0600 
    162 H162       -0.5305  -18.3007  -41.3331 H         1 UNK         0.0600 
    163 H163       -1.9727  -19.0311  -42.0284 H         1 UNK         0.0600 
    164 H164       -0.5056  -15.8671  -41.1828 H         1 UNK         0.3000 
    165 H165       -0.6755  -12.4837  -42.2469 H         1 UNK         0.0600 
    166 H166       -0.9199  -12.1114  -39.8073 H         1 UNK         0.0600 
    167 H167       -2.4423  -12.6618  -40.4883 H         1 UNK         0.0600 
    168 H168       -1.4388  -13.7809  -39.5735 H         1 UNK         0.0600 
    169 H169        0.9334  -13.8479  -40.3090 H         1 UNK         0.3000 
    170 H170        3.5317  -14.8572  -42.5379 H         1 UNK         0.0600 
    171 H171        3.9366  -12.4297  -42.0975 H         1 UNK         0.0600 
    172 H172        3.4332  -12.6416  -40.4248 H         1 UNK         0.0600 
    173 H173        4.8817  -13.4496  -41.0254 H         1 UNK         0.0600 
    174 H174        3.4469  -15.0587  -39.7491 H         1 UNK         0.3000 
    175 H175        3.4929  -17.2116  -38.9393 H         1 UNK         0.0600 
    176 H176        0.4163  -17.3546  -38.8880 H         1 UNK         0.0600 
    177 H177        1.4782  -17.7678  -37.5437 H         1 UNK         0.0600 
    178 H178        1.3927  -16.1095  -38.1156 H         1 UNK         0.0600 
    179 H179        1.9187  -19.0200  -40.6416 H         1 UNK         0.3000 
    180 H180        4.0242  -21.6701  -40.0130 H         1 UNK         0.0600 
    181 H181        1.2647  -21.7595  -38.6800 H         1 UNK         0.0600 
    182 H182        2.7912  -22.1657  -37.9058 H         1 UNK         0.0600 
    183 H183        2.1935  -23.1571  -39.2251 H         1 UNK         0.0600 
    184 H184        1.3442  -21.5581  -41.1075 H         1 UNK         0.3000 
    185 H185        1.5767  -22.0976  -43.6561 H         1 UNK         0.0600 
    186 H186        0.1443  -19.9965  -44.2836 H         1 UNK         0.0600 
    187 H187        0.0141  -20.5461  -42.6237 H         1 UNK         0.0600 
    188 H188        1.0292  -19.1656  -43.0075 H         1 UNK         0.0600 
    189 H189        3.6503  -20.5107  -44.5311 H         1 UNK         0.3000 
    190 H190       -2.2786  -18.9639  -46.1046 H         1 UNK         0.3000 
    191 H191       -4.3181  -20.7639  -46.0325 H         1 UNK         0.0600 
    192 H192       -3.6207  -21.2419  -43.6959 H         1 UNK         0.0600 
    193 H193       -3.5793  -19.5282  -44.0737 H         1 UNK         0.0600 
    194 H194       -2.0808  -20.4528  -43.9964 H         1 UNK         0.0600 
    195 H195       -0.8406  -21.8224  -45.7660 H         1 UNK         0.3000 
    196 H196       -1.7472  -24.6355  -45.9297 H         1 UNK         0.0600 
    197 H197        0.5459  -25.1991  -45.3764 H         1 UNK         0.0600 
    198 H198       -0.0041  -23.9604  -44.2599 H         1 UNK         0.0600 
    199 H199        1.0848  -23.5450  -45.5859 H         1 UNK         0.0600 
    200 H200        0.0400  -22.2304  -47.8492 H         1 UNK         0.3000 
    201 H201        1.0622  -23.9955  -49.7999 H         1 UNK         0.0600 
    202 H202        2.0232  -21.7957  -49.4597 H         1 UNK         0.0600 
    203 H203        0.5217  -20.9831  -49.9156 H         1 UNK         0.0600 
    204 H204        1.4575  -21.8748  -51.1106 H         1 UNK         0.0600 
    205 H205       -2.0382  -22.2097  -49.7692 H         1 UNK         0.3000 
    206 H206       -2.7613  -23.4049  -52.4329 H         1 UNK         0.0600 
    207 H207       -2.2015  -20.9406  -52.4827 H         1 UNK         0.0600 
    208 H208       -3.8900  -21.2581  -52.8574 H         1 UNK         0.0600 
    209 H209       -3.4641  -20.6756  -51.2746 H         1 UNK         0.0600 
    210 H210       -3.4340  -23.9016  -49.3156 H         1 UNK         0.3000 
    211 H211       -5.1432  -24.5349  -48.0340 H         1 UNK         0.0600 
    212 H212       -5.4915  -26.2581  -49.7890 H         1 UNK         0.0600 
    213 H213       -6.6049  -25.1940  -50.6430 H         1 UNK         0.0600 
    214 H214       -7.0116  -25.7933  -49.0425 H         1 UNK         0.0600 
    215 H215       -4.8817  -21.9478  -48.1237 H         1 UNK         0.3000 
    216 H216       -5.7351  -19.9520  -47.6756 H         1 UNK         0.0600 
    217 H217       -7.9647  -19.7210  -46.6787 H         1 UNK         0.0600 
    218 H218       -7.1806  -21.1542  -46.0337 H         1 UNK         0.0600 
    219 H219       -8.4456  -21.3103  -47.2525 H         1 UNK         0.0600 
    220 H220       -5.2260  -20.3490  -50.1626 H         1 UNK         0.3000 
    221 H221       -5.3263  -19.4178  -52.1692 H         1 UNK         0.0600 
    222 H222       -7.4818  -17.5379  -51.1003 H         1 UNK         0.0600 
    223 H223       -5.7489  -17.3163  -50.8700 H         1 UNK         0.0600 
    224 H224       -6.4344  -17.2694  -52.4843 H         1 UNK         0.0600 
    225 H225       -7.0183  -21.7624  -51.6537 H         1 UNK         0.3000 
    226 H226       -9.2799  -21.5624  -53.5031 H         1 UNK         0.0600 
    227 H227       -9.4409  -24.0054  -53.1048 H         1 UNK         0.0600 
    228 H228       -7.9207  -23.9914  -52.2203 H         1 UNK         0.0600 
    229 H229       -9.3248  -23.1464  -51.5747 H         1 UNK         0.0600 
    230 H230       -5.9238  -22.7319  -53.4918 H         1 UNK         0.3000 
    231 H231       -5.8940  -22.9064  -56.4910 H         1 UNK         0.0600 
    232 H232       -5.6463  -25.1503  -55.4230 H         1 UNK         0.0600 
    233 H233       -4.3210  -24.5503  -54.4288 H         1 UNK         0.0600 
    234 H234       -4.1411  -24.6499  -56.1784 H         1 UNK         0.0600 
    235 H235       -5.7011  -20.4757  -55.6657 H         1 UNK         0.3000 
    236 H236       -3.4091  -19.5213  -54.3835 H         1 UNK         0.0600 
    237 H237       -4.2052  -17.3008  -55.1857 H         1 UNK         0.0600 
    238 H238       -5.2815  -18.0847  -56.3369 H         1 UNK         0.0600 
    239 H239       -5.5467  -18.2683  -54.6052 H         1 UNK         0.0600 
    240 H240       -1.6205  -18.3443  -55.0385 H         1 UNK         0.3000 
    241 H241       -0.3278  -19.1837  -57.5144 H         1 UNK         0.0600 
    242 H242       -2.4392  -16.5360  -56.9015 H         1 UNK         0.3800 
    243 H243       -1.8278  -15.5140  -58.1736 H         1 UNK         0.3800 
    244 H244        1.6151  -17.7907  -56.5057 H         1 UNK         0.0800 
    245 H245        0.6367  -17.5873  -55.0862 H         1 UNK         0.0800 
    246 H246       -0.5022  -20.1855  -53.9871 H         1 UNK         0.0800 
    247 H247        0.8379  -21.1483  -53.4453 H         1 UNK         0.0800 
@<TRIPOS>BOND
     1    1    2 1    
     2    1  127 1    
     3    1  128 1    
     4    1  129 1    
     5    2    3 2    
     6    2    4 am   BACKBONE|DICT|INTERRES
     7    4    5 1    
     8    4  130 1    
     9    5    6 1    
    10    5   65 1    
    11    5  131 1    
    12    6    7 1    
    13    6  132 1    
    14    6  133 1    
    15    7    8 1    
    16    8    9 1    
    17    8  134 1    
    18    8  135 1    
    19    9   10 ar   
    20    9   14 ar   
    21   10   11 ar   
    22   10  136 1    
    23   11   12 ar   
    24   11  126 1    
    25   12   13 ar   
    26   12  137 1    
    27   13   14 ar   
    28   13   15 1    
    29   14  138 1    
    30   15   16 1    
    31   15  139 1    
    32   15  140 1    
    33   16   17 1    
    34   17   18 1    
    35   17  141 1    
    36   17  142 1    
    37   18   19 1    
    38   18   67 1    
    39   18  143 1    
    40   19   20 am   BACKBONE|DICT|INTERRES
    41   19  144 1    
    42   20   21 2    
    43   20   22 1    
    44   22   23 1    
    45   22   24 1    
    46   22  145 1    
    47   23  146 1    
    48   23  147 1    
    49   23  148 1    
    50   24   25 am   BACKBONE|DICT|INTERRES
    51   24  149 1    
    52   25   26 2    
    53   25   27 1    
    54   27   28 1    
    55   27   29 1    
    56   27  150 1    
    57   28  151 1    
    58   28  152 1    
    59   28  153 1    
    60   29   30 am   BACKBONE|DICT|INTERRES
    61   29  154 1    
    62   30   31 2    
    63   30   32 1    
    64   32   33 1    
    65   32   34 1    
    66   32  155 1    
    67   33  156 1    
    68   33  157 1    
    69   33  158 1    
    70   34   35 am   BACKBONE|DICT|INTERRES
    71   34  159 1    
    72   35   36 2    
    73   35   37 1    
    74   37   38 1    
    75   37   39 1    
    76   37  160 1    
    77   38  161 1    
    78   38  162 1    
    79   38  163 1    
    80   39   40 am   BACKBONE|DICT|INTERRES
    81   39  164 1    
    82   40   41 2    
    83   40   42 1    
    84   42   43 1    
    85   42   44 1    
    86   42  165 1    
    87   43  166 1    
    88   43  167 1    
    89   43  168 1    
    90   44   45 am   BACKBONE|DICT|INTERRES
    91   44  169 1    
    92   45   46 2    
    93   45   47 1    
    94   47   48 1    
    95   47   49 1    
    96   47  170 1    
    97   48  171 1    
    98   48  172 1    
    99   48  173 1    
   100   49   50 am   BACKBONE|DICT|INTERRES
   101   49  174 1    
   102   50   51 2    
   103   50   52 1    
   104   52   53 1    
   105   52   54 1    
   106   52  175 1    
   107   53  176 1    
   108   53  177 1    
   109   53  178 1    
   110   54   55 am   BACKBONE|DICT|INTERRES
   111   54  179 1    
   112   55   56 2    
   113   55   57 1    
   114   57   58 1    
   115   57   59 1    
   116   57  180 1    
   117   58  181 1    
   118   58  182 1    
   119   58  183 1    
   120   59   60 am   BACKBONE|DICT|INTERRES
   121   59  184 1    
   122   60   61 2    
   123   60   62 1    
   124   62   63 1    
   125   62   64 1    
   126   62  185 1    
   127   63  186 1    
   128   63  187 1    
   129   63  188 1    
   130   64   65 am   BACKBONE|DICT|INTERRES
   131   64  189 1    
   132   65   66 2    
   133   67   68 2    
   134   67   69 am   BACKBONE|DICT|INTERRES
   135   69   70 1    
   136   69  190 1    
   137   70   71 1    
   138   70   72 1    
   139   70  191 1    
   140   71  192 1    
   141   71  193 1    
   142   71  194 1    
   143   72   73 2    
   144   72   74 am   BACKBONE|DICT|INTERRES
   145   74   75 1    
   146   74  195 1    
   147   75   76 1    
   148   75   77 1    
   149   75  196 1    
   150   76  197 1    
   151   76  198 1    
   152   76  199 1    
   153   77   78 2    
   154   77   79 am   BACKBONE|DICT|INTERRES
   155   79   80 1    
   156   79  200 1    
   157   80   81 1    
   158   80   82 1    
   159   80  201 1    
   160   81  202 1    
   161   81  203 1    
   162   81  204 1    
   163   82   83 2    
   164   82   84 am   BACKBONE|DICT|INTERRES
   165   84   85 1    
   166   84  205 1    
   167   85   86 1    
   168   85   87 1    
   169   85  206 1    
   170   86  207 1    
   171   86  208 1    
   172   86  209 1    
   173   87   88 2    
   174   87   89 am   BACKBONE|DICT|INTERRES
   175   89   90 1    
   176   89  210 1    
   177   90   91 1    
   178   90   92 1    
   179   90  211 1    
   180   91  212 1    
   181   91  213 1    
   182   91  214 1    
   183   92   93 2    
   184   92   94 am   BACKBONE|DICT|INTERRES
   185   94   95 1    
   186   94  215 1    
   187   95   96 1    
   188   95   97 1    
   189   95  216 1    
   190   96  217 1    
   191   96  218 1    
   192   96  219 1    
   193   97   98 2    
   194   97   99 am   BACKBONE|DICT|INTERRES
   195   99  100 1    
   196   99  220 1    
   197  100  101 1    
   198  100  102 1    
   199  100  221 1    
   200  101  222 1    
   201  101  223 1    
   202  101  224 1    
   203  102  103 2    
   204  102  104 am   BACKBONE|DICT|INTERRES
   205  104  105 1    
   206  104  225 1    
   207  105  106 1    
   208  105  107 1    
   209  105  226 1    
   210  106  227 1    
   211  106  228 1    
   212  106  229 1    
   213  107  108 2    
   214  107  109 am   BACKBONE|DICT|INTERRES
   215  109  110 1    
   216  109  230 1    
   217  110  111 1    
   218  110  112 1    
   219  110  231 1    
   220  111  232 1    
   221  111  233 1    
   222  111  234 1    
   223  112  113 2    
   224  112  114 am   BACKBONE|DICT|INTERRES
   225  114  115 1    
   226  114  235 1    
   227  115  116 1    
   228  115  117 1    
   229  115  236 1    
   230  116  237 1    
   231  116  238 1    
   232  116  239 1    
   233  117  118 2    
   234  117  119 am   BACKBONE|DICT|INTERRES
   235  119  120 1    
   236  119  240 1    
   237  120  121 1    
   238  120  124 1    
   239  120  241 1    
   240  121  122 am   BACKBONE|DICT|INTERRES
   241  121  123 2    
   242  122  242 1    
   243  122  243 1    
   244  124  125 1    
   245  124  244 1    
   246  124  245 1    
   247  125  126 1    
   248  126  246 1    
   249  126  247 1    
@<TRIPOS>SUBSTRUCTURE
     1 UNK         1 GROUP             0       ****    0 ROOT    
