@<TRIPOS>MOLECULE
3R540
247   249    1
SMALL
USER_CHARGES


@<TRIPOS>ATOM
      1 CA          3.0935  -15.8240  -46.8095 C.3       0 UNK        -0.1800 
      2 C           2.1638  -15.9477  -45.6114 C.2       0 UNK         0.5000 
      3 O           2.5839  -16.4100  -44.5535 O.2       0 UNK        -0.5000 
      4 N           0.9026  -15.5377  -45.7725 N.am      1 UNK        -0.5000 
      5 CA         -0.1448  -15.5956  -44.7463 C.3       1 UNK         0.1400 
      6 C6         -1.5559  -15.6516  -45.3884 C.3       23 UNK        -0.0398 
      7 S7         -1.7580  -17.1467  -46.4119 S.3       23 UNK        -0.2404 
      8 C8         -1.5654  -16.4656  -48.0899 C.3       23 UNK        -0.0205 
      9 C9         -1.1306  -17.5355  -49.0798 C.ar      23 UNK        -0.0193 
     10 C10        -1.9823  -17.9496  -50.1097 C.ar      23 UNK        -0.1150 
     11 C11        -1.5676  -18.9187  -51.0353 C.ar      23 UNK        -0.0193 
     12 C12        -0.2874  -19.4672  -50.9073 C.ar      23 UNK        -0.1150 
     13 C13         0.5774  -19.0533  -49.8917 C.ar      23 UNK        -0.0193 
     14 C14         0.1481  -18.0880  -48.9798 C.ar      23 UNK        -0.1150 
     15 C15         1.9887  -19.6168  -49.8026 C.3       23 UNK        -0.0205 
     16 S16         2.0208  -21.3845  -49.3720 S.3       23 UNK        -0.2404 
     17 C17         1.3033  -21.3810  -47.6948 C.3       23 UNK        -0.0398 
     18 CA          0.2404  -22.4858  -47.4800 C.3       11 UNK         0.1400 
     19 N          -0.0378  -22.6740  -46.0541 N.am      11 UNK        -0.5000 
     20 C          -0.7699  -23.6709  -45.5325 C.2       10 UNK         0.5000 
     21 O          -1.2667  -24.5749  -46.2021 O.2       10 UNK        -0.5000 
     22 CA         -1.0348  -23.6297  -44.0134 C.3       10 UNK         0.1400 
     23 CB          0.0470  -24.4178  -43.2609 C.3       10 UNK        -0.1800 
     24 N          -1.1003  -22.2716  -43.4738 N.am      10 UNK        -0.5000 
     25 C          -1.9574  -21.3196  -43.8695 C.2       9 UNK         0.5000 
     26 O          -2.8781  -21.5232  -44.6617 O.2       9 UNK        -0.5000 
     27 CA         -1.7043  -19.8909  -43.3450 C.3       9 UNK         0.1400 
     28 CB         -2.6860  -19.5443  -42.2171 C.3       9 UNK        -0.1800 
     29 N          -0.3332  -19.6515  -42.8760 N.am      9 UNK        -0.5000 
     30 C           0.7798  -19.7500  -43.6172 C.2       8 UNK         0.5000 
     31 O           0.7751  -20.0950  -44.7997 O.2       8 UNK        -0.5000 
     32 CA          2.1057  -19.4237  -42.9019 C.3       8 UNK         0.1400 
     33 CB          3.3312  -19.5879  -43.8193 C.3       8 UNK        -0.1800 
     34 N           2.0844  -18.0642  -42.3623 N.am      8 UNK        -0.5000 
     35 C           1.5526  -17.7058  -41.1872 C.2       7 UNK         0.5000 
     36 O           1.0222  -18.5151  -40.4238 O.2       7 UNK        -0.5000 
     37 CA          1.5519  -16.2035  -40.8280 C.3       7 UNK         0.1400 
     38 CB          1.5646  -15.9547  -39.3057 C.3       7 UNK        -0.1800 
     39 N           2.5907  -15.4020  -41.4880 N.am      7 UNK        -0.5000 
     40 C           3.9207  -15.5238  -41.3500 C.2       6 UNK         0.5000 
     41 O           4.4683  -16.4180  -40.7042 O.2       6 UNK        -0.5000 
     42 CA          4.7894  -14.4309  -42.0035 C.3       6 UNK         0.1400 
     43 CB          5.3116  -14.8580  -43.3828 C.3       6 UNK        -0.1800 
     44 N           4.0829  -13.1550  -42.1300 N.am      6 UNK        -0.5000 
     45 C           3.9317  -12.2671  -41.1384 C.2       5 UNK         0.5000 
     46 O           4.4026  -12.4309  -40.0120 O.2       5 UNK        -0.5000 
     47 CA          3.0981  -10.9986  -41.4227 C.3       5 UNK         0.1400 
     48 CB          3.8722   -9.7104  -41.0765 C.3       5 UNK        -0.1800 
     49 N           2.5190  -10.9274  -42.7709 N.am      5 UNK        -0.5000 
     50 C           3.1381  -10.7505  -43.9494 C.2       4 UNK         0.5000 
     51 O           4.3542  -10.6026  -44.0671 O.2       4 UNK        -0.5000 
     52 CA          2.2601  -10.7820  -45.2182 C.3       4 UNK         0.1400 
     53 CB          2.6957  -11.9269  -46.1492 C.3       4 UNK        -0.1800 
     54 N           0.8402  -10.9537  -44.9025 N.am      4 UNK        -0.5000 
     55 C          -0.0413   -9.9557  -44.7461 C.2       3 UNK         0.5000 
     56 O           0.2326   -8.7689  -44.9258 O.2       3 UNK        -0.5000 
     57 CA         -1.4656  -10.3416  -44.2923 C.3       3 UNK         0.1400 
     58 CB         -2.4048  -10.4403  -45.5041 C.3       3 UNK        -0.1800 
     59 N          -1.5239  -11.6010  -43.5446 N.am      3 UNK        -0.5000 
     60 C          -0.9773  -11.8081  -42.3379 C.2       2 UNK         0.5000 
     61 O          -0.3954  -10.9361  -41.6941 O.2       2 UNK        -0.5000 
     62 CA         -1.0208  -13.2497  -41.7925 C.3       2 UNK         0.1400 
     63 CB         -2.2585  -13.4602  -40.9091 C.3       2 UNK        -0.1800 
     64 N          -0.9922  -14.2801  -42.8387 N.am      2 UNK        -0.5000 
     65 C           0.0031  -14.4439  -43.7227 C.2       1 UNK         0.5000 
     66 O           1.0079  -13.7265  -43.7225 O.2       1 UNK        -0.5000 
     67 C          -1.0541  -22.2200  -48.2786 C.2       11 UNK         0.5000 
     68 O          -1.2467  -22.8163  -49.3405 O.2       11 UNK        -0.5000 
     69 N          -1.9407  -21.3822  -47.7204 N.am      12 UNK        -0.5000 
     70 CA         -3.2674  -21.1093  -48.2669 C.3       12 UNK         0.1400 
     71 CB         -3.8765  -19.8689  -47.5966 C.3       12 UNK        -0.1800 
     72 C          -4.2132  -22.3078  -48.1183 C.2       12 UNK         0.5000 
     73 O          -4.8973  -22.6523  -49.0799 O.2       12 UNK        -0.5000 
     74 N          -4.2203  -22.9259  -46.9279 N.am      13 UNK        -0.5000 
     75 CA         -5.0782  -24.0634  -46.5858 C.3       13 UNK         0.1400 
     76 CB         -4.9262  -24.3920  -45.0937 C.3       13 UNK        -0.1800 
     77 C          -4.8100  -25.3112  -47.4475 C.2       13 UNK         0.5000 
     78 O          -5.7593  -25.9657  -47.8801 O.2       13 UNK        -0.5000 
     79 N          -3.5274  -25.6013  -47.7037 N.am      14 UNK        -0.5000 
     80 CA         -3.0893  -26.6739  -48.5978 C.3       14 UNK         0.1400 
     81 CB         -1.6430  -27.0549  -48.2436 C.3       14 UNK        -0.1800 
     82 C          -3.1798  -26.2900  -50.0875 C.2       14 UNK         0.5000 
     83 O          -3.1407  -27.1831  -50.9347 O.2       14 UNK        -0.5000 
     84 N          -3.2600  -24.9806  -50.3758 N.am      15 UNK        -0.5000 
     85 CA         -3.1599  -24.3444  -51.6937 C.3       15 UNK         0.1400 
     86 CB         -4.3957  -24.6615  -52.5594 C.3       15 UNK        -0.1800 
     87 C          -1.8256  -24.6959  -52.3821 C.2       15 UNK         0.5000 
     88 O          -1.8042  -25.0892  -53.5492 O.2       15 UNK        -0.5000 
     89 N          -0.7278  -24.5790  -51.6218 N.am      16 UNK        -0.5000 
     90 CA          0.6069  -25.0648  -51.9874 C.3       16 UNK         0.1400 
     91 CB          1.5101  -25.0288  -50.7473 C.3       16 UNK        -0.1800 
     92 C           1.2532  -24.3210  -53.1732 C.2       16 UNK         0.5000 
     93 O           2.1361  -24.8763  -53.8275 O.2       16 UNK        -0.5000 
     94 N           0.7751  -23.1026  -53.4573 N.am      17 UNK        -0.5000 
     95 CA          1.1294  -22.3139  -54.6404 C.3       17 UNK         0.1400 
     96 CB          0.8936  -20.8281  -54.3238 C.3       17 UNK        -0.1800 
     97 C           0.3528  -22.7331  -55.9105 C.2       17 UNK         0.5000 
     98 O           0.5625  -22.1282  -56.9617 O.2       17 UNK        -0.5000 
     99 N          -0.5495  -23.7210  -55.7882 N.am      18 UNK        -0.5000 
    100 CA        -1.4805  -24.2532  -56.7942 C.3       18 UNK         0.1400 
    101 CB        -0.7556  -24.6972  -58.0816 C.3       18 UNK        -0.1800 
    102 C         -2.6849  -23.3323  -57.0817 C.2       18 UNK         0.5000 
    103 O         -3.5222  -23.6715  -57.9196 O.2       18 UNK        -0.5000 
    104 N         -2.7803  -22.2054  -56.3660 N.am      19 UNK        -0.5000 
    105 CA        -3.9026  -21.2771  -56.3996 C.3       19 UNK         0.1400 
    106 CB        -3.3984  -19.8691  -56.0464 C.3       19 UNK        -0.1800 
    107 C         -4.9878  -21.7640  -55.4266 C.2       19 UNK         0.5000 
    108 O         -4.9330  -21.4598  -54.2341 O.2       19 UNK        -0.5000 
    109 N         -5.9532  -22.5269  -55.9536 N.am      20 UNK        -0.5000 
    110 CA        -7.0782  -23.1071  -55.2099 C.3       20 UNK         0.1400 
    111 CB        -7.8149  -24.0959  -56.1268 C.3       20 UNK        -0.1800 
    112 C         -8.0623  -22.0697  -54.6260 C.2       20 UNK         0.5000 
    113 O         -8.8775  -22.4226  -53.7737 O.2       20 UNK        -0.5000 
    114 N         -7.9713  -20.8155  -55.0891 N.am      21 UNK        -0.5000 
    115 CA        -8.7340  -19.6698  -54.5952 C.3       21 UNK         0.1400 
    116 CB        -8.5967  -18.5189  -55.6047 C.3       21 UNK        -0.1800 
    117 C         -8.3139  -19.2016  -53.1858 C.2       21 UNK         0.5000 
    118 O         -9.0937  -18.5009  -52.5382 O.2       21 UNK        -0.5000 
    119 N         -7.1036  -19.5675  -52.7388 N.am      22 UNK        -0.5000 
    120 CA        -6.5835  -19.2589  -51.3972 C.3       22 UNK         0.1400 
    121 C         -7.3772  -19.9644  -50.2603 C.2       22 UNK         0.5000 
    122 N         -7.5086  -19.3273  -49.1040 N.am      22 UNK        -0.7600 
    123 O         -7.8487  -21.0898  -50.4029 O.2       22 UNK        -0.5000 
    124 C124       -5.0735  -19.5781  -51.2771 C.3       23 UNK        -0.0398 
    125 S125       -4.0547  -18.5874  -52.4177 S.3       23 UNK        -0.2404 
    126 C126       -2.4248  -19.3869  -52.2143 C.3       23 UNK        -0.0205 
    127 H127        2.5751  -15.4358  -47.6865 H         1 UNK         0.0600 
    128 H128        3.5068  -16.8002  -47.0628 H         1 UNK         0.0600 
    129 H129        3.9192  -15.1520  -46.5762 H         1 UNK         0.0600 
    130 H130        0.6297  -15.1300  -46.6530 H         1 UNK         0.3000 
    131 H131       -0.0079  -16.5181  -44.1772 H         1 UNK         0.0600 
    132 H132       -1.7559  -14.7579  -45.9822 H         1 UNK         0.0800 
    133 H133       -2.3379  -15.6946  -44.6294 H         1 UNK         0.0800 
    134 H134       -2.5061  -16.0065  -48.3975 H         1 UNK         0.0800 
    135 H135       -0.8194  -15.6708  -48.0914 H         1 UNK         0.0800 
    136 H136       -2.9614  -17.5013  -50.1853 H         1 UNK         0.1150 
    137 H137        0.0479  -20.2149  -51.6103 H         1 UNK         0.1150 
    138 H138        0.8092  -17.7596  -48.1899 H         1 UNK         0.1150 
    139 H139        2.4832  -19.4826  -50.7656 H         1 UNK         0.0800 
    140 H140        2.5842  -19.0632  -49.0748 H         1 UNK         0.0800 
    141 H141        0.8903  -20.3998  -47.4578 H         1 UNK         0.0800 
    142 H142        2.1305  -21.5257  -46.9984 H         1 UNK         0.0800 
    143 H143        0.6562  -23.4279  -47.8443 H         1 UNK         0.0600 
    144 H144        0.2937  -21.9364  -45.4406 H         1 UNK         0.3000 
    145 H145       -1.9969  -24.1073  -43.8263 H         1 UNK         0.0600 
    146 H146       -0.1689  -24.4645  -42.1933 H         1 UNK         0.0600 
    147 H147        0.1052  -25.4447  -43.6244 H         1 UNK         0.0600 
    148 H148        1.0332  -23.9687  -43.3859 H         1 UNK         0.0600 
    149 H149       -0.3829  -22.0134  -42.8131 H         1 UNK         0.3000 
    150 H150       -1.8886  -19.2106  -44.1782 H         1 UNK         0.0600 
    151 H151       -2.5286  -20.1736  -41.3403 H         1 UNK         0.0600 
    152 H152       -3.7186  -19.6829  -42.5409 H         1 UNK         0.0600 
    153 H153       -2.5808  -18.5041  -41.9082 H         1 UNK         0.0600 
    154 H154       -0.2244  -19.3727  -41.9074 H         1 UNK         0.3000 
    155 H155        2.2165  -20.1346  -42.0806 H         1 UNK         0.0600 
    156 H156        3.2671  -18.9520  -44.7025 H         1 UNK         0.0600 
    157 H157        3.4223  -20.6179  -44.1662 H         1 UNK         0.0600 
    158 H158        4.2532  -19.3385  -43.2939 H         1 UNK         0.0600 
    159 H159        2.4240  -17.3394  -42.9932 H         1 UNK         0.3000 
    160 H160        0.5999  -15.8269  -41.1968 H         1 UNK         0.0600 
    161 H161        2.4579  -16.3673  -38.8360 H         1 UNK         0.0600 
    162 H162        0.7006  -16.4137  -38.8239 H         1 UNK         0.0600 
    163 H163        1.5293  -14.8886  -39.0808 H         1 UNK         0.0600 
    164 H164        2.2570  -14.6647  -42.0963 H         1 UNK         0.3000 
    165 H165        5.6579  -14.2904  -41.3562 H         1 UNK         0.0600 
    166 H166        6.1257  -14.2096  -43.7066 H         1 UNK         0.0600 
    167 H167        5.6947  -15.8792  -43.3663 H         1 UNK         0.0600 
    168 H168        4.5336  -14.8061  -44.1416 H         1 UNK         0.0600 
    169 H169        3.6557  -12.9522  -43.0219 H         1 UNK         0.3000 
    170 H170        2.2450  -11.0532  -40.7451 H         1 UNK         0.0600 
    171 H171        4.1540   -9.6963  -40.0230 H         1 UNK         0.0600 
    172 H172        4.7900   -9.6169  -41.6570 H         1 UNK         0.0600 
    173 H173        3.2650   -8.8239  -41.2600 H         1 UNK         0.0600 
    174 H174        1.5131  -11.0355  -42.7935 H         1 UNK         0.3000 
    175 H175        2.4130   -9.8388  -45.7464 H         1 UNK         0.0600 
    176 H176        2.6347  -12.8955  -45.6538 H         1 UNK         0.0600 
    177 H177        2.0741  -11.9677  -47.0437 H         1 UNK         0.0600 
    178 H178        3.7271  -11.7939  -46.4779 H         1 UNK         0.0600 
    179 H179        0.5528  -11.9017  -44.6922 H         1 UNK         0.3000 
    180 H180       -1.8293   -9.5448  -43.6399 H         1 UNK         0.0600 
    181 H181       -2.1016  -11.2369  -46.1847 H         1 UNK         0.0600 
    182 H182       -2.4102   -9.5085  -46.0712 H         1 UNK         0.0600 
    183 H183       -3.4314  -10.6352  -45.1934 H         1 UNK         0.0600 
    184 H184       -1.9878  -12.3735  -43.9981 H         1 UNK         0.3000 
    185 H185       -0.1336  -13.3839  -41.1699 H         1 UNK         0.0600 
    186 H186       -2.2966  -12.7214  -40.1073 H         1 UNK         0.0600 
    187 H187       -3.1825  -13.3710  -41.4818 H         1 UNK         0.0600 
    188 H188       -2.2460  -14.4444  -40.4404 H         1 UNK         0.0600 
    189 H189       -1.7887  -14.9000  -42.8662 H         1 UNK         0.3000 
    190 H190       -1.7268  -20.9694  -46.8242 H         1 UNK         0.3000 
    191 H191       -3.1577  -20.9041  -49.3334 H         1 UNK         0.0600 
    192 H192       -3.3575  -18.9667  -47.9071 H         1 UNK         0.0600 
    193 H193       -4.9235  -19.7428  -47.8728 H         1 UNK         0.0600 
    194 H194       -3.8341  -19.9240  -46.5094 H         1 UNK         0.0600 
    195 H195       -3.6483  -22.5434  -46.1807 H         1 UNK         0.3000 
    196 H196       -6.1110  -23.7551  -46.7608 H         1 UNK         0.0600 
    197 H197       -5.6375  -25.1616  -44.7916 H         1 UNK         0.0600 
    198 H198       -5.1095  -23.5155  -44.4718 H         1 UNK         0.0600 
    199 H199       -3.9283  -24.7648  -44.8667 H         1 UNK         0.0600 
    200 H200       -2.7937  -25.0540  -47.2602 H         1 UNK         0.3000 
    201 H201       -3.7216  -27.5501  -48.4394 H         1 UNK         0.0600 
    202 H202       -1.2959  -27.8891  -48.8545 H         1 UNK         0.0600 
    203 H203       -1.5585  -27.3582  -47.1999 H         1 UNK         0.0600 
    204 H204       -0.9580  -26.2217  -48.4069 H         1 UNK         0.0600 
    205 H205       -3.3026  -24.3375  -49.5969 H         1 UNK         0.3000 
    206 H206       -3.1456  -23.2672  -51.5202 H         1 UNK         0.0600 
    207 H207       -5.3132  -24.3467  -52.0619 H         1 UNK         0.0600 
    208 H208       -4.3460  -24.1347  -53.5125 H         1 UNK         0.0600 
    209 H209       -4.4787  -25.7259  -52.7801 H         1 UNK         0.0600 
    210 H210       -0.8322  -24.1719  -50.6962 H         1 UNK         0.3000 
    211 H211        0.5008  -26.1083  -52.2912 H         1 UNK         0.0600 
    212 H212        1.6191  -24.0161  -50.3650 H         1 UNK         0.0600 
    213 H213        2.5083  -25.4042  -50.9758 H         1 UNK         0.0600 
    214 H214        1.1055  -25.6471  -49.9459 H         1 UNK         0.0600 
    215 H215        0.0576  -22.7279  -52.8547 H         1 UNK         0.3000 
    216 H216        2.1919  -22.4494  -54.8532 H         1 UNK         0.0600 
    217 H217        1.1772  -20.1951  -55.1656 H         1 UNK         0.0600 
    218 H218        1.4918  -20.5090  -53.4702 H         1 UNK         0.0600 
    219 H219       -0.1541  -20.6263  -54.1014 H         1 UNK         0.0600 
    220 H220       -0.6702  -24.1396  -54.8709 H         1 UNK         0.3000 
    221 H221       -1.9046  -25.1512  -56.3430 H         1 UNK         0.0600 
    222 H222       -0.3968  -23.8481  -58.6633 H         1 UNK         0.0600 
    223 H223        0.0972  -25.3369  -57.8548 H         1 UNK         0.0600 
    224 H224       -1.4253  -25.2674  -58.7263 H         1 UNK         0.0600 
    225 H225       -2.0664  -22.0235  -55.6781 H         1 UNK         0.3000 
    226 H226       -4.3228  -21.2362  -57.4069 H         1 UNK         0.0600 
    227 H227       -2.6904  -19.5068  -56.7919 H         1 UNK         0.0600 
    228 H228       -4.2226  -19.1559  -56.0034 H         1 UNK         0.0600 
    229 H229       -2.8993  -19.8524  -55.0791 H         1 UNK         0.0600 
    230 H230       -5.8985  -22.7619  -56.9352 H         1 UNK         0.3000 
    231 H231       -6.6685  -23.6657  -54.3664 H         1 UNK         0.0600 
    232 H232       -8.2340  -23.5966  -57.0012 H         1 UNK         0.0600 
    233 H233       -8.6375  -24.5815  -55.6001 H         1 UNK         0.0600 
    234 H234       -7.1465  -24.8831  -56.4762 H         1 UNK         0.0600 
    235 H235       -7.2813  -20.6250  -55.7997 H         1 UNK         0.3000 
    236 H236       -9.7863  -19.9571  -54.5443 H         1 UNK         0.0600 
    237 H237       -8.9577  -18.8124  -56.5906 H         1 UNK         0.0600 
    238 H238       -9.1805  -17.6522  -55.2917 H         1 UNK         0.0600 
    239 H239       -7.5598  -18.1961  -55.7073 H         1 UNK         0.0600 
    240 H240       -6.5164  -20.1546  -53.3181 H         1 UNK         0.3000 
    241 H241       -6.7047  -18.1830  -51.2547 H         1 UNK         0.0600 
    242 H242       -8.0171  -19.7756  -48.3581 H         1 UNK         0.3800 
    243 H243       -7.1483  -18.3962  -48.9651 H         1 UNK         0.3800 
    244 H244       -4.7233  -19.3662  -50.2679 H         1 UNK         0.0800 
    245 H245       -4.8929  -20.6398  -51.4573 H         1 UNK         0.0800 
    246 H246       -2.5558  -20.4690  -52.1651 H         1 UNK         0.0800 
    247 H247       -1.8572  -19.1876  -53.1230 H         1 UNK         0.0800 
@<TRIPOS>BOND
     1    1    2 1    
     2    1  127 1    
     3    1  128 1    
     4    1  129 1    
     5    2    3 2    
     6    2    4 am   BACKBONE|DICT|INTERRES
     7    4    5 1    
     8    4  130 1    
     9    5    6 1    
    10    5   65 1    
    11    5  131 1    
    12    6    7 1    
    13    6  132 1    
    14    6  133 1    
    15    7    8 1    
    16    8    9 1    
    17    8  134 1    
    18    8  135 1    
    19    9   10 ar   
    20    9   14 ar   
    21   10   11 ar   
    22   10  136 1    
    23   11   12 ar   
    24   11  126 1    
    25   12   13 ar   
    26   12  137 1    
    27   13   14 ar   
    28   13   15 1    
    29   14  138 1    
    30   15   16 1    
    31   15  139 1    
    32   15  140 1    
    33   16   17 1    
    34   17   18 1    
    35   17  141 1    
    36   17  142 1    
    37   18   19 1    
    38   18   67 1    
    39   18  143 1    
    40   19   20 am   BACKBONE|DICT|INTERRES
    41   19  144 1    
    42   20   21 2    
    43   20   22 1    
    44   22   23 1    
    45   22   24 1    
    46   22  145 1    
    47   23  146 1    
    48   23  147 1    
    49   23  148 1    
    50   24   25 am   BACKBONE|DICT|INTERRES
    51   24  149 1    
    52   25   26 2    
    53   25   27 1    
    54   27   28 1    
    55   27   29 1    
    56   27  150 1    
    57   28  151 1    
    58   28  152 1    
    59   28  153 1    
    60   29   30 am   BACKBONE|DICT|INTERRES
    61   29  154 1    
    62   30   31 2    
    63   30   32 1    
    64   32   33 1    
    65   32   34 1    
    66   32  155 1    
    67   33  156 1    
    68   33  157 1    
    69   33  158 1    
    70   34   35 am   BACKBONE|DICT|INTERRES
    71   34  159 1    
    72   35   36 2    
    73   35   37 1    
    74   37   38 1    
    75   37   39 1    
    76   37  160 1    
    77   38  161 1    
    78   38  162 1    
    79   38  163 1    
    80   39   40 am   BACKBONE|DICT|INTERRES
    81   39  164 1    
    82   40   41 2    
    83   40   42 1    
    84   42   43 1    
    85   42   44 1    
    86   42  165 1    
    87   43  166 1    
    88   43  167 1    
    89   43  168 1    
    90   44   45 am   BACKBONE|DICT|INTERRES
    91   44  169 1    
    92   45   46 2    
    93   45   47 1    
    94   47   48 1    
    95   47   49 1    
    96   47  170 1    
    97   48  171 1    
    98   48  172 1    
    99   48  173 1    
   100   49   50 am   BACKBONE|DICT|INTERRES
   101   49  174 1    
   102   50   51 2    
   103   50   52 1    
   104   52   53 1    
   105   52   54 1    
   106   52  175 1    
   107   53  176 1    
   108   53  177 1    
   109   53  178 1    
   110   54   55 am   BACKBONE|DICT|INTERRES
   111   54  179 1    
   112   55   56 2    
   113   55   57 1    
   114   57   58 1    
   115   57   59 1    
   116   57  180 1    
   117   58  181 1    
   118   58  182 1    
   119   58  183 1    
   120   59   60 am   BACKBONE|DICT|INTERRES
   121   59  184 1    
   122   60   61 2    
   123   60   62 1    
   124   62   63 1    
   125   62   64 1    
   126   62  185 1    
   127   63  186 1    
   128   63  187 1    
   129   63  188 1    
   130   64   65 am   BACKBONE|DICT|INTERRES
   131   64  189 1    
   132   65   66 2    
   133   67   68 2    
   134   67   69 am   BACKBONE|DICT|INTERRES
   135   69   70 1    
   136   69  190 1    
   137   70   71 1    
   138   70   72 1    
   139   70  191 1    
   140   71  192 1    
   141   71  193 1    
   142   71  194 1    
   143   72   73 2    
   144   72   74 am   BACKBONE|DICT|INTERRES
   145   74   75 1    
   146   74  195 1    
   147   75   76 1    
   148   75   77 1    
   149   75  196 1    
   150   76  197 1    
   151   76  198 1    
   152   76  199 1    
   153   77   78 2    
   154   77   79 am   BACKBONE|DICT|INTERRES
   155   79   80 1    
   156   79  200 1    
   157   80   81 1    
   158   80   82 1    
   159   80  201 1    
   160   81  202 1    
   161   81  203 1    
   162   81  204 1    
   163   82   83 2    
   164   82   84 am   BACKBONE|DICT|INTERRES
   165   84   85 1    
   166   84  205 1    
   167   85   86 1    
   168   85   87 1    
   169   85  206 1    
   170   86  207 1    
   171   86  208 1    
   172   86  209 1    
   173   87   88 2    
   174   87   89 am   BACKBONE|DICT|INTERRES
   175   89   90 1    
   176   89  210 1    
   177   90   91 1    
   178   90   92 1    
   179   90  211 1    
   180   91  212 1    
   181   91  213 1    
   182   91  214 1    
   183   92   93 2    
   184   92   94 am   BACKBONE|DICT|INTERRES
   185   94   95 1    
   186   94  215 1    
   187   95   96 1    
   188   95   97 1    
   189   95  216 1    
   190   96  217 1    
   191   96  218 1    
   192   96  219 1    
   193   97   98 2    
   194   97   99 am   BACKBONE|DICT|INTERRES
   195   99  100 1    
   196   99  220 1    
   197  100  101 1    
   198  100  102 1    
   199  100  221 1    
   200  101  222 1    
   201  101  223 1    
   202  101  224 1    
   203  102  103 2    
   204  102  104 am   BACKBONE|DICT|INTERRES
   205  104  105 1    
   206  104  225 1    
   207  105  106 1    
   208  105  107 1    
   209  105  226 1    
   210  106  227 1    
   211  106  228 1    
   212  106  229 1    
   213  107  108 2    
   214  107  109 am   BACKBONE|DICT|INTERRES
   215  109  110 1    
   216  109  230 1    
   217  110  111 1    
   218  110  112 1    
   219  110  231 1    
   220  111  232 1    
   221  111  233 1    
   222  111  234 1    
   223  112  113 2    
   224  112  114 am   BACKBONE|DICT|INTERRES
   225  114  115 1    
   226  114  235 1    
   227  115  116 1    
   228  115  117 1    
   229  115  236 1    
   230  116  237 1    
   231  116  238 1    
   232  116  239 1    
   233  117  118 2    
   234  117  119 am   BACKBONE|DICT|INTERRES
   235  119  120 1    
   236  119  240 1    
   237  120  121 1    
   238  120  124 1    
   239  120  241 1    
   240  121  122 am   BACKBONE|DICT|INTERRES
   241  121  123 2    
   242  122  242 1    
   243  122  243 1    
   244  124  125 1    
   245  124  244 1    
   246  124  245 1    
   247  125  126 1    
   248  126  246 1    
   249  126  247 1    
@<TRIPOS>SUBSTRUCTURE
     1 UNK         1 GROUP             0       ****    0 ROOT    
