@<TRIPOS>MOLECULE
3R540
247   249    1
SMALL
USER_CHARGES


@<TRIPOS>ATOM
      1 CA         -2.3657  -13.4219  -48.3475 C.3       0 UNK        -0.1800 
      2 C          -0.9829  -13.1438  -47.7759 C.2       0 UNK         0.5000 
      3 O          -0.7862  -13.2727  -46.5693 O.2       0 UNK        -0.5000 
      4 N          -0.0308  -12.7661  -48.6420 N.am      1 UNK        -0.5000 
      5 CA          1.3800  -12.4886  -48.3239 C.3       1 UNK         0.1400 
      6 C6          2.1738  -13.7531  -47.8936 C.3       23 UNK        -0.0398 
      7 S7          2.3171  -14.9777  -49.2380 S.3       23 UNK        -0.2404 
      8 C8          1.0660  -16.2030  -48.7551 C.3       23 UNK        -0.0205 
      9 C9          1.0568  -17.3787  -49.7178 C.ar      23 UNK        -0.0193 
     10 C10         0.4102  -17.2718  -50.9526 C.ar      23 UNK        -0.1150 
     11 C11         0.4132  -18.3375  -51.8582 C.ar      23 UNK        -0.0193 
     12 C12         1.0415  -19.5351  -51.4905 C.ar      23 UNK        -0.1150 
     13 C13         1.7005  -19.6552  -50.2626 C.ar      23 UNK        -0.0193 
     14 C14         1.7073  -18.5681  -49.3825 C.ar      23 UNK        -0.1150 
     15 C15         2.4436  -20.9451  -49.9238 C.3       23 UNK        -0.0205 
     16 S16         2.1378  -21.5480  -48.2303 S.3       23 UNK        -0.2404 
     17 C17         0.3356  -21.7991  -48.2695 C.3       23 UNK        -0.0398 
     18 CA         -0.1154  -22.9303  -47.3197 C.3       11 UNK         0.1400 
     19 N           0.0075  -22.5584  -45.9061 N.am      11 UNK        -0.5000 
     20 C          -0.1834  -23.3963  -44.8776 C.2       10 UNK         0.5000 
     21 O          -0.4703  -24.5850  -45.0115 O.2       10 UNK        -0.5000 
     22 CA         -0.0948  -22.8023  -43.4609 C.3       10 UNK         0.1400 
     23 CB          1.3654  -22.5598  -43.0511 C.3       10 UNK        -0.1800 
     24 N          -0.8673  -21.5680  -43.3231 N.am      10 UNK        -0.5000 
     25 C          -2.1993  -21.4915  -43.4609 C.2       9 UNK         0.5000 
     26 O          -2.9227  -22.4658  -43.6706 O.2       9 UNK        -0.5000 
     27 CA         -2.8254  -20.0855  -43.4050 C.3       9 UNK         0.1400 
     28 CB         -3.0000  -19.6212  -41.9516 C.3       9 UNK        -0.1800 
     29 N          -2.0586  -19.0878  -44.1533 N.am      9 UNK        -0.5000 
     30 C          -1.8069  -19.1545  -45.4682 C.2       8 UNK         0.5000 
     31 O          -2.2188  -20.0565  -46.1933 O.2       8 UNK        -0.5000 
     32 CA         -0.8852  -18.0748  -46.0619 C.3       8 UNK         0.1400 
     33 CB         -1.6371  -16.7505  -46.2512 C.3       8 UNK        -0.1800 
     34 N           0.3108  -17.8621  -45.2462 N.am      8 UNK        -0.5000 
     35 C           1.2251  -18.8116  -44.9964 C.2       7 UNK         0.5000 
     36 O           1.1846  -19.9435  -45.4740 O.2       7 UNK        -0.5000 
     37 CA          2.3298  -18.4602  -43.9891 C.3       7 UNK         0.1400 
     38 CB          3.4640  -17.6747  -44.6656 C.3       7 UNK        -0.1800 
     39 N           1.7918  -17.7071  -42.8556 N.am      7 UNK        -0.5000 
     40 C           1.0010  -18.2427  -41.9124 C.2       6 UNK         0.5000 
     41 O           0.6972  -19.4350  -41.8749 O.2       6 UNK        -0.5000 
     42 CA          0.4173  -17.2819  -40.8588 C.3       6 UNK         0.1400 
     43 CB          1.3970  -17.1015  -39.6901 C.3       6 UNK        -0.1800 
     44 N           0.0807  -15.9710  -41.4146 N.am      6 UNK        -0.5000 
     45 C          -0.8775  -15.7537  -42.3272 C.2       5 UNK         0.5000 
     46 O          -1.6344  -16.6320  -42.7373 O.2       5 UNK        -0.5000 
     47 CA         -0.9741  -14.3324  -42.9156 C.3       5 UNK         0.1400 
     48 CB         -2.0226  -13.5026  -42.1615 C.3       5 UNK        -0.1800 
     49 N           0.3033  -13.6168  -42.9045 N.am      5 UNK        -0.5000 
     50 C           1.3958  -13.9812  -43.5873 C.2       4 UNK         0.5000 
     51 O           1.4368  -14.9796  -44.3090 O.2       4 UNK        -0.5000 
     52 CA          2.6510  -13.1078  -43.3834 C.3       4 UNK         0.1400 
     53 CB          3.8230  -13.5188  -44.2906 C.3       4 UNK        -0.1800 
     54 N           2.3712  -11.6805  -43.5627 N.am      4 UNK        -0.5000 
     55 C           1.8643  -10.8744  -42.6179 C.2       3 UNK         0.5000 
     56 O           1.5330  -11.2758  -41.5013 O.2       3 UNK        -0.5000 
     57 CA          1.6819   -9.3829  -42.9593 C.3       3 UNK         0.1400 
     58 CB          2.8530   -8.5600  -42.4008 C.3       3 UNK        -0.1800 
     59 N           1.5634   -9.1220  -44.3927 N.am      3 UNK        -0.5000 
     60 C           0.4838   -9.3994  -45.1345 C.2       2 UNK         0.5000 
     61 O          -0.5522   -9.8846  -44.6778 O.2       2 UNK        -0.5000 
     62 CA          0.5704   -9.0905  -46.6441 C.3       2 UNK         0.1400 
     63 CB          1.7179   -8.1284  -47.0279 C.3       2 UNK        -0.1800 
     64 N           0.6438  -10.3155  -47.4444 N.am      2 UNK        -0.5000 
     65 C           1.5505  -11.3009  -47.3444 C.2       1 UNK         0.5000 
     66 O           2.4883  -11.2836  -46.5440 O.2       1 UNK        -0.5000 
     67 C          -1.5406  -23.3890  -47.6804 C.2       11 UNK         0.5000 
     68 O          -1.6870  -24.3838  -48.3915 O.2       11 UNK        -0.5000 
     69 N          -2.5617  -22.6795  -47.1803 N.am      12 UNK        -0.5000 
     70 CA         -3.9745  -23.0143  -47.3613 C.3       12 UNK         0.1400 
     71 CB         -4.8548  -21.8854  -46.8049 C.3       12 UNK        -0.1800 
     72 C          -4.3563  -24.3655  -46.7302 C.2       12 UNK         0.5000 
     73 O          -5.1379  -25.1077  -47.3236 O.2       12 UNK        -0.5000 
     74 N          -3.7842  -24.6688  -45.5586 N.am      13 UNK        -0.5000 
     75 CA         -3.9743  -25.9368  -44.8602 C.3       13 UNK         0.1400 
     76 CB         -3.5521  -25.7786  -43.3909 C.3       13 UNK        -0.1800 
     77 C          -3.2147  -27.0992  -45.5254 C.2       13 UNK         0.5000 
     78 O          -3.7984  -28.1643  -45.7305 O.2       13 UNK        -0.5000 
     79 N          -1.9244  -26.8891  -45.8182 N.am      14 UNK        -0.5000 
     80 CA         -1.0098  -27.9377  -46.2671 C.3       14 UNK         0.1400 
     81 CB          0.4362  -27.5250  -45.9483 C.3       14 UNK        -0.1800 
     82 C          -1.1473  -28.2842  -47.7580 C.2       14 UNK         0.5000 
     83 O          -1.1820  -29.4681  -48.0975 O.2       14 UNK        -0.5000 
     84 N          -1.1778  -27.2589  -48.6183 N.am      15 UNK        -0.5000 
     85 CA         -1.0735  -27.4067  -50.0732 C.3       15 UNK         0.1400 
     86 CB          0.1469  -26.6005  -50.5512 C.3       15 UNK        -0.1800 
     87 C          -2.3313  -26.9386  -50.8215 C.2       15 UNK         0.5000 
     88 O          -2.5085  -27.3150  -51.9800 O.2       15 UNK        -0.5000 
     89 N          -3.1461  -26.0931  -50.1738 N.am      16 UNK        -0.5000 
     90 CA         -4.2847  -25.3460  -50.7246 C.3       16 UNK         0.1400 
     91 CB         -5.3685  -26.2818  -51.2976 C.3       16 UNK        -0.1800 
     92 C          -3.8685  -24.2409  -51.7197 C.2       16 UNK         0.5000 
     93 O          -4.7304  -23.6740  -52.3908 O.2       16 UNK        -0.5000 
     94 N          -2.5680  -23.9167  -51.7776 N.am      17 UNK        -0.5000 
     95 CA         -1.9872  -22.9436  -52.7039 C.3       17 UNK         0.1400 
     96 CB         -0.4547  -23.0040  -52.6196 C.3       17 UNK        -0.1800 
     97 C          -2.4952  -21.5161  -52.4535 C.2       17 UNK         0.5000 
     98 O          -2.8879  -20.8349  -53.3983 O.2       17 UNK        -0.5000 
     99 N          -2.5314  -21.1122  -51.1772 N.am      18 UNK        -0.5000 
    100 CA        -3.0505  -19.8135  -50.7467 C.3       18 UNK         0.1400 
    101 CB        -2.5172  -19.4920  -49.3490 C.3       18 UNK        -0.1800 
    102 C         -4.5871  -19.7379  -50.7870 C.2       18 UNK         0.5000 
    103 O         -5.1258  -18.6492  -50.9807 O.2       18 UNK        -0.5000 
    104 N         -5.2667  -20.8878  -50.6605 N.am      19 UNK        -0.5000 
    105 CA        -6.7189  -21.0065  -50.8277 C.3       19 UNK         0.1400 
    106 CB        -7.1991  -22.3559  -50.2708 C.3       19 UNK        -0.1800 
    107 C         -7.1381  -20.8258  -52.3004 C.2       19 UNK         0.5000 
    108 O         -8.1510  -20.1828  -52.5752 O.2       19 UNK        -0.5000 
    109 N         -6.3106  -21.3431  -53.2187 N.am      20 UNK        -0.5000 
    110 CA        -6.3969  -21.1301  -54.6652 C.3       20 UNK         0.1400 
    111 CB        -5.6659  -22.2873  -55.3658 C.3       20 UNK        -0.1800 
    112 C         -5.8166  -19.7712  -55.1186 C.2       20 UNK         0.5000 
    113 O         -5.8444  -19.4748  -56.3148 O.2       20 UNK        -0.5000 
    114 N         -5.2662  -18.9903  -54.1750 N.am      21 UNK        -0.5000 
    115 CA        -4.6074  -17.6895  -54.3452 C.3       21 UNK         0.1400 
    116 CB        -5.6463  -16.6106  -54.7122 C.3       21 UNK        -0.1800 
    117 C         -3.4119  -17.7258  -55.3228 C.2       21 UNK         0.5000 
    118 O         -3.1267  -16.7253  -55.9830 O.2       21 UNK        -0.5000 
    119 N         -2.7471  -18.8869  -55.4062 N.am      22 UNK        -0.5000 
    120 CA        -1.6699  -19.2200  -56.3513 C.3       22 UNK         0.1400 
    121 C         -2.0991  -19.1809  -57.8537 C.2       22 UNK         0.5000 
    122 N         -3.3863  -19.2484  -58.1787 N.am      22 UNK        -0.7600 
    123 O         -1.2574  -19.1282  -58.7466 O.2       22 UNK        -0.5000 
    124 C124       -0.3554  -18.4423  -56.0490 C.3       23 UNK        -0.0398 
    125 S125        0.5171  -19.0856  -54.5783 S.3       23 UNK        -0.2404 
    126 C126       -0.2718  -18.1627  -53.2152 C.3       23 UNK        -0.0205 
    127 H127       -3.1027  -12.7695  -47.8793 H         1 UNK         0.0600 
    128 H128       -2.6509  -14.4554  -48.1517 H         1 UNK         0.0600 
    129 H129       -2.4008  -13.2581  -49.4247 H         1 UNK         0.0600 
    130 H130       -0.2697  -12.6801  -49.6201 H         1 UNK         0.3000 
    131 H131        1.8250  -12.1352  -49.2554 H         1 UNK         0.0600 
    132 H132        1.7386  -14.2104  -47.0036 H         1 UNK         0.0800 
    133 H133        3.1980  -13.4874  -47.6297 H         1 UNK         0.0800 
    134 H134        1.2656  -16.5434  -47.7378 H         1 UNK         0.0800 
    135 H135        0.0817  -15.7357  -48.7452 H         1 UNK         0.0800 
    136 H136       -0.0793  -16.3443  -51.2151 H         1 UNK         0.1150 
    137 H137        1.0431  -20.3716  -52.1733 H         1 UNK         0.1150 
    138 H138        2.2230  -18.6475  -48.4356 H         1 UNK         0.1150 
    139 H139        2.1852  -21.7376  -50.6279 H         1 UNK         0.0800 
    140 H140        3.5131  -20.7677  -50.0416 H         1 UNK         0.0800 
    141 H141        0.0499  -22.0192  -49.2992 H         1 UNK         0.0800 
    142 H142       -0.1499  -20.8587  -48.0059 H         1 UNK         0.0800 
    143 H143        0.5355  -23.7919  -47.4845 H         1 UNK         0.0600 
    144 H144        0.2821  -21.5972  -45.7154 H         1 UNK         0.3000 
    145 H145       -0.5185  -23.5345  -42.7703 H         1 UNK         0.0600 
    146 H146        1.4319  -22.2089  -42.0212 H         1 UNK         0.0600 
    147 H147        1.9469  -23.4799  -43.1199 H         1 UNK         0.0600 
    148 H148        1.8484  -21.8188  -43.6876 H         1 UNK         0.0600 
    149 H149       -0.3454  -20.7236  -43.1151 H         1 UNK         0.3000 
    150 H150       -3.8152  -20.1472  -43.8617 H         1 UNK         0.0600 
    151 H151       -3.5952  -20.3361  -41.3823 H         1 UNK         0.0600 
    152 H152       -3.5119  -18.6599  -41.9039 H         1 UNK         0.0600 
    153 H153       -2.0410  -19.5145  -41.4448 H         1 UNK         0.0600 
    154 H154       -1.7250  -18.2820  -43.6303 H         1 UNK         0.3000 
    155 H155       -0.5540  -18.4196  -47.0437 H         1 UNK         0.0600 
    156 H156       -2.0935  -16.4015  -45.3258 H         1 UNK         0.0600 
    157 H157       -2.4348  -16.8601  -46.9866 H         1 UNK         0.0600 
    158 H158       -0.9701  -15.9665  -46.6040 H         1 UNK         0.0600 
    159 H159        0.4274  -16.9518  -44.8187 H         1 UNK         0.3000 
    160 H160        2.7495  -19.3942  -43.6092 H         1 UNK         0.0600 
    161 H161        3.1056  -16.7622  -45.1413 H         1 UNK         0.0600 
    162 H162        3.9373  -18.2768  -45.4422 H         1 UNK         0.0600 
    163 H163        4.2385  -17.4002  -43.9495 H         1 UNK         0.0600 
    164 H164        1.9393  -16.7078  -42.8662 H         1 UNK         0.3000 
    165 H165       -0.4995  -17.7304  -40.4705 H         1 UNK         0.0600 
    166 H166        0.9636  -16.4831  -38.9039 H         1 UNK         0.0600 
    167 H167        1.6507  -18.0635  -39.2425 H         1 UNK         0.0600 
    168 H168        2.3281  -16.6333  -40.0119 H         1 UNK         0.0600 
    169 H169        0.6496  -15.1902  -41.1230 H         1 UNK         0.3000 
    170 H170       -1.2931  -14.4268  -43.9556 H         1 UNK         0.0600 
    171 H171       -2.9944  -13.9980  -42.1729 H         1 UNK         0.0600 
    172 H172       -1.7420  -13.3504  -41.1185 H         1 UNK         0.0600 
    173 H173       -2.1526  -12.5226  -42.6215 H         1 UNK         0.0600 
    174 H174        0.3665  -12.7910  -42.3204 H         1 UNK         0.3000 
    175 H175        2.9779  -13.2728  -42.3546 H         1 UNK         0.0600 
    176 H176        3.5698  -13.4198  -45.3438 H         1 UNK         0.0600 
    177 H177        4.7038  -12.9059  -44.0992 H         1 UNK         0.0600 
    178 H178        4.1078  -14.5572  -44.1179 H         1 UNK         0.0600 
    179 H179        2.5366  -11.3078  -44.4925 H         1 UNK         0.3000 
    180 H180        0.7657   -9.0444  -42.4706 H         1 UNK         0.0600 
    181 H181        3.8003   -8.8437  -42.8614 H         1 UNK         0.0600 
    182 H182        2.9549   -8.7054  -41.3244 H         1 UNK         0.0600 
    183 H183        2.7025   -7.4936  -42.5700 H         1 UNK         0.0600 
    184 H184        2.3797   -8.7486  -44.8551 H         1 UNK         0.3000 
    185 H185       -0.3685   -8.6016  -46.9082 H         1 UNK         0.0600 
    186 H186        1.6569   -7.1978  -46.4620 H         1 UNK         0.0600 
    187 H187        2.7028   -8.5624  -46.8525 H         1 UNK         0.0600 
    188 H188        1.6623   -7.8631  -48.0837 H         1 UNK         0.0600 
    189 H189       -0.1080  -10.4469  -48.1060 H         1 UNK         0.3000 
    190 H190       -2.3629  -21.8390  -46.6400 H         1 UNK         0.3000 
    191 H191       -4.1614  -23.0827  -48.4335 H         1 UNK         0.0600 
    192 H192       -4.6781  -20.9475  -47.3308 H         1 UNK         0.0600 
    193 H193       -5.9136  -22.1226  -46.9146 H         1 UNK         0.0600 
    194 H194       -4.6652  -21.7147  -45.7450 H         1 UNK         0.0600 
    195 H195       -3.1890  -23.9818  -45.1084 H         1 UNK         0.3000 
    196 H196       -5.0385  -26.1821  -44.8755 H         1 UNK         0.0600 
    197 H197       -3.6875  -26.7111  -42.8417 H         1 UNK         0.0600 
    198 H198       -4.1500  -25.0163  -42.8909 H         1 UNK         0.0600 
    199 H199       -2.5041  -25.4909  -43.2992 H         1 UNK         0.0600 
    200 H200       -1.5049  -25.9893  -45.5917 H         1 UNK         0.3000 
    201 H201       -1.2227  -28.8449  -45.6971 H         1 UNK         0.0600 
    202 H202        0.5687  -27.3475  -44.8809 H         1 UNK         0.0600 
    203 H203        0.7224  -26.6141  -46.4758 H         1 UNK         0.0600 
    204 H204        1.1395  -28.3068  -46.2379 H         1 UNK         0.0600 
    205 H205       -1.1844  -26.3099  -48.2600 H         1 UNK         0.3000 
    206 H206       -0.9130  -28.4510  -50.3488 H         1 UNK         0.0600 
    207 H207        1.0645  -26.9720  -50.0948 H         1 UNK         0.0600 
    208 H208        0.2704  -26.6756  -51.6325 H         1 UNK         0.0600 
    209 H209        0.0566  -25.5423  -50.3029 H         1 UNK         0.0600 
    210 H210       -2.8625  -25.8071  -49.2438 H         1 UNK         0.3000 
    211 H211       -4.7356  -24.8233  -49.8838 H         1 UNK         0.0600 
    212 H212       -5.0474  -26.7655  -52.2201 H         1 UNK         0.0600 
    213 H213       -6.2795  -25.7273  -51.5259 H         1 UNK         0.0600 
    214 H214       -5.6351  -27.0598  -50.5824 H         1 UNK         0.0600 
    215 H215       -1.9305  -24.4138  -51.1741 H         1 UNK         0.3000 
    216 H216       -2.2841  -23.2265  -53.7161 H         1 UNK         0.0600 
    217 H217        0.0006  -22.3018  -53.3195 H         1 UNK         0.0600 
    218 H218       -0.0859  -23.9979  -52.8740 H         1 UNK         0.0600 
    219 H219       -0.0910  -22.7581  -51.6220 H         1 UNK         0.0600 
    220 H220       -2.2068  -21.7410  -50.4598 H         1 UNK         0.3000 
    221 H221       -2.6785  -19.0441  -51.4238 H         1 UNK         0.0600 
    222 H222       -2.7749  -20.2807  -48.6462 H         1 UNK         0.0600 
    223 H223       -1.4332  -19.3827  -49.3588 H         1 UNK         0.0600 
    224 H224       -2.9328  -18.5582  -48.9684 H         1 UNK         0.0600 
    225 H225       -4.7483  -21.7452  -50.5561 H         1 UNK         0.3000 
    226 H226       -7.1948  -20.2145  -50.2453 H         1 UNK         0.0600 
    227 H227       -6.9128  -22.4785  -49.2264 H         1 UNK         0.0600 
    228 H228       -8.2863  -22.4280  -50.3192 H         1 UNK         0.0600 
    229 H229       -6.7945  -23.1979  -50.8310 H         1 UNK         0.0600 
    230 H230       -5.5444  -21.9303  -52.9038 H         1 UNK         0.3000 
    231 H231       -7.4464  -21.1544  -54.9648 H         1 UNK         0.0600 
    232 H232       -6.0874  -23.2509  -55.0788 H         1 UNK         0.0600 
    233 H233       -4.6043  -22.3005  -55.1156 H         1 UNK         0.0600 
    234 H234       -5.7476  -22.2076  -56.4505 H         1 UNK         0.0600 
    235 H235       -5.2795  -19.3409  -53.2279 H         1 UNK         0.3000 
    236 H236       -4.1900  -17.4296  -53.3717 H         1 UNK         0.0600 
    237 H237       -5.1991  -15.6160  -54.7074 H         1 UNK         0.0600 
    238 H238       -6.0670  -16.7764  -55.7045 H         1 UNK         0.0600 
    239 H239       -6.4687  -16.5977  -53.9969 H         1 UNK         0.0600 
    240 H240       -3.0111  -19.6391  -54.7729 H         1 UNK         0.3000 
    241 H241       -1.4632  -20.2771  -56.1810 H         1 UNK         0.0600 
    242 H242       -4.1057  -19.2963  -57.4661 H         1 UNK         0.3800 
    243 H243       -3.6507  -19.2354  -59.1509 H         1 UNK         0.3800 
    244 H244       -0.5368  -17.3726  -55.9426 H         1 UNK         0.0800 
    245 H245        0.3518  -18.5379  -56.8737 H         1 UNK         0.0800 
    246 H246       -1.3069  -18.4844  -53.1264 H         1 UNK         0.0800 
    247 H247       -0.2939  -17.1056  -53.4840 H         1 UNK         0.0800 
@<TRIPOS>BOND
     1    1    2 1    
     2    1  127 1    
     3    1  128 1    
     4    1  129 1    
     5    2    3 2    
     6    2    4 am   BACKBONE|DICT|INTERRES
     7    4    5 1    
     8    4  130 1    
     9    5    6 1    
    10    5   65 1    
    11    5  131 1    
    12    6    7 1    
    13    6  132 1    
    14    6  133 1    
    15    7    8 1    
    16    8    9 1    
    17    8  134 1    
    18    8  135 1    
    19    9   10 ar   
    20    9   14 ar   
    21   10   11 ar   
    22   10  136 1    
    23   11   12 ar   
    24   11  126 1    
    25   12   13 ar   
    26   12  137 1    
    27   13   14 ar   
    28   13   15 1    
    29   14  138 1    
    30   15   16 1    
    31   15  139 1    
    32   15  140 1    
    33   16   17 1    
    34   17   18 1    
    35   17  141 1    
    36   17  142 1    
    37   18   19 1    
    38   18   67 1    
    39   18  143 1    
    40   19   20 am   BACKBONE|DICT|INTERRES
    41   19  144 1    
    42   20   21 2    
    43   20   22 1    
    44   22   23 1    
    45   22   24 1    
    46   22  145 1    
    47   23  146 1    
    48   23  147 1    
    49   23  148 1    
    50   24   25 am   BACKBONE|DICT|INTERRES
    51   24  149 1    
    52   25   26 2    
    53   25   27 1    
    54   27   28 1    
    55   27   29 1    
    56   27  150 1    
    57   28  151 1    
    58   28  152 1    
    59   28  153 1    
    60   29   30 am   BACKBONE|DICT|INTERRES
    61   29  154 1    
    62   30   31 2    
    63   30   32 1    
    64   32   33 1    
    65   32   34 1    
    66   32  155 1    
    67   33  156 1    
    68   33  157 1    
    69   33  158 1    
    70   34   35 am   BACKBONE|DICT|INTERRES
    71   34  159 1    
    72   35   36 2    
    73   35   37 1    
    74   37   38 1    
    75   37   39 1    
    76   37  160 1    
    77   38  161 1    
    78   38  162 1    
    79   38  163 1    
    80   39   40 am   BACKBONE|DICT|INTERRES
    81   39  164 1    
    82   40   41 2    
    83   40   42 1    
    84   42   43 1    
    85   42   44 1    
    86   42  165 1    
    87   43  166 1    
    88   43  167 1    
    89   43  168 1    
    90   44   45 am   BACKBONE|DICT|INTERRES
    91   44  169 1    
    92   45   46 2    
    93   45   47 1    
    94   47   48 1    
    95   47   49 1    
    96   47  170 1    
    97   48  171 1    
    98   48  172 1    
    99   48  173 1    
   100   49   50 am   BACKBONE|DICT|INTERRES
   101   49  174 1    
   102   50   51 2    
   103   50   52 1    
   104   52   53 1    
   105   52   54 1    
   106   52  175 1    
   107   53  176 1    
   108   53  177 1    
   109   53  178 1    
   110   54   55 am   BACKBONE|DICT|INTERRES
   111   54  179 1    
   112   55   56 2    
   113   55   57 1    
   114   57   58 1    
   115   57   59 1    
   116   57  180 1    
   117   58  181 1    
   118   58  182 1    
   119   58  183 1    
   120   59   60 am   BACKBONE|DICT|INTERRES
   121   59  184 1    
   122   60   61 2    
   123   60   62 1    
   124   62   63 1    
   125   62   64 1    
   126   62  185 1    
   127   63  186 1    
   128   63  187 1    
   129   63  188 1    
   130   64   65 am   BACKBONE|DICT|INTERRES
   131   64  189 1    
   132   65   66 2    
   133   67   68 2    
   134   67   69 am   BACKBONE|DICT|INTERRES
   135   69   70 1    
   136   69  190 1    
   137   70   71 1    
   138   70   72 1    
   139   70  191 1    
   140   71  192 1    
   141   71  193 1    
   142   71  194 1    
   143   72   73 2    
   144   72   74 am   BACKBONE|DICT|INTERRES
   145   74   75 1    
   146   74  195 1    
   147   75   76 1    
   148   75   77 1    
   149   75  196 1    
   150   76  197 1    
   151   76  198 1    
   152   76  199 1    
   153   77   78 2    
   154   77   79 am   BACKBONE|DICT|INTERRES
   155   79   80 1    
   156   79  200 1    
   157   80   81 1    
   158   80   82 1    
   159   80  201 1    
   160   81  202 1    
   161   81  203 1    
   162   81  204 1    
   163   82   83 2    
   164   82   84 am   BACKBONE|DICT|INTERRES
   165   84   85 1    
   166   84  205 1    
   167   85   86 1    
   168   85   87 1    
   169   85  206 1    
   170   86  207 1    
   171   86  208 1    
   172   86  209 1    
   173   87   88 2    
   174   87   89 am   BACKBONE|DICT|INTERRES
   175   89   90 1    
   176   89  210 1    
   177   90   91 1    
   178   90   92 1    
   179   90  211 1    
   180   91  212 1    
   181   91  213 1    
   182   91  214 1    
   183   92   93 2    
   184   92   94 am   BACKBONE|DICT|INTERRES
   185   94   95 1    
   186   94  215 1    
   187   95   96 1    
   188   95   97 1    
   189   95  216 1    
   190   96  217 1    
   191   96  218 1    
   192   96  219 1    
   193   97   98 2    
   194   97   99 am   BACKBONE|DICT|INTERRES
   195   99  100 1    
   196   99  220 1    
   197  100  101 1    
   198  100  102 1    
   199  100  221 1    
   200  101  222 1    
   201  101  223 1    
   202  101  224 1    
   203  102  103 2    
   204  102  104 am   BACKBONE|DICT|INTERRES
   205  104  105 1    
   206  104  225 1    
   207  105  106 1    
   208  105  107 1    
   209  105  226 1    
   210  106  227 1    
   211  106  228 1    
   212  106  229 1    
   213  107  108 2    
   214  107  109 am   BACKBONE|DICT|INTERRES
   215  109  110 1    
   216  109  230 1    
   217  110  111 1    
   218  110  112 1    
   219  110  231 1    
   220  111  232 1    
   221  111  233 1    
   222  111  234 1    
   223  112  113 2    
   224  112  114 am   BACKBONE|DICT|INTERRES
   225  114  115 1    
   226  114  235 1    
   227  115  116 1    
   228  115  117 1    
   229  115  236 1    
   230  116  237 1    
   231  116  238 1    
   232  116  239 1    
   233  117  118 2    
   234  117  119 am   BACKBONE|DICT|INTERRES
   235  119  120 1    
   236  119  240 1    
   237  120  121 1    
   238  120  124 1    
   239  120  241 1    
   240  121  122 am   BACKBONE|DICT|INTERRES
   241  121  123 2    
   242  122  242 1    
   243  122  243 1    
   244  124  125 1    
   245  124  244 1    
   246  124  245 1    
   247  125  126 1    
   248  126  246 1    
   249  126  247 1    
@<TRIPOS>SUBSTRUCTURE
     1 UNK         1 GROUP             0       ****    0 ROOT    
