@<TRIPOS>MOLECULE
3R540
247   249    1
SMALL
USER_CHARGES


@<TRIPOS>ATOM
      1 CA         -4.5745  -16.3165  -50.7341 C.3       0 UNK        -0.1800 
      2 C          -3.5644  -15.7763  -49.7329 C.2       0 UNK         0.5000 
      3 O          -3.5384  -16.2246  -48.5874 O.2       0 UNK        -0.5000 
      4 N          -2.7470  -14.8028  -50.1557 N.am      1 UNK        -0.5000 
      5 CA         -1.6299  -14.1649  -49.4340 C.3       1 UNK         0.1400 
      6 C6         -0.5348  -15.1542  -48.9514 C.3       23 UNK        -0.0398 
      7 S7          0.1346  -16.1497  -50.3199 S.3       23 UNK        -0.2404 
      8 C8          1.4050  -17.1225  -49.4580 C.3       23 UNK        -0.0205 
      9 C9          1.8800  -18.2743  -50.3289 C.ar      23 UNK        -0.0193 
     10 C10         2.6297  -18.0224  -51.4803 C.ar      23 UNK        -0.1150 
     11 C11         3.0078  -19.0688  -52.3265 C.ar      23 UNK        -0.0193 
     12 C12         2.6901  -20.3833  -51.9768 C.ar      23 UNK        -0.1150 
     13 C13         1.9389  -20.6494  -50.8290 C.ar      23 UNK        -0.0193 
     14 C14         1.5287  -19.5890  -50.0145 C.ar      23 UNK        -0.1150 
     15 C15         1.4971  -22.0730  -50.5274 C.3       23 UNK        -0.0205 
     16 S16         2.6142  -22.9564  -49.3886 S.3       23 UNK        -0.2404 
     17 C17         2.3262  -22.1458  -47.7769 C.3       23 UNK        -0.0398 
     18 CA          1.1648  -22.7618  -46.9585 C.3       11 UNK         0.1400 
     19 N           1.2749  -22.4454  -45.5352 N.am      11 UNK        -0.5000 
     20 C           0.5244  -22.9883  -44.5667 C.2       10 UNK         0.5000 
     21 O          -0.3215  -23.8615  -44.7620 O.2       10 UNK        -0.5000 
     22 CA          0.7142  -22.4146  -43.1504 C.3       10 UNK         0.1400 
     23 CB          1.9873  -22.9698  -42.4950 C.3       10 UNK        -0.1800 
     24 N           0.7553  -20.9512  -43.1444 N.am      10 UNK        -0.5000 
     25 C          -0.2607  -20.1667  -43.5329 C.2       9 UNK         0.5000 
     26 O          -1.3538  -20.5908  -43.9043 O.2       9 UNK        -0.5000 
     27 CA          0.0034  -18.6549  -43.5498 C.3       9 UNK         0.1400 
     28 CB         -0.1550  -18.0659  -42.1428 C.3       9 UNK        -0.1800 
     29 N           1.3292  -18.3357  -44.0794 N.am      9 UNK        -0.5000 
     30 C           1.6851  -18.5084  -45.3611 C.2       8 UNK         0.5000 
     31 O           0.9314  -18.9437  -46.2307 O.2       8 UNK        -0.5000 
     32 CA          3.1455  -18.1897  -45.7228 C.3       8 UNK         0.1400 
     33 CB          3.3527  -16.6747  -45.8667 C.3       8 UNK        -0.1800 
     34 N           4.0934  -18.7251  -44.7454 N.am      8 UNK        -0.5000 
     35 C           4.2484  -20.0293  -44.4765 C.2       7 UNK         0.5000 
     36 O           3.6333  -20.9237  -45.0538 O.2       7 UNK        -0.5000 
     37 CA          5.2213  -20.4012  -43.3448 C.3       7 UNK         0.1400 
     38 CB          6.6341  -20.6247  -43.9040 C.3       7 UNK        -0.1800 
     39 N           5.2801  -19.4163  -42.2630 N.am      7 UNK        -0.5000 
     40 C           4.2480  -19.0375  -41.4965 C.2       6 UNK         0.5000 
     41 O           3.0959  -19.4547  -41.6498 O.2       6 UNK        -0.5000 
     42 CA          4.5881  -18.0612  -40.3511 C.3       6 UNK         0.1400 
     43 CB          5.5605  -16.9392  -40.7821 C.3       6 UNK        -0.1800 
     44 N           3.4036  -17.5048  -39.6908 N.am      6 UNK        -0.5000 
     45 C           2.5202  -16.6289  -40.1880 C.2       5 UNK         0.5000 
     46 O           2.5725  -16.1489  -41.3247 O.2       5 UNK        -0.5000 
     47 CA          1.3946  -16.2112  -39.2272 C.3       5 UNK         0.1400 
     48 CB          1.9576  -15.5578  -37.9467 C.3       5 UNK        -0.1800 
     49 N           0.4926  -15.2783  -39.8955 N.am      5 UNK        -0.5000 
     50 C          -0.7571  -14.9967  -39.5088 C.2       4 UNK         0.5000 
     51 O          -1.3170  -15.5502  -38.5613 O.2       4 UNK        -0.5000 
     52 CA         -1.5082  -13.8978  -40.2830 C.3       4 UNK         0.1400 
     53 CB         -1.4726  -12.5777  -39.4963 C.3       4 UNK        -0.1800 
     54 N          -0.9650  -13.6592  -41.6215 N.am      4 UNK        -0.5000 
     55 C          -1.3294  -14.3450  -42.7101 C.2       3 UNK         0.5000 
     56 O          -2.1316  -15.2814  -42.6983 O.2       3 UNK        -0.5000 
     57 CA         -0.6890  -13.9100  -44.0395 C.3       3 UNK         0.1400 
     58 CB          0.3960  -14.9036  -44.4808 C.3       3 UNK        -0.1800 
     59 N          -1.6963  -13.8105  -45.0917 N.am      3 UNK        -0.5000 
     60 C          -2.6354  -12.8576  -45.1707 C.2       2 UNK         0.5000 
     61 O          -2.7144  -11.9145  -44.3809 O.2       2 UNK        -0.5000 
     62 CA         -3.6501  -12.9900  -46.3286 C.3       2 UNK         0.1400 
     63 CB         -4.3139  -11.6491  -46.7062 C.3       2 UNK        -0.1800 
     64 N          -3.0897  -13.6501  -47.5144 N.am      2 UNK        -0.5000 
     65 C          -2.0679  -13.2386  -48.2787 C.2       1 UNK         0.5000 
     66 O          -1.4657  -12.1786  -48.1043 O.2       1 UNK        -0.5000 
     67 C          -0.2162  -22.3627  -47.5149 C.2       11 UNK         0.5000 
     68 O          -0.8545  -23.1827  -48.1725 O.2       11 UNK        -0.5000 
     69 N          -0.6749  -21.1353  -47.2244 N.am      12 UNK        -0.5000 
     70 CA         -1.9792  -20.6264  -47.6561 C.3       12 UNK         0.1400 
     71 CB         -2.1136  -19.1416  -47.2932 C.3       12 UNK        -0.1800 
     72 C          -3.1621  -21.4407  -47.1027 C.2       12 UNK         0.5000 
     73 O          -4.1138  -21.6940  -47.8415 O.2       12 UNK        -0.5000 
     74 N          -3.0624  -21.8768  -45.8393 N.am      13 UNK        -0.5000 
     75 CA         -4.0175  -22.7766  -45.1944 C.3       13 UNK         0.1400 
     76 CB         -3.7103  -22.8735  -43.6927 C.3       13 UNK        -0.1800 
     77 C          -4.0406  -24.1730  -45.8414 C.2       13 UNK         0.5000 
     78 O          -5.1245  -24.6999  -46.0921 O.2       13 UNK        -0.5000 
     79 N          -2.8566  -24.7291  -46.1388 N.am      14 UNK        -0.5000 
     80 CA         -2.6914  -26.0125  -46.8285 C.3       14 UNK         0.1400 
     81 CB         -1.2160  -26.4380  -46.7805 C.3       14 UNK        -0.1800 
     82 C          -3.2090  -25.9856  -48.2803 C.2       14 UNK         0.5000 
     83 O          -3.8219  -26.9558  -48.7268 O.2       14 UNK        -0.5000 
     84 N          -2.9871  -24.8617  -48.9747 N.am      15 UNK        -0.5000 
     85 CA         -3.5008  -24.5786  -50.3169 C.3       15 UNK         0.1400 
     86 CB         -2.7196  -23.3906  -50.9046 C.3       15 UNK        -0.1800 
     87 C          -5.0150  -24.2834  -50.3476 C.2       15 UNK         0.5000 
     88 O          -5.6029  -24.2953  -51.4294 O.2       15 UNK        -0.5000 
     89 N          -5.6063  -24.0018  -49.1756 N.am      16 UNK        -0.5000 
     90 CA         -6.9868  -23.5626  -48.9464 C.3       16 UNK         0.1400 
     91 CB         -7.9879  -24.6818  -49.2996 C.3       16 UNK        -0.1800 
     92 C          -7.2941  -22.2228  -49.6484 C.2       16 UNK         0.5000 
     93 O          -8.3774  -22.0482  -50.2109 O.2       16 UNK        -0.5000 
     94 N          -6.3085  -21.3134  -49.6182 N.am      17 UNK        -0.5000 
     95 CA         -6.2240  -20.0010  -50.2682 C.3       17 UNK         0.1400 
     96 CB         -7.3112  -19.0406  -49.7509 C.3       17 UNK        -0.1800 
     97 C          -6.2027  -20.0542  -51.8093 C.2       17 UNK         0.5000 
     98 O          -5.2958  -19.4816  -52.4121 O.2       17 UNK        -0.5000 
     99 N          -7.1857  -20.7404  -52.4094 N.am      18 UNK        -0.5000 
    100 CA        -7.4217  -20.9044  -53.8478 C.3       18 UNK         0.1400 
    101 CB        -6.3051  -21.7734  -54.4694 C.3       18 UNK        -0.1800 
    102 C         -7.6279  -19.5546  -54.5759 C.2       18 UNK         0.5000 
    103 O         -8.0324  -18.5719  -53.9484 O.2       18 UNK        -0.5000 
    104 N         -7.3637  -19.5223  -55.8902 N.am      19 UNK        -0.5000 
    105 CA        -7.2920  -18.2873  -56.6794 C.3       19 UNK         0.1400 
    106 CB        -7.3409  -18.6324  -58.1759 C.3       19 UNK        -0.1800 
    107 C         -6.0205  -17.4829  -56.3430 C.2       19 UNK         0.5000 
    108 O         -6.0659  -16.2545  -56.2703 O.2       19 UNK        -0.5000 
    109 N         -4.9251  -18.2097  -56.1037 N.am      20 UNK        -0.5000 
    110 CA        -3.6631  -17.7413  -55.5556 C.3       20 UNK         0.1400 
    111 CB        -2.7850  -17.1255  -56.6582 C.3       20 UNK        -0.1800 
    112 C         -2.9963  -18.9700  -54.9290 C.2       20 UNK         0.5000 
    113 O         -3.0138  -20.0422  -55.5423 O.2       20 UNK        -0.5000 
    114 N         -2.4247  -18.8072  -53.7304 N.am      21 UNK        -0.5000 
    115 CA        -1.8834  -19.9083  -52.9278 C.3       21 UNK         0.1400 
    116 CB        -1.5658  -19.3992  -51.5171 C.3       21 UNK        -0.1800 
    117 C         -0.6596  -20.6024  -53.5565 C.2       21 UNK         0.5000 
    118 O         -0.4168  -21.7722  -53.2597 O.2       21 UNK        -0.5000 
    119 N          0.0577  -19.8931  -54.4398 N.am      22 UNK        -0.5000 
    120 CA         1.1494  -20.4443  -55.2582 C.3       22 UNK         0.1400 
    121 C          0.6869  -21.4589  -56.3492 C.2       22 UNK         0.5000 
    122 N         -0.6002  -21.5763  -56.6603 N.am      22 UNK        -0.7600 
    123 O          1.5173  -22.1550  -56.9271 O.2       22 UNK        -0.5000 
    124 C124        2.0435  -19.3477  -55.9006 C.3       23 UNK        -0.0398 
    125 S125        2.5587  -17.9718  -54.8133 S.3       23 UNK        -0.2404 
    126 C126        3.7101  -18.7612  -53.6395 C.3       23 UNK        -0.0205 
    127 H127       -5.5882  -16.1503  -50.3709 H         1 UNK         0.0600 
    128 H128       -4.4283  -17.3875  -50.8670 H         1 UNK         0.0600 
    129 H129       -4.4787  -15.8386  -51.7092 H         1 UNK         0.0600 
    130 H130       -2.8647  -14.4670  -51.1011 H         1 UNK         0.3000 
    131 H131       -1.1627  -13.5101  -50.1717 H         1 UNK         0.0600 
    132 H132       -0.9247  -15.8286  -48.1871 H         1 UNK         0.0800 
    133 H133        0.2943  -14.6124  -48.4920 H         1 UNK         0.0800 
    134 H134        0.9982  -17.4979  -48.5181 H         1 UNK         0.0800 
    135 H135        2.2487  -16.4802  -49.2022 H         1 UNK         0.0800 
    136 H136        2.8716  -17.0032  -51.7476 H         1 UNK         0.1150 
    137 H137        2.9851  -21.1988  -52.6212 H         1 UNK         0.1150 
    138 H138        0.9095  -19.7794  -49.1501 H         1 UNK         0.1150 
    139 H139        0.4747  -22.0712  -50.1555 H         1 UNK         0.0800 
    140 H140        1.4556  -22.6421  -51.4572 H         1 UNK         0.0800 
    141 H141        2.2253  -21.0671  -47.8797 H         1 UNK         0.0800 
    142 H142        3.2562  -22.2871  -47.2259 H         1 UNK         0.0800 
    143 H143        1.2429  -23.8484  -47.0372 H         1 UNK         0.0600 
    144 H144        1.9811  -21.7584  -45.2819 H         1 UNK         0.3000 
    145 H145       -0.1419  -22.7249  -42.5478 H         1 UNK         0.0600 
    146 H146        2.1108  -22.5848  -41.4826 H         1 UNK         0.0600 
    147 H147        1.9468  -24.0576  -42.4283 H         1 UNK         0.0600 
    148 H148        2.8802  -22.7104  -43.0632 H         1 UNK         0.0600 
    149 H149        1.6137  -20.5119  -42.8316 H         1 UNK         0.3000 
    150 H150       -0.7429  -18.1898  -44.1971 H         1 UNK         0.0600 
    151 H151       -1.1691  -18.2141  -41.7698 H         1 UNK         0.0600 
    152 H152        0.0348  -16.9942  -42.1456 H         1 UNK         0.0600 
    153 H153        0.5283  -18.5280  -41.4303 H         1 UNK         0.0600 
    154 H154        2.0227  -18.0276  -43.4114 H         1 UNK         0.3000 
    155 H155        3.3561  -18.6563  -46.6877 H         1 UNK         0.0600 
    156 H156        3.2160  -16.1564  -44.9167 H         1 UNK         0.0600 
    157 H157        2.6447  -16.2485  -46.5786 H         1 UNK         0.0600 
    158 H158        4.3547  -16.4476  -46.2310 H         1 UNK         0.0600 
    159 H159        4.6322  -18.0574  -44.2142 H         1 UNK         0.3000 
    160 H160        4.8752  -21.3416  -42.9121 H         1 UNK         0.0600 
    161 H161        7.0526  -19.7075  -44.3201 H         1 UNK         0.0600 
    162 H162        6.6257  -21.3719  -44.6989 H         1 UNK         0.0600 
    163 H163        7.3130  -20.9841  -43.1305 H         1 UNK         0.0600 
    164 H164        6.1916  -19.0302  -42.0645 H         1 UNK         0.3000 
    165 H165        5.0930  -18.6577  -39.5900 H         1 UNK         0.0600 
    166 H166        5.7097  -16.2184  -39.9779 H         1 UNK         0.0600 
    167 H167        6.5437  -17.3369  -41.0343 H         1 UNK         0.0600 
    168 H168        5.1946  -16.3943  -41.6530 H         1 UNK         0.0600 
    169 H169        3.2370  -17.8605  -38.7602 H         1 UNK         0.3000 
    170 H170        0.8386  -17.1132  -38.9632 H         1 UNK         0.0600 
    171 H171        2.6077  -16.2402  -37.3986 H         1 UNK         0.0600 
    172 H172        2.5390  -14.6645  -38.1784 H         1 UNK         0.0600 
    173 H173        1.1606  -15.2667  -37.2625 H         1 UNK         0.0600 
    174 H174        0.8776  -14.8423  -40.7232 H         1 UNK         0.3000 
    175 H175       -2.5517  -14.2096  -40.3667 H         1 UNK         0.0600 
    176 H176       -0.4535  -12.2093  -39.3723 H         1 UNK         0.0600 
    177 H177       -2.0517  -11.8031  -39.9996 H         1 UNK         0.0600 
    178 H178       -1.8990  -12.7042  -38.5002 H         1 UNK         0.0600 
    179 H179       -0.3068  -12.8985  -41.7118 H         1 UNK         0.3000 
    180 H180       -0.2256  -12.9295  -43.9104 H         1 UNK         0.0600 
    181 H181       -0.0280  -15.8809  -44.7100 H         1 UNK         0.0600 
    182 H182        1.1446  -15.0436  -43.6996 H         1 UNK         0.0600 
    183 H183        0.9158  -14.5490  -45.3709 H         1 UNK         0.0600 
    184 H184       -1.7341  -14.5700  -45.7538 H         1 UNK         0.3000 
    185 H185       -4.4362  -13.6508  -45.9609 H         1 UNK         0.0600 
    186 H186       -4.8629  -11.2328  -45.8609 H         1 UNK         0.0600 
    187 H187       -3.5795  -10.9051  -47.0158 H         1 UNK         0.0600 
    188 H188       -5.0259  -11.7778  -47.5214 H         1 UNK         0.0600 
    189 H189       -3.4803  -14.5619  -47.7427 H         1 UNK         0.3000 
    190 H190       -0.0931  -20.4914  -46.6946 H         1 UNK         0.3000 
    191 H191       -2.0173  -20.7072  -48.7431 H         1 UNK         0.0600 
    192 H192       -2.0124  -18.9784  -46.2202 H         1 UNK         0.0600 
    193 H193       -3.0869  -18.7530  -47.5952 H         1 UNK         0.0600 
    194 H194       -1.3564  -18.5416  -47.7985 H         1 UNK         0.0600 
    195 H195       -2.2749  -21.5701  -45.2742 H         1 UNK         0.3000 
    196 H196       -5.0130  -22.3421  -45.3077 H         1 UNK         0.0600 
    197 H197       -4.4161  -23.5362  -43.1905 H         1 UNK         0.0600 
    198 H198       -3.7832  -21.8972  -43.2131 H         1 UNK         0.0600 
    199 H199       -2.7075  -23.2603  -43.5095 H         1 UNK         0.0600 
    200 H200       -2.0055  -24.2446  -45.8720 H         1 UNK         0.3000 
    201 H201       -3.2746  -26.7585  -46.2849 H         1 UNK         0.0600 
    202 H202       -0.8658  -26.5290  -45.7522 H         1 UNK         0.0600 
    203 H203       -0.5716  -25.7215  -47.2901 H         1 UNK         0.0600 
    204 H204       -1.0733  -27.4070  -47.2602 H         1 UNK         0.0600 
    205 H205       -2.3930  -24.1475  -48.5584 H         1 UNK         0.3000 
    206 H206       -3.3220  -25.4529  -50.9459 H         1 UNK         0.0600 
    207 H207       -1.6497  -23.5976  -50.9407 H         1 UNK         0.0600 
    208 H208       -3.0408  -23.1734  -51.9241 H         1 UNK         0.0600 
    209 H209       -2.8644  -22.4841  -50.3161 H         1 UNK         0.0600 
    210 H210       -5.0193  -24.0090  -48.3518 H         1 UNK         0.3000 
    211 H211       -7.0704  -23.3710  -47.8758 H         1 UNK         0.0600 
    212 H212       -8.0061  -24.8888  -50.3699 H         1 UNK         0.0600 
    213 H213       -9.0006  -24.4065  -49.0033 H         1 UNK         0.0600 
    214 H214       -7.7394  -25.6085  -48.7823 H         1 UNK         0.0600 
    215 H215       -5.4745  -21.5698  -49.0925 H         1 UNK         0.3000 
    216 H216       -5.2604  -19.5923  -49.9593 H         1 UNK         0.0600 
    217 H217       -7.1951  -18.0503  -50.1919 H         1 UNK         0.0600 
    218 H218       -7.2502  -18.9246  -48.6689 H         1 UNK         0.0600 
    219 H219       -8.3155  -19.3862  -49.9960 H         1 UNK         0.0600 
    220 H220       -7.8648  -21.1818  -51.7948 H         1 UNK         0.3000 
    221 H221       -8.3618  -21.4497  -53.9395 H         1 UNK         0.0600 
    222 H222       -5.3527  -21.2438  -54.5084 H         1 UNK         0.0600 
    223 H223       -6.1508  -22.6832  -53.8885 H         1 UNK         0.0600 
    224 H224       -6.5553  -22.0855  -55.4835 H         1 UNK         0.0600 
    225 H225       -7.0767  -20.3736  -56.3505 H         1 UNK         0.3000 
    226 H226       -8.1588  -17.6661  -56.4436 H         1 UNK         0.0600 
    227 H227       -8.2625  -19.1565  -58.4293 H         1 UNK         0.0600 
    228 H228       -7.3039  -17.7281  -58.7847 H         1 UNK         0.0600 
    229 H229       -6.5024  -19.2631  -58.4740 H         1 UNK         0.0600 
    230 H230       -4.9791  -19.2174  -56.1761 H         1 UNK         0.3000 
    231 H231       -3.8603  -16.9990  -54.7791 H         1 UNK         0.0600 
    232 H232       -3.2660  -16.2574  -57.1088 H         1 UNK         0.0600 
    233 H233       -2.5768  -17.8429  -57.4530 H         1 UNK         0.0600 
    234 H234       -1.8278  -16.7941  -56.2540 H         1 UNK         0.0600 
    235 H235       -2.4461  -17.8995  -53.2902 H         1 UNK         0.3000 
    236 H236       -2.6668  -20.6643  -52.8387 H         1 UNK         0.0600 
    237 H237       -1.1819  -20.2062  -50.8936 H         1 UNK         0.0600 
    238 H238       -0.8104  -18.6155  -51.5436 H         1 UNK         0.0600 
    239 H239       -2.4535  -19.0012  -51.0254 H         1 UNK         0.0600 
    240 H240       -0.1981  -18.9337  -54.6160 H         1 UNK         0.3000 
    241 H241        1.7851  -21.0198  -54.5859 H         1 UNK         0.0600 
    242 H242       -0.8769  -22.2395  -57.3665 H         1 UNK         0.3800 
    243 H243       -1.3093  -21.0229  -56.1926 H         1 UNK         0.3800 
    244 H244        2.9437  -19.7980  -56.3230 H         1 UNK         0.0800 
    245 H245        1.5182  -18.8942  -56.7431 H         1 UNK         0.0800 
    246 H246        4.5412  -18.0812  -53.4480 H         1 UNK         0.0800 
    247 H247        4.1434  -19.6611  -54.0785 H         1 UNK         0.0800 
@<TRIPOS>BOND
     1    1    2 1    
     2    1  127 1    
     3    1  128 1    
     4    1  129 1    
     5    2    3 2    
     6    2    4 am   BACKBONE|DICT|INTERRES
     7    4    5 1    
     8    4  130 1    
     9    5    6 1    
    10    5   65 1    
    11    5  131 1    
    12    6    7 1    
    13    6  132 1    
    14    6  133 1    
    15    7    8 1    
    16    8    9 1    
    17    8  134 1    
    18    8  135 1    
    19    9   10 ar   
    20    9   14 ar   
    21   10   11 ar   
    22   10  136 1    
    23   11   12 ar   
    24   11  126 1    
    25   12   13 ar   
    26   12  137 1    
    27   13   14 ar   
    28   13   15 1    
    29   14  138 1    
    30   15   16 1    
    31   15  139 1    
    32   15  140 1    
    33   16   17 1    
    34   17   18 1    
    35   17  141 1    
    36   17  142 1    
    37   18   19 1    
    38   18   67 1    
    39   18  143 1    
    40   19   20 am   BACKBONE|DICT|INTERRES
    41   19  144 1    
    42   20   21 2    
    43   20   22 1    
    44   22   23 1    
    45   22   24 1    
    46   22  145 1    
    47   23  146 1    
    48   23  147 1    
    49   23  148 1    
    50   24   25 am   BACKBONE|DICT|INTERRES
    51   24  149 1    
    52   25   26 2    
    53   25   27 1    
    54   27   28 1    
    55   27   29 1    
    56   27  150 1    
    57   28  151 1    
    58   28  152 1    
    59   28  153 1    
    60   29   30 am   BACKBONE|DICT|INTERRES
    61   29  154 1    
    62   30   31 2    
    63   30   32 1    
    64   32   33 1    
    65   32   34 1    
    66   32  155 1    
    67   33  156 1    
    68   33  157 1    
    69   33  158 1    
    70   34   35 am   BACKBONE|DICT|INTERRES
    71   34  159 1    
    72   35   36 2    
    73   35   37 1    
    74   37   38 1    
    75   37   39 1    
    76   37  160 1    
    77   38  161 1    
    78   38  162 1    
    79   38  163 1    
    80   39   40 am   BACKBONE|DICT|INTERRES
    81   39  164 1    
    82   40   41 2    
    83   40   42 1    
    84   42   43 1    
    85   42   44 1    
    86   42  165 1    
    87   43  166 1    
    88   43  167 1    
    89   43  168 1    
    90   44   45 am   BACKBONE|DICT|INTERRES
    91   44  169 1    
    92   45   46 2    
    93   45   47 1    
    94   47   48 1    
    95   47   49 1    
    96   47  170 1    
    97   48  171 1    
    98   48  172 1    
    99   48  173 1    
   100   49   50 am   BACKBONE|DICT|INTERRES
   101   49  174 1    
   102   50   51 2    
   103   50   52 1    
   104   52   53 1    
   105   52   54 1    
   106   52  175 1    
   107   53  176 1    
   108   53  177 1    
   109   53  178 1    
   110   54   55 am   BACKBONE|DICT|INTERRES
   111   54  179 1    
   112   55   56 2    
   113   55   57 1    
   114   57   58 1    
   115   57   59 1    
   116   57  180 1    
   117   58  181 1    
   118   58  182 1    
   119   58  183 1    
   120   59   60 am   BACKBONE|DICT|INTERRES
   121   59  184 1    
   122   60   61 2    
   123   60   62 1    
   124   62   63 1    
   125   62   64 1    
   126   62  185 1    
   127   63  186 1    
   128   63  187 1    
   129   63  188 1    
   130   64   65 am   BACKBONE|DICT|INTERRES
   131   64  189 1    
   132   65   66 2    
   133   67   68 2    
   134   67   69 am   BACKBONE|DICT|INTERRES
   135   69   70 1    
   136   69  190 1    
   137   70   71 1    
   138   70   72 1    
   139   70  191 1    
   140   71  192 1    
   141   71  193 1    
   142   71  194 1    
   143   72   73 2    
   144   72   74 am   BACKBONE|DICT|INTERRES
   145   74   75 1    
   146   74  195 1    
   147   75   76 1    
   148   75   77 1    
   149   75  196 1    
   150   76  197 1    
   151   76  198 1    
   152   76  199 1    
   153   77   78 2    
   154   77   79 am   BACKBONE|DICT|INTERRES
   155   79   80 1    
   156   79  200 1    
   157   80   81 1    
   158   80   82 1    
   159   80  201 1    
   160   81  202 1    
   161   81  203 1    
   162   81  204 1    
   163   82   83 2    
   164   82   84 am   BACKBONE|DICT|INTERRES
   165   84   85 1    
   166   84  205 1    
   167   85   86 1    
   168   85   87 1    
   169   85  206 1    
   170   86  207 1    
   171   86  208 1    
   172   86  209 1    
   173   87   88 2    
   174   87   89 am   BACKBONE|DICT|INTERRES
   175   89   90 1    
   176   89  210 1    
   177   90   91 1    
   178   90   92 1    
   179   90  211 1    
   180   91  212 1    
   181   91  213 1    
   182   91  214 1    
   183   92   93 2    
   184   92   94 am   BACKBONE|DICT|INTERRES
   185   94   95 1    
   186   94  215 1    
   187   95   96 1    
   188   95   97 1    
   189   95  216 1    
   190   96  217 1    
   191   96  218 1    
   192   96  219 1    
   193   97   98 2    
   194   97   99 am   BACKBONE|DICT|INTERRES
   195   99  100 1    
   196   99  220 1    
   197  100  101 1    
   198  100  102 1    
   199  100  221 1    
   200  101  222 1    
   201  101  223 1    
   202  101  224 1    
   203  102  103 2    
   204  102  104 am   BACKBONE|DICT|INTERRES
   205  104  105 1    
   206  104  225 1    
   207  105  106 1    
   208  105  107 1    
   209  105  226 1    
   210  106  227 1    
   211  106  228 1    
   212  106  229 1    
   213  107  108 2    
   214  107  109 am   BACKBONE|DICT|INTERRES
   215  109  110 1    
   216  109  230 1    
   217  110  111 1    
   218  110  112 1    
   219  110  231 1    
   220  111  232 1    
   221  111  233 1    
   222  111  234 1    
   223  112  113 2    
   224  112  114 am   BACKBONE|DICT|INTERRES
   225  114  115 1    
   226  114  235 1    
   227  115  116 1    
   228  115  117 1    
   229  115  236 1    
   230  116  237 1    
   231  116  238 1    
   232  116  239 1    
   233  117  118 2    
   234  117  119 am   BACKBONE|DICT|INTERRES
   235  119  120 1    
   236  119  240 1    
   237  120  121 1    
   238  120  124 1    
   239  120  241 1    
   240  121  122 am   BACKBONE|DICT|INTERRES
   241  121  123 2    
   242  122  242 1    
   243  122  243 1    
   244  124  125 1    
   245  124  244 1    
   246  124  245 1    
   247  125  126 1    
   248  126  246 1    
   249  126  247 1    
@<TRIPOS>SUBSTRUCTURE
     1 UNK         1 GROUP             0       ****    0 ROOT    
