@<TRIPOS>MOLECULE
3R540
247   249    1
SMALL
USER_CHARGES


@<TRIPOS>ATOM
      1 CA         -2.0670  -13.8010  -52.0131 C.3       0 UNK        -0.1800 
      2 C          -0.7208  -13.5722  -51.3399 C.2       0 UNK         0.5000 
      3 O           0.1331  -12.8805  -51.8945 O.2       0 UNK        -0.5000 
      4 N          -0.5248  -14.1608  -50.1546 N.am      1 UNK        -0.5000 
      5 CA          0.6809  -14.0087  -49.3395 C.3       1 UNK         0.1400 
      6 C6          0.8575  -15.2234  -48.3963 C.3       23 UNK        -0.0398 
      7 S7          2.3739  -15.2054  -47.3759 S.3       23 UNK        -0.2404 
      8 C8          3.7140  -15.3022  -48.6077 C.3       23 UNK        -0.0205 
      9 C9          3.5852  -16.5212  -49.5054 C.ar      23 UNK        -0.0193 
     10 C10         3.1801  -16.3822  -50.8356 C.ar      23 UNK        -0.1150 
     11 C11         3.0509  -17.5043  -51.6576 C.ar      23 UNK        -0.0193 
     12 C12         3.3285  -18.7727  -51.1384 C.ar      23 UNK        -0.1150 
     13 C13         3.7310  -18.9253  -49.8086 C.ar      23 UNK        -0.0193 
     14 C14         3.8715  -17.7914  -49.0023 C.ar      23 UNK        -0.1150 
     15 C15         4.0262  -20.3140  -49.2555 C.3       23 UNK        -0.0205 
     16 S16         3.2087  -20.6270  -47.6576 S.3       23 UNK        -0.2404 
     17 C17         1.4402  -20.5539  -48.1096 C.3       23 UNK        -0.0398 
     18 CA          0.6754  -21.7656  -47.5332 C.3       11 UNK         0.1400 
     19 N           0.6401  -21.7642  -46.0689 N.am      11 UNK        -0.5000 
     20 C           0.2746  -22.8155  -45.3242 C.2       10 UNK         0.5000 
     21 O          -0.0512  -23.9068  -45.7940 O.2       10 UNK        -0.5000 
     22 CA          0.2193  -22.5963  -43.8019 C.3       10 UNK         0.1400 
     23 CB          1.6269  -22.6348  -43.1886 C.3       10 UNK        -0.1800 
     24 N          -0.4482  -21.3446  -43.4391 N.am      10 UNK        -0.5000 
     25 C          -1.7382  -21.0810  -43.6932 C.2       9 UNK         0.5000 
     26 O          -2.5033  -21.8784  -44.2335 O.2       9 UNK        -0.5000 
     27 CA         -2.2614  -19.6861  -43.3122 C.3       9 UNK         0.1400 
     28 CB         -2.5898  -19.6247  -41.8132 C.3       9 UNK        -0.1800 
     29 N          -1.3356  -18.6099  -43.6640 N.am      9 UNK        -0.5000 
     30 C          -0.9544  -18.3070  -44.9138 C.2       8 UNK         0.5000 
     31 O          -1.3579  -18.8929  -45.9174 O.2       8 UNK        -0.5000 
     32 CA          0.1014  -17.1998  -45.0685 C.3       8 UNK         0.1400 
     33 CB         -0.5250  -15.8093  -44.8843 C.3       8 UNK        -0.1800 
     34 N           1.2222  -17.3595  -44.1451 N.am      8 UNK        -0.5000 
     35 C           2.0175  -18.4367  -44.0862 C.2       7 UNK         0.5000 
     36 O           1.9055  -19.4184  -44.8193 O.2       7 UNK        -0.5000 
     37 CA          3.0724  -18.4420  -42.9698 C.3       7 UNK         0.1400 
     38 CB          4.2639  -17.5389  -43.3282 C.3       7 UNK        -0.1800 
     39 N           2.4964  -18.0262  -41.6909 N.am      7 UNK        -0.5000 
     40 C           1.6027  -18.7450  -40.9958 C.2       6 UNK         0.5000 
     41 O           1.1997  -19.8566  -41.3390 O.2       6 UNK        -0.5000 
     42 CA          1.0370  -18.0933  -39.7208 C.3       6 UNK         0.1400 
     43 CB          2.0041  -18.2762  -38.5416 C.3       6 UNK        -0.1800 
     44 N           0.7479  -16.6691  -39.8963 N.am      6 UNK        -0.5000 
     45 C          -0.2062  -16.1873  -40.7051 C.2       5 UNK         0.5000 
     46 O          -0.9587  -16.8946  -41.3724 O.2       5 UNK        -0.5000 
     47 CA         -0.3109  -14.6563  -40.8225 C.3       5 UNK         0.1400 
     48 CB         -1.1940  -14.0888  -39.7012 C.3       5 UNK        -0.1800 
     49 N           0.9839  -13.9695  -40.8169 N.am      5 UNK        -0.5000 
     50 C           1.9642  -14.1759  -41.7058 C.2       4 UNK         0.5000 
     51 O           1.9268  -15.0428  -42.5821 O.2       4 UNK        -0.5000 
     52 CA          3.2150  -13.2899  -41.5593 C.3       4 UNK         0.1400 
     53 CB          4.2398  -13.9755  -40.6423 C.3       4 UNK        -0.1800 
     54 N           3.8526  -13.0033  -42.8456 N.am      4 UNK        -0.5000 
     55 C           3.2772  -12.3621  -43.8723 C.2       3 UNK         0.5000 
     56 O           2.1468  -11.8703  -43.8158 O.2       3 UNK        -0.5000 
     57 CA          4.1203  -12.2412  -45.1617 C.3       3 UNK         0.1400 
     58 CB          4.9602  -13.5041  -45.4402 C.3       3 UNK        -0.1800 
     59 N           3.2837  -11.9590  -46.3304 N.am      3 UNK        -0.5000 
     60 C           2.8608  -10.7406  -46.6982 C.2       2 UNK         0.5000 
     61 O           3.1876   -9.7065  -46.1128 O.2       2 UNK        -0.5000 
     62 CA          1.9389  -10.6440  -47.9329 C.3       2 UNK         0.1400 
     63 CB          2.5004   -9.6464  -48.9614 C.3       2 UNK        -0.1800 
     64 N           1.7551  -11.9355  -48.6006 N.am      2 UNK        -0.5000 
     65 C           0.6344  -12.6675  -48.5771 C.2       1 UNK         0.5000 
     66 O          -0.3949  -12.3397  -47.9823 O.2       1 UNK        -0.5000 
     67 C          -0.7379  -21.8916  -48.1335 C.2       11 UNK         0.5000 
     68 O          -0.9202  -22.6772  -49.0612 O.2       11 UNK        -0.5000 
     69 N          -1.7246  -21.1801  -47.5645 N.am      12 UNK        -0.5000 
     70 CA         -3.1386  -21.3003  -47.9266 C.3       12 UNK         0.1400 
     71 CB         -3.9753  -20.2599  -47.1691 C.3       12 UNK        -0.1800 
     72 C          -3.6970  -22.7143  -47.6965 C.2       12 UNK         0.5000 
     73 O          -4.3848  -23.2318  -48.5745 O.2       12 UNK        -0.5000 
     74 N          -3.3702  -23.3308  -46.5522 N.am      13 UNK        -0.5000 
     75 CA         -3.7408  -24.7078  -46.2188 C.3       13 UNK         0.1400 
     76 CB         -3.3435  -25.0224  -44.7692 C.3       13 UNK        -0.1800 
     77 C          -3.1381  -25.7366  -47.1926 C.2       13 UNK         0.5000 
     78 O          -3.8553  -26.6294  -47.6465 O.2       13 UNK        -0.5000 
     79 N          -1.8555  -25.5594  -47.5437 N.am      14 UNK        -0.5000 
     80 CA         -1.1559  -26.3496  -48.5619 C.3       14 UNK         0.1400 
     81 CB          0.3375  -25.9906  -48.5539 C.3       14 UNK        -0.1800 
     82 C          -1.7573  -26.1786  -49.9725 C.2       14 UNK         0.5000 
     83 O          -1.8034  -27.1423  -50.7369 O.2       14 UNK        -0.5000 
     84 N          -2.2609  -24.9735  -50.2657 N.am      15 UNK        -0.5000 
     85 CA         -2.9975  -24.6085  -51.4760 C.3       15 UNK         0.1400 
     86 CB         -2.7768  -23.1113  -51.7531 C.3       15 UNK        -0.1800 
     87 C          -4.5016  -24.9605  -51.4127 C.2       15 UNK         0.5000 
     88 O          -5.2859  -24.3631  -52.1503 O.2       15 UNK        -0.5000 
     89 N          -4.8870  -25.9088  -50.5445 N.am      16 UNK        -0.5000 
     90 CA         -6.2344  -26.4638  -50.3707 C.3       16 UNK         0.1400 
     91 CB         -6.6571  -27.2608  -51.6230 C.3       16 UNK        -0.1800 
     92 C          -7.2738  -25.4065  -49.9451 C.2       16 UNK         0.5000 
     93 O          -8.3596  -25.3329  -50.5225 O.2       16 UNK        -0.5000 
     94 N          -6.9003  -24.6055  -48.9380 N.am      17 UNK        -0.5000 
     95 CA         -7.6253  -23.4497  -48.3998 C.3       17 UNK         0.1400 
     96 CB         -9.0007  -23.8507  -47.8248 C.3       17 UNK        -0.1800 
     97 C          -7.6875  -22.2948  -49.4196 C.2       17 UNK         0.5000 
     98 O          -8.7465  -21.6983  -49.6226 O.2       17 UNK        -0.5000 
     99 N          -6.5267  -22.0114  -50.0298 N.am      18 UNK        -0.5000 
    100 CA        -6.2653  -20.9773  -51.0345 C.3       18 UNK         0.1400 
    101 CB        -6.3450  -19.5750  -50.3954 C.3       18 UNK        -0.1800 
    102 C         -7.1574  -21.1260  -52.2838 C.2       18 UNK         0.5000 
    103 O         -7.8427  -20.1799  -52.6803 O.2       18 UNK        -0.5000 
    104 N         -7.1473  -22.3263  -52.8785 N.am      19 UNK        -0.5000 
    105 CA        -7.9179  -22.6940  -54.0664 C.3       19 UNK         0.1400 
    106 CB        -7.9976  -24.2285  -54.1526 C.3       19 UNK        -0.1800 
    107 C         -7.3258  -22.0599  -55.3418 C.2       19 UNK         0.5000 
    108 O         -6.6803  -22.7471  -56.1354 O.2       19 UNK        -0.5000 
    109 N         -7.5414  -20.7448  -55.4882 N.am      20 UNK        -0.5000 
    110 CA        -7.0502  -19.8685  -56.5584 C.3       20 UNK         0.1400 
    111 CB        -7.6624  -20.2599  -57.9201 C.3       20 UNK        -0.1800 
    112 C         -5.5095  -19.7684  -56.5886 C.2       20 UNK         0.5000 
    113 O         -4.9104  -19.6941  -57.6634 O.2       20 UNK        -0.5000 
    114 N         -4.8970  -19.7623  -55.3998 N.am      21 UNK        -0.5000 
    115 CA        -3.4593  -19.6704  -55.1789 C.3       21 UNK         0.1400 
    116 CB        -2.8148  -21.0570  -55.3543 C.3       21 UNK        -0.1800 
    117 C         -3.2035  -19.1013  -53.7761 C.2       21 UNK         0.5000 
    118 O         -4.0896  -19.1551  -52.9202 O.2       21 UNK        -0.5000 
    119 N         -1.9995  -18.5568  -53.5824 N.am      22 UNK        -0.5000 
    120 CA        -1.4917  -17.9888  -52.3253 C.3       22 UNK         0.1400 
    121 C         -1.3778  -19.0229  -51.1675 C.2       22 UNK         0.5000 
    122 N         -1.7266  -18.6369  -49.9461 N.am      22 UNK        -0.7600 
    123 O         -0.9407  -20.1533  -51.3584 O.2       22 UNK        -0.5000 
    124 C124       -0.1495  -17.2419  -52.5598 C.3       23 UNK        -0.0398 
    125 S125        1.0856  -18.2163  -53.4967 S.3       23 UNK        -0.2404 
    126 C126        2.6333  -17.3415  -53.1118 C.3       23 UNK        -0.0205 
    127 H127       -2.5947  -12.8540  -52.1262 H         1 UNK         0.0600 
    128 H128       -1.9237  -14.2324  -53.0038 H         1 UNK         0.0600 
    129 H129       -2.6999  -14.4767  -51.4373 H         1 UNK         0.0600 
    130 H130       -1.2881  -14.6567  -49.7184 H         1 UNK         0.3000 
    131 H131        1.5351  -13.9863  -50.0173 H         1 UNK         0.0600 
    132 H132        0.0046  -15.2943  -47.7205 H         1 UNK         0.0800 
    133 H133        0.8487  -16.1488  -48.9740 H         1 UNK         0.0800 
    134 H134        4.6679  -15.3488  -48.0805 H         1 UNK         0.0800 
    135 H135        3.7439  -14.3859  -49.1975 H         1 UNK         0.0800 
    136 H136        2.9695  -15.4006  -51.2351 H         1 UNK         0.1150 
    137 H137        3.2262  -19.6408  -51.7745 H         1 UNK         0.1150 
    138 H138        4.1856  -17.8977  -47.9733 H         1 UNK         0.1150 
    139 H139        3.7262  -21.0889  -49.9628 H         1 UNK         0.0800 
    140 H140        5.1041  -20.4147  -49.1242 H         1 UNK         0.0800 
    141 H141        1.3490  -20.5258  -49.1974 H         1 UNK         0.0800 
    142 H142        1.0212  -19.6159  -47.7405 H         1 UNK         0.0800 
    143 H143        1.2160  -22.6645  -47.8388 H         1 UNK         0.0600 
    144 H144        0.9391  -20.9083  -45.6076 H         1 UNK         0.3000 
    145 H145       -0.3580  -23.4173  -43.3716 H         1 UNK         0.0600 
    146 H146        1.5838  -22.5712  -42.1012 H         1 UNK         0.0600 
    147 H147        2.1373  -23.5652  -43.4404 H         1 UNK         0.0600 
    148 H148        2.2469  -21.8124  -43.5464 H         1 UNK         0.0600 
    149 H149        0.1161  -20.6466  -42.9669 H         1 UNK         0.3000 
    150 H150       -3.1869  -19.5179  -43.8661 H         1 UNK         0.0600 
    151 H151       -3.2747  -20.4246  -41.5289 H         1 UNK         0.0600 
    152 H152       -3.0690  -18.6806  -41.5540 H         1 UNK         0.0600 
    153 H153       -1.6932  -19.7247  -41.2004 H         1 UNK         0.0600 
    154 H154       -0.9833  -18.0498  -42.8922 H         1 UNK         0.3000 
    155 H155        0.5018  -17.2666  -46.0817 H         1 UNK         0.0600 
    156 H156       -0.9330  -15.6814  -43.8821 H         1 UNK         0.0600 
    157 H157       -1.3390  -15.6504  -45.5923 H         1 UNK         0.0600 
    158 H158        0.2097  -15.0202  -45.0471 H         1 UNK         0.0600 
    159 H159        1.4071  -16.5835  -43.5136 H         1 UNK         0.3000 
    160 H160        3.4419  -19.4640  -42.8615 H         1 UNK         0.0600 
    161 H161        5.0335  -17.5769  -42.5573 H         1 UNK         0.0600 
    162 H162        3.9660  -16.4978  -43.4534 H         1 UNK         0.0600 
    163 H163        4.7241  -17.8595  -44.2638 H         1 UNK         0.0600 
    164 H164        2.7181  -17.0935  -41.3761 H         1 UNK         0.3000 
    165 H165        0.1015  -18.6010  -39.4760 H         1 UNK         0.0600 
    166 H166        1.5754  -17.8896  -37.6168 H         1 UNK         0.0600 
    167 H167        2.2255  -19.3320  -38.3794 H         1 UNK         0.0600 
    168 H168        2.9519  -17.7643  -38.7125 H         1 UNK         0.0600 
    169 H169        1.3245  -16.0157  -39.3873 H         1 UNK         0.3000 
    170 H170       -0.7926  -14.4345  -41.7767 H         1 UNK         0.0600 
    171 H171       -2.1731  -14.5699  -39.6942 H         1 UNK         0.0600 
    172 H172       -0.7461  -14.2414  -38.7184 H         1 UNK         0.0600 
    173 H173       -1.3607  -13.0195  -39.8327 H         1 UNK         0.0600 
    174 H174        1.1035  -13.2506  -40.1179 H         1 UNK         0.3000 
    175 H175        2.9210  -12.3380  -41.1125 H         1 UNK         0.0600 
    176 H176        4.5803  -14.9249  -41.0585 H         1 UNK         0.0600 
    177 H177        5.1150  -13.3444  -40.4864 H         1 UNK         0.0600 
    178 H178        3.8125  -14.1823  -39.6603 H         1 UNK         0.0600 
    179 H179        4.7723  -13.3950  -42.9810 H         1 UNK         0.3000 
    180 H180        4.8127  -11.4093  -45.0173 H         1 UNK         0.0600 
    181 H181        4.3573  -14.4112  -45.3921 H         1 UNK         0.0600 
    182 H182        5.7679  -13.6104  -44.7156 H         1 UNK         0.0600 
    183 H183        5.4254  -13.4615  -46.4251 H         1 UNK         0.0600 
    184 H184        2.9179  -12.7622  -46.8207 H         1 UNK         0.3000 
    185 H185        0.9802  -10.2586  -47.5800 H         1 UNK         0.0600 
    186 H186        2.6015   -8.6495  -48.5305 H         1 UNK         0.0600 
    187 H187        3.4840   -9.9504  -49.3216 H         1 UNK         0.0600 
    188 H188        1.8399   -9.5578  -49.8242 H         1 UNK         0.0600 
    189 H189        2.5509  -12.2720  -49.1231 H         1 UNK         0.3000 
    190 H190       -1.5047  -20.5329  -46.8103 H         1 UNK         0.3000 
    191 H191       -3.2258  -21.0851  -48.9933 H         1 UNK         0.0600 
    192 H192       -3.8711  -20.3679  -46.0899 H         1 UNK         0.0600 
    193 H193       -5.0353  -20.3613  -47.4053 H         1 UNK         0.0600 
    194 H194       -3.6784  -19.2454  -47.4347 H         1 UNK         0.0600 
    195 H195       -2.8471  -22.8182  -45.8465 H         1 UNK         0.3000 
    196 H196       -4.8276  -24.7828  -46.2920 H         1 UNK         0.0600 
    197 H197       -3.6201  -26.0426  -44.5004 H         1 UNK         0.0600 
    198 H198       -3.8472  -24.3545  -44.0702 H         1 UNK         0.0600 
    199 H199       -2.2697  -24.9204  -44.6125 H         1 UNK         0.0600 
    200 H200       -1.3245  -24.8189  -47.0954 H         1 UNK         0.3000 
    201 H201       -1.2525  -27.4022  -48.2880 H         1 UNK         0.0600 
    202 H202        0.7791  -26.1620  -47.5720 H         1 UNK         0.0600 
    203 H203        0.5030  -24.9458  -48.8162 H         1 UNK         0.0600 
    204 H204        0.8890  -26.6001  -49.2708 H         1 UNK         0.0600 
    205 H205       -2.1212  -24.2241  -49.5956 H         1 UNK         0.3000 
    206 H206       -2.5829  -25.1650  -52.3185 H         1 UNK         0.0600 
    207 H207       -1.7167  -22.8823  -51.8631 H         1 UNK         0.0600 
    208 H208       -3.2707  -22.7986  -52.6718 H         1 UNK         0.0600 
    209 H209       -3.1661  -22.4916  -50.9465 H         1 UNK         0.0600 
    210 H210       -4.1804  -26.2971  -49.9336 H         1 UNK         0.3000 
    211 H211       -6.1662  -27.1704  -49.5423 H         1 UNK         0.0600 
    212 H212       -6.7806  -26.6154  -52.4929 H         1 UNK         0.0600 
    213 H213       -7.6062  -27.7721  -51.4586 H         1 UNK         0.0600 
    214 H214       -5.9183  -28.0221  -51.8730 H         1 UNK         0.0600 
    215 H215       -5.9450  -24.6922  -48.6119 H         1 UNK         0.3000 
    216 H216       -7.0262  -23.0817  -47.5656 H         1 UNK         0.0600 
    217 H217       -9.4558  -23.0143  -47.2932 H         1 UNK         0.0600 
    218 H218       -8.9071  -24.6732  -47.1159 H         1 UNK         0.0600 
    219 H219       -9.6990  -24.1557  -48.6042 H         1 UNK         0.0600 
    220 H220       -5.7244  -22.5746  -49.7618 H         1 UNK         0.3000 
    221 H221       -5.2390  -21.1268  -51.3722 H         1 UNK         0.0600 
    222 H222       -7.3396  -19.3613  -50.0035 H         1 UNK         0.0600 
    223 H223       -5.6309  -19.4736  -49.5795 H         1 UNK         0.0600 
    224 H224       -6.1088  -18.7990  -51.1241 H         1 UNK         0.0600 
    225 H225       -6.5286  -23.0495  -52.5147 H         1 UNK         0.3000 
    226 H226       -8.9368  -22.3189  -53.9497 H         1 UNK         0.0600 
    227 H227       -8.4657  -24.6485  -53.2622 H         1 UNK         0.0600 
    228 H228       -8.5921  -24.5413  -55.0116 H         1 UNK         0.0600 
    229 H229       -7.0100  -24.6798  -54.2537 H         1 UNK         0.0600 
    230 H230       -8.0081  -20.2761  -54.7179 H         1 UNK         0.3000 
    231 H231       -7.4094  -18.8673  -56.3166 H         1 UNK         0.0600 
    232 H232       -8.7495  -20.3133  -57.8631 H         1 UNK         0.0600 
    233 H233       -7.2964  -21.2261  -58.2683 H         1 UNK         0.0600 
    234 H234       -7.4150  -19.5233  -58.6854 H         1 UNK         0.0600 
    235 H235       -5.4478  -19.7740  -54.5508 H         1 UNK         0.3000 
    236 H236       -3.0288  -18.9765  -55.9042 H         1 UNK         0.0600 
    237 H237       -1.7574  -21.0426  -55.0871 H         1 UNK         0.0600 
    238 H238       -3.3048  -21.8048  -54.7320 H         1 UNK         0.0600 
    239 H239       -2.8832  -21.3937  -56.3887 H         1 UNK         0.0600 
    240 H240       -1.3195  -18.6008  -54.3275 H         1 UNK         0.3000 
    241 H241       -2.2241  -17.2416  -52.0130 H         1 UNK         0.0600 
    242 H242       -1.6433  -19.2968  -49.1908 H         1 UNK         0.3800 
    243 H243       -2.1069  -17.7224  -49.7659 H         1 UNK         0.3800 
    244 H244       -0.3392  -16.3290  -53.1252 H         1 UNK         0.0800 
    245 H245        0.2790  -16.9149  -51.6107 H         1 UNK         0.0800 
    246 H246        3.4262  -17.7346  -53.7495 H         1 UNK         0.0800 
    247 H247        2.5222  -16.2883  -53.3748 H         1 UNK         0.0800 
@<TRIPOS>BOND
     1    1    2 1    
     2    1  127 1    
     3    1  128 1    
     4    1  129 1    
     5    2    3 2    
     6    2    4 am   BACKBONE|DICT|INTERRES
     7    4    5 1    
     8    4  130 1    
     9    5    6 1    
    10    5   65 1    
    11    5  131 1    
    12    6    7 1    
    13    6  132 1    
    14    6  133 1    
    15    7    8 1    
    16    8    9 1    
    17    8  134 1    
    18    8  135 1    
    19    9   10 ar   
    20    9   14 ar   
    21   10   11 ar   
    22   10  136 1    
    23   11   12 ar   
    24   11  126 1    
    25   12   13 ar   
    26   12  137 1    
    27   13   14 ar   
    28   13   15 1    
    29   14  138 1    
    30   15   16 1    
    31   15  139 1    
    32   15  140 1    
    33   16   17 1    
    34   17   18 1    
    35   17  141 1    
    36   17  142 1    
    37   18   19 1    
    38   18   67 1    
    39   18  143 1    
    40   19   20 am   BACKBONE|DICT|INTERRES
    41   19  144 1    
    42   20   21 2    
    43   20   22 1    
    44   22   23 1    
    45   22   24 1    
    46   22  145 1    
    47   23  146 1    
    48   23  147 1    
    49   23  148 1    
    50   24   25 am   BACKBONE|DICT|INTERRES
    51   24  149 1    
    52   25   26 2    
    53   25   27 1    
    54   27   28 1    
    55   27   29 1    
    56   27  150 1    
    57   28  151 1    
    58   28  152 1    
    59   28  153 1    
    60   29   30 am   BACKBONE|DICT|INTERRES
    61   29  154 1    
    62   30   31 2    
    63   30   32 1    
    64   32   33 1    
    65   32   34 1    
    66   32  155 1    
    67   33  156 1    
    68   33  157 1    
    69   33  158 1    
    70   34   35 am   BACKBONE|DICT|INTERRES
    71   34  159 1    
    72   35   36 2    
    73   35   37 1    
    74   37   38 1    
    75   37   39 1    
    76   37  160 1    
    77   38  161 1    
    78   38  162 1    
    79   38  163 1    
    80   39   40 am   BACKBONE|DICT|INTERRES
    81   39  164 1    
    82   40   41 2    
    83   40   42 1    
    84   42   43 1    
    85   42   44 1    
    86   42  165 1    
    87   43  166 1    
    88   43  167 1    
    89   43  168 1    
    90   44   45 am   BACKBONE|DICT|INTERRES
    91   44  169 1    
    92   45   46 2    
    93   45   47 1    
    94   47   48 1    
    95   47   49 1    
    96   47  170 1    
    97   48  171 1    
    98   48  172 1    
    99   48  173 1    
   100   49   50 am   BACKBONE|DICT|INTERRES
   101   49  174 1    
   102   50   51 2    
   103   50   52 1    
   104   52   53 1    
   105   52   54 1    
   106   52  175 1    
   107   53  176 1    
   108   53  177 1    
   109   53  178 1    
   110   54   55 am   BACKBONE|DICT|INTERRES
   111   54  179 1    
   112   55   56 2    
   113   55   57 1    
   114   57   58 1    
   115   57   59 1    
   116   57  180 1    
   117   58  181 1    
   118   58  182 1    
   119   58  183 1    
   120   59   60 am   BACKBONE|DICT|INTERRES
   121   59  184 1    
   122   60   61 2    
   123   60   62 1    
   124   62   63 1    
   125   62   64 1    
   126   62  185 1    
   127   63  186 1    
   128   63  187 1    
   129   63  188 1    
   130   64   65 am   BACKBONE|DICT|INTERRES
   131   64  189 1    
   132   65   66 2    
   133   67   68 2    
   134   67   69 am   BACKBONE|DICT|INTERRES
   135   69   70 1    
   136   69  190 1    
   137   70   71 1    
   138   70   72 1    
   139   70  191 1    
   140   71  192 1    
   141   71  193 1    
   142   71  194 1    
   143   72   73 2    
   144   72   74 am   BACKBONE|DICT|INTERRES
   145   74   75 1    
   146   74  195 1    
   147   75   76 1    
   148   75   77 1    
   149   75  196 1    
   150   76  197 1    
   151   76  198 1    
   152   76  199 1    
   153   77   78 2    
   154   77   79 am   BACKBONE|DICT|INTERRES
   155   79   80 1    
   156   79  200 1    
   157   80   81 1    
   158   80   82 1    
   159   80  201 1    
   160   81  202 1    
   161   81  203 1    
   162   81  204 1    
   163   82   83 2    
   164   82   84 am   BACKBONE|DICT|INTERRES
   165   84   85 1    
   166   84  205 1    
   167   85   86 1    
   168   85   87 1    
   169   85  206 1    
   170   86  207 1    
   171   86  208 1    
   172   86  209 1    
   173   87   88 2    
   174   87   89 am   BACKBONE|DICT|INTERRES
   175   89   90 1    
   176   89  210 1    
   177   90   91 1    
   178   90   92 1    
   179   90  211 1    
   180   91  212 1    
   181   91  213 1    
   182   91  214 1    
   183   92   93 2    
   184   92   94 am   BACKBONE|DICT|INTERRES
   185   94   95 1    
   186   94  215 1    
   187   95   96 1    
   188   95   97 1    
   189   95  216 1    
   190   96  217 1    
   191   96  218 1    
   192   96  219 1    
   193   97   98 2    
   194   97   99 am   BACKBONE|DICT|INTERRES
   195   99  100 1    
   196   99  220 1    
   197  100  101 1    
   198  100  102 1    
   199  100  221 1    
   200  101  222 1    
   201  101  223 1    
   202  101  224 1    
   203  102  103 2    
   204  102  104 am   BACKBONE|DICT|INTERRES
   205  104  105 1    
   206  104  225 1    
   207  105  106 1    
   208  105  107 1    
   209  105  226 1    
   210  106  227 1    
   211  106  228 1    
   212  106  229 1    
   213  107  108 2    
   214  107  109 am   BACKBONE|DICT|INTERRES
   215  109  110 1    
   216  109  230 1    
   217  110  111 1    
   218  110  112 1    
   219  110  231 1    
   220  111  232 1    
   221  111  233 1    
   222  111  234 1    
   223  112  113 2    
   224  112  114 am   BACKBONE|DICT|INTERRES
   225  114  115 1    
   226  114  235 1    
   227  115  116 1    
   228  115  117 1    
   229  115  236 1    
   230  116  237 1    
   231  116  238 1    
   232  116  239 1    
   233  117  118 2    
   234  117  119 am   BACKBONE|DICT|INTERRES
   235  119  120 1    
   236  119  240 1    
   237  120  121 1    
   238  120  124 1    
   239  120  241 1    
   240  121  122 am   BACKBONE|DICT|INTERRES
   241  121  123 2    
   242  122  242 1    
   243  122  243 1    
   244  124  125 1    
   245  124  244 1    
   246  124  245 1    
   247  125  126 1    
   248  126  246 1    
   249  126  247 1    
@<TRIPOS>SUBSTRUCTURE
     1 UNK         1 GROUP             0       ****    0 ROOT    
