@<TRIPOS>MOLECULE
3R540
247   249    1
SMALL
USER_CHARGES


@<TRIPOS>ATOM
      1 CA         -0.4527  -19.1942  -50.1948 C.3       0 UNK        -0.1800 
      2 C          -0.9958  -17.8318  -49.7955 C.2       0 UNK         0.5000 
      3 O          -2.1756  -17.5461  -50.0064 O.2       0 UNK        -0.5000 
      4 N          -0.1306  -16.9697  -49.2532 N.am      1 UNK        -0.5000 
      5 CA         -0.4379  -15.5890  -48.8652 C.3       1 UNK         0.1400 
      6 C6          0.8249  -14.6947  -48.8830 C.3       23 UNK        -0.0398 
      7 S7          1.6087  -14.5983  -50.5248 S.3       23 UNK        -0.2404 
      8 C8          3.2068  -15.4281  -50.2378 C.3       23 UNK        -0.0205 
      9 C9          3.1727  -16.9240  -50.5284 C.ar      23 UNK        -0.0193 
     10 C10         2.8602  -17.3712  -51.8158 C.ar      23 UNK        -0.1150 
     11 C11         2.9551  -18.7258  -52.1441 C.ar      23 UNK        -0.0193 
     12 C12         3.3671  -19.6375  -51.1697 C.ar      23 UNK        -0.1150 
     13 C13         3.6639  -19.2128  -49.8712 C.ar      23 UNK        -0.0193 
     14 C14         3.5534  -17.8534  -49.5523 C.ar      23 UNK        -0.1150 
     15 C15         4.2018  -20.2131  -48.8542 C.3       23 UNK        -0.0205 
     16 S16         3.0950  -21.6400  -48.5979 S.3       23 UNK        -0.2404 
     17 C17         2.1370  -21.0810  -47.1579 C.3       23 UNK        -0.0398 
     18 CA          1.1465  -22.1580  -46.6470 C.3       11 UNK         0.1400 
     19 N           0.9037  -22.0404  -45.2057 N.am      11 UNK        -0.5000 
     20 C           0.1978  -22.9093  -44.4674 C.2       10 UNK         0.5000 
     21 O          -0.2521  -23.9684  -44.9055 O.2       10 UNK        -0.5000 
     22 CA         -0.1117  -22.4924  -43.0151 C.3       10 UNK         0.1400 
     23 CB          1.0369  -22.8696  -42.0684 C.3       10 UNK        -0.1800 
     24 N          -0.4040  -21.0606  -42.9003 N.am      10 UNK        -0.5000 
     25 C          -1.4773  -20.4715  -43.4480 C.2       9 UNK         0.5000 
     26 O          -2.3739  -21.0933  -44.0156 O.2       9 UNK        -0.5000 
     27 CA         -1.5303  -18.9339  -43.4182 C.3       9 UNK         0.1400 
     28 CB         -2.0947  -18.4237  -42.0849 C.3       9 UNK        -0.1800 
     29 N          -0.2216  -18.3319  -43.6743 N.am      9 UNK        -0.5000 
     30 C           0.4468  -18.4124  -44.8330 C.2       8 UNK         0.5000 
     31 O          -0.0264  -18.9114  -45.8515 O.2       8 UNK        -0.5000 
     32 CA          1.9115  -17.9322  -44.8423 C.3       8 UNK         0.1400 
     33 CB          2.0318  -16.4606  -45.2417 C.3       8 UNK        -0.1800 
     34 N           2.5655  -18.1347  -43.5526 N.am      8 UNK        -0.5000 
     35 C           2.9810  -19.3243  -43.1010 C.2       7 UNK         0.5000 
     36 O           2.8783  -20.3674  -43.7451 O.2       7 UNK        -0.5000 
     37 CA          3.5709  -19.3534  -41.6792 C.3       7 UNK         0.1400 
     38 CB          5.0721  -19.0317  -41.7111 C.3       7 UNK        -0.1800 
     39 N           2.8932  -18.4176  -40.7790 N.am      7 UNK        -0.5000 
     40 C           1.6287  -18.5625  -40.3580 C.2       6 UNK         0.5000 
     41 O           0.9270  -19.5338  -40.6403 O.2       6 UNK        -0.5000 
     42 CA          1.0369  -17.4010  -39.5339 C.3       6 UNK         0.1400 
     43 CB          1.3821  -17.5628  -38.0462 C.3       6 UNK        -0.1800 
     44 N           1.4814  -16.0810  -39.9985 N.am      6 UNK        -0.5000 
     45 C           1.1989  -15.5734  -41.2056 C.2       5 UNK         0.5000 
     46 O           0.5153  -16.1611  -42.0448 O.2       5 UNK        -0.5000 
     47 CA          1.8342  -14.2242  -41.5637 C.3       5 UNK         0.1400 
     48 CB          3.3470  -14.4083  -41.8109 C.3       5 UNK        -0.1800 
     49 N           1.1816  -13.7026  -42.7645 N.am      5 UNK        -0.5000 
     50 C           1.3580  -12.4852  -43.2887 C.2       4 UNK         0.5000 
     51 O           2.0578  -11.6137  -42.7705 O.2       4 UNK        -0.5000 
     52 CA          0.6476  -12.1814  -44.6208 C.3       4 UNK         0.1400 
     53 CB          1.5248  -12.6000  -45.8101 C.3       4 UNK        -0.1800 
     54 N          -0.6832  -12.7848  -44.7511 N.am      4 UNK        -0.5000 
     55 C          -1.7676  -12.3156  -44.1151 C.2       3 UNK         0.5000 
     56 O          -1.7115  -11.4318  -43.2583 O.2       3 UNK        -0.5000 
     57 CA         -3.1537  -12.8614  -44.5160 C.3       3 UNK         0.1400 
     58 CB         -4.0040  -11.7440  -45.1444 C.3       3 UNK        -0.1800 
     59 N          -3.0987  -13.9742  -45.4651 N.am      3 UNK        -0.5000 
     60 C          -3.2154  -15.2634  -45.1268 C.2       2 UNK         0.5000 
     61 O          -3.3450  -15.6551  -43.9672 O.2       2 UNK        -0.5000 
     62 CA         -3.2098  -16.3005  -46.2697 C.3       2 UNK         0.1400 
     63 CB         -4.6520  -16.5845  -46.7196 C.3       2 UNK        -0.1800 
     64 N          -2.4039  -15.9977  -47.4592 N.am      2 UNK        -0.5000 
     65 C          -1.1394  -15.5594  -47.4902 C.2       1 UNK         0.5000 
     66 O          -0.5302  -15.1629  -46.4973 O.2       1 UNK        -0.5000 
     67 C          -0.1739  -22.1450  -47.4464 C.2       11 UNK         0.5000 
     68 O          -0.3810  -23.0049  -48.3003 O.2       11 UNK        -0.5000 
     69 N          -1.0689  -21.2051  -47.1144 N.am      12 UNK        -0.5000 
     70 CA         -2.4064  -21.0855  -47.6897 C.3       12 UNK         0.1400 
     71 CB         -3.0519  -19.7800  -47.2188 C.3       12 UNK        -0.1800 
     72 C          -3.3083  -22.2914  -47.3799 C.2       12 UNK         0.5000 
     73 O          -4.0303  -22.7421  -48.2659 O.2       12 UNK        -0.5000 
     74 N          -3.2219  -22.8292  -46.1561 N.am      13 UNK        -0.5000 
     75 CA         -3.9183  -24.0504  -45.7456 C.3       13 UNK         0.1400 
     76 CB         -3.7352  -24.2731  -44.2370 C.3       13 UNK        -0.1800 
     77 C          -3.4730  -25.2893  -46.5477 C.2       13 UNK         0.5000 
     78 O          -4.3151  -26.1190  -46.8920 O.2       13 UNK        -0.5000 
     79 N          -2.1731  -25.3704  -46.8672 N.am      14 UNK        -0.5000 
     80 CA         -1.6034  -26.3877  -47.7520 C.3       14 UNK         0.1400 
     81 CB         -0.0768  -26.4225  -47.5818 C.3       14 UNK        -0.1800 
     82 C          -1.9948  -26.1733  -49.2286 C.2       14 UNK         0.5000 
     83 O          -2.2567  -27.1506  -49.9308 O.2       14 UNK        -0.5000 
     84 N          -2.0467  -24.9066  -49.6679 N.am      15 UNK        -0.5000 
     85 CA         -2.4795  -24.4911  -51.0065 C.3       15 UNK         0.1400 
     86 CB         -2.1315  -23.0087  -51.2176 C.3       15 UNK        -0.1800 
     87 C          -3.9795  -24.7447  -51.2669 C.2       15 UNK         0.5000 
     88 O          -4.3617  -24.9661  -52.4169 O.2       15 UNK        -0.5000 
     89 N          -4.7876  -24.7281  -50.1967 N.am      16 UNK        -0.5000 
     90 CA         -6.2071  -25.0771  -50.1166 C.3       16 UNK         0.1400 
     91 CB         -6.4024  -26.5913  -50.3451 C.3       16 UNK        -0.1800 
     92 C          -7.0803  -24.1994  -51.0317 C.2       16 UNK         0.5000 
     93 O          -7.4612  -23.0998  -50.6326 O.2       16 UNK        -0.5000 
     94 N          -7.3693  -24.6804  -52.2477 N.am      17 UNK        -0.5000 
     95 CA         -8.0945  -23.9428  -53.2839 C.3       17 UNK         0.1400 
     96 CB         -8.4537  -24.9080  -54.4237 C.3       17 UNK        -0.1800 
     97 C          -7.3085  -22.7327  -53.8287 C.2       17 UNK         0.5000 
     98 O          -7.9229  -21.7800  -54.3086 O.2       17 UNK        -0.5000 
     99 N          -5.9732  -22.7827  -53.7301 N.am      18 UNK        -0.5000 
    100 CA        -5.0501  -21.7419  -54.1804 C.3       18 UNK         0.1400 
    101 CB        -3.8780  -22.4138  -54.9155 C.3       18 UNK        -0.1800 
    102 C         -4.5873  -20.8239  -53.0278 C.2       18 UNK         0.5000 
    103 O         -3.5262  -20.2052  -53.1290 O.2       18 UNK        -0.5000 
    104 N         -5.3898  -20.7146  -51.9582 N.am      19 UNK        -0.5000 
    105 CA        -5.1912  -19.8418  -50.7916 C.3       19 UNK         0.1400 
    106 CB        -6.1319  -20.3130  -49.6683 C.3       19 UNK        -0.1800 
    107 C         -5.3736  -18.3352  -51.1024 C.2       19 UNK         0.5000 
    108 O         -6.1068  -17.6352  -50.4015 O.2       19 UNK        -0.5000 
    109 N         -4.7137  -17.8665  -52.1623 N.am      20 UNK        -0.5000 
    110 CA        -4.7241  -16.4992  -52.6615 C.3       20 UNK         0.1400 
    111 CB        -5.9642  -16.2721  -53.5477 C.3       20 UNK        -0.1800 
    112 C         -3.3978  -16.2579  -53.3953 C.2       20 UNK         0.5000 
    113 O         -3.3850  -16.0600  -54.6119 O.2       20 UNK        -0.5000 
    114 N         -2.2928  -16.3549  -52.6414 N.am      21 UNK        -0.5000 
    115 CA        -0.9017  -16.1857  -53.0868 C.3       21 UNK         0.1400 
    116 CB        -0.6331  -14.7179  -53.4768 C.3       21 UNK        -0.1800 
    117 C         -0.4904  -17.1866  -54.1875 C.2       21 UNK         0.5000 
    118 O          0.2945  -16.8454  -55.0736 O.2       21 UNK        -0.5000 
    119 N         -1.0509  -18.4010  -54.1121 N.am      22 UNK        -0.5000 
    120 CA        -0.9039  -19.4987  -55.0824 C.3       22 UNK         0.1400 
    121 C         -1.6113  -19.2505  -56.4505 C.2       22 UNK         0.5000 
    122 N         -2.4615  -18.2391  -56.5936 N.am      22 UNK        -0.7600 
    123 O         -1.4135  -20.0080  -57.3965 O.2       22 UNK        -0.5000 
    124 C124        0.5545  -20.0125  -55.2426 C.3       23 UNK        -0.0398 
    125 S125        1.3285  -20.4179  -53.6370 S.3       23 UNK        -0.2404 
    126 C126        2.6728  -19.1900  -53.5653 C.3       23 UNK        -0.0205 
    127 H127       -1.2528  -19.8414  -50.5539 H         1 UNK         0.0600 
    128 H128        0.0342  -19.6799  -49.3501 H         1 UNK         0.0600 
    129 H129        0.2762  -19.0872  -50.9972 H         1 UNK         0.0600 
    130 H130        0.8265  -17.2577  -49.1112 H         1 UNK         0.3000 
    131 H131       -1.1381  -15.1702  -49.5918 H         1 UNK         0.0600 
    132 H132        1.5542  -15.0322  -48.1474 H         1 UNK         0.0800 
    133 H133        0.5608  -13.6753  -48.5990 H         1 UNK         0.0800 
    134 H134        3.5628  -15.2280  -49.2263 H         1 UNK         0.0800 
    135 H135        3.9437  -14.9754  -50.9026 H         1 UNK         0.0800 
    136 H136        2.5788  -16.6530  -52.5734 H         1 UNK         0.1150 
    137 H137        3.4711  -20.6820  -51.4287 H         1 UNK         0.1150 
    138 H138        3.8206  -17.5119  -48.5619 H         1 UNK         0.1150 
    139 H139        5.1593  -20.5857  -49.2205 H         1 UNK         0.0800 
    140 H140        4.4135  -19.7287  -47.8998 H         1 UNK         0.0800 
    141 H141        1.6387  -20.1425  -47.4032 H         1 UNK         0.0800 
    142 H142        2.8608  -20.8467  -46.3769 H         1 UNK         0.0800 
    143 H143        1.6018  -23.1404  -46.7919 H         1 UNK         0.0600 
    144 H144        1.3026  -21.2330  -44.7408 H         1 UNK         0.3000 
    145 H145       -1.0008  -23.0404  -42.6964 H         1 UNK         0.0600 
    146 H146        0.8001  -22.6058  -41.0374 H         1 UNK         0.0600 
    147 H147        1.9670  -22.3693  -42.3351 H         1 UNK         0.0600 
    148 H148        1.2247  -23.9436  -42.0954 H         1 UNK         0.0600 
    149 H149        0.2593  -20.4907  -42.3874 H         1 UNK         0.3000 
    150 H150       -2.2073  -18.6135  -44.2090 H         1 UNK         0.0600 
    151 H151       -3.1105  -18.7888  -41.9302 H         1 UNK         0.0600 
    152 H152       -2.1341  -17.3344  -42.0647 H         1 UNK         0.0600 
    153 H153       -1.4973  -18.7526  -41.2360 H         1 UNK         0.0600 
    154 H154        0.1904  -17.7992  -42.9141 H         1 UNK         0.3000 
    155 H155        2.4495  -18.5167  -45.5907 H         1 UNK         0.0600 
    156 H156        1.7477  -16.3361  -46.2843 H         1 UNK         0.0600 
    157 H157        3.0550  -16.0980  -45.1432 H         1 UNK         0.0600 
    158 H158        1.3855  -15.8239  -44.6388 H         1 UNK         0.0600 
    159 H159        2.6408  -17.3315  -42.9481 H         1 UNK         0.3000 
    160 H160        3.4444  -20.3643  -41.2856 H         1 UNK         0.0600 
    161 H161        5.2620  -18.0226  -42.0792 H         1 UNK         0.0600 
    162 H162        5.6053  -19.7250  -42.3631 H         1 UNK         0.0600 
    163 H163        5.5143  -19.1161  -40.7182 H         1 UNK         0.0600 
    164 H164        3.4084  -17.5978  -40.4945 H         1 UNK         0.3000 
    165 H165       -0.0493  -17.4441  -39.6370 H         1 UNK         0.0600 
    166 H166        0.8972  -16.7948  -37.4433 H         1 UNK         0.0600 
    167 H167        1.0448  -18.5299  -37.6705 H         1 UNK         0.0600 
    168 H168        2.4568  -17.4992  -37.8712 H         1 UNK         0.0600 
    169 H169        2.0515  -15.5456  -39.3593 H         1 UNK         0.3000 
    170 H170        1.6693  -13.5308  -40.7368 H         1 UNK         0.0600 
    171 H171        3.5376  -15.0616  -42.6631 H         1 UNK         0.0600 
    172 H172        3.8418  -13.4573  -42.0065 H         1 UNK         0.0600 
    173 H173        3.8428  -14.8457  -40.9436 H         1 UNK         0.0600 
    174 H174        0.5527  -14.3580  -43.2129 H         1 UNK         0.3000 
    175 H175        0.5291  -11.0969  -44.6766 H         1 UNK         0.0600 
    176 H176        1.6543  -13.6803  -45.8579 H         1 UNK         0.0600 
    177 H177        1.0886  -12.2687  -46.7517 H         1 UNK         0.0600 
    178 H178        2.5180  -12.1547  -45.7402 H         1 UNK         0.0600 
    179 H179       -0.7763  -13.5612  -45.3999 H         1 UNK         0.3000 
    180 H180       -3.6496  -13.1765  -43.5955 H         1 UNK         0.0600 
    181 H181       -5.0053  -12.1005  -45.3870 H         1 UNK         0.0600 
    182 H182       -3.5526  -11.3615  -46.0607 H         1 UNK         0.0600 
    183 H183       -4.1195  -10.9031  -44.4593 H         1 UNK         0.0600 
    184 H184       -2.9792  -13.7393  -46.4394 H         1 UNK         0.3000 
    185 H185       -2.7957  -17.2167  -45.8526 H         1 UNK         0.0600 
    186 H186       -5.1237  -15.6917  -47.1320 H         1 UNK         0.0600 
    187 H187       -4.6910  -17.3589  -47.4850 H         1 UNK         0.0600 
    188 H188       -5.2643  -16.9235  -45.8829 H         1 UNK         0.0600 
    189 H189       -2.7809  -16.3375  -48.3362 H         1 UNK         0.3000 
    190 H190       -0.7973  -20.4900  -46.4442 H         1 UNK         0.3000 
    191 H191       -2.2934  -21.0297  -48.7722 H         1 UNK         0.0600 
    192 H192       -2.4201  -18.9269  -47.4588 H         1 UNK         0.0600 
    193 H193       -3.2303  -19.7762  -46.1444 H         1 UNK         0.0600 
    194 H194       -4.0102  -19.6250  -47.7100 H         1 UNK         0.0600 
    195 H195       -2.6651  -22.3551  -45.4509 H         1 UNK         0.3000 
    196 H196       -4.9830  -23.9002  -45.9363 H         1 UNK         0.0600 
    197 H197       -4.0865  -23.4138  -43.6655 H         1 UNK         0.0600 
    198 H198       -2.6914  -24.4444  -43.9766 H         1 UNK         0.0600 
    199 H199       -4.3023  -25.1420  -43.9011 H         1 UNK         0.0600 
    200 H200       -1.5383  -24.6668  -46.5072 H         1 UNK         0.3000 
    201 H201       -1.9944  -27.3600  -47.4448 H         1 UNK         0.0600 
    202 H202        0.1992  -26.6225  -46.5463 H         1 UNK         0.0600 
    203 H203        0.3875  -25.4809  -47.8737 H         1 UNK         0.0600 
    204 H204        0.3650  -27.2088  -48.1950 H         1 UNK         0.0600 
    205 H205       -1.7247  -24.1697  -49.0471 H         1 UNK         0.3000 
    206 H206       -1.9134  -25.0785  -51.7321 H         1 UNK         0.0600 
    207 H207       -2.7710  -22.3552  -50.6257 H         1 UNK         0.0600 
    208 H208       -1.0950  -22.7979  -50.9539 H         1 UNK         0.0600 
    209 H209       -2.2565  -22.7227  -52.2604 H         1 UNK         0.0600 
    210 H210       -4.3845  -24.3831  -49.3312 H         1 UNK         0.3000 
    211 H211       -6.5163  -24.8582  -49.0934 H         1 UNK         0.0600 
    212 H212       -6.0279  -26.9194  -51.3150 H         1 UNK         0.0600 
    213 H213       -7.4567  -26.8645  -50.2854 H         1 UNK         0.0600 
    214 H214       -5.8769  -27.1656  -49.5815 H         1 UNK         0.0600 
    215 H215       -6.9822  -25.5749  -52.5122 H         1 UNK         0.3000 
    216 H216       -9.0219  -23.5655  -52.8480 H         1 UNK         0.0600 
    217 H217       -9.0199  -24.3978  -55.2040 H         1 UNK         0.0600 
    218 H218       -9.0694  -25.7325  -54.0636 H         1 UNK         0.0600 
    219 H219       -7.5621  -25.3313  -54.8881 H         1 UNK         0.0600 
    220 H220       -5.5485  -23.5994  -53.2999 H         1 UNK         0.3000 
    221 H221       -5.5505  -21.0929  -54.9017 H         1 UNK         0.0600 
    222 H222       -3.2985  -23.0588  -54.2566 H         1 UNK         0.0600 
    223 H223       -4.2375  -23.0266  -55.7422 H         1 UNK         0.0600 
    224 H224       -3.2019  -21.6746  -55.3424 H         1 UNK         0.0600 
    225 H225       -6.2415  -21.2585  -51.9542 H         1 UNK         0.3000 
    226 H226       -4.1640  -19.9680  -50.4430 H         1 UNK         0.0600 
    227 H227       -5.9117  -21.3382  -49.3757 H         1 UNK         0.0600 
    228 H228       -6.0364  -19.6964  -48.7748 H         1 UNK         0.0600 
    229 H229       -7.1762  -20.2733  -49.9798 H         1 UNK         0.0600 
    230 H230       -4.1300  -18.5271  -52.6699 H         1 UNK         0.3000 
    231 H231       -4.7610  -15.8037  -51.8204 H         1 UNK         0.0600 
    232 H232       -5.9741  -15.2599  -53.9536 H         1 UNK         0.0600 
    233 H233       -6.8852  -16.4023  -52.9794 H         1 UNK         0.0600 
    234 H234       -5.9895  -16.9664  -54.3885 H         1 UNK         0.0600 
    235 H235       -2.4081  -16.6201  -51.6660 H         1 UNK         0.3000 
    236 H236       -0.2687  -16.4128  -52.2293 H         1 UNK         0.0600 
    237 H237       -1.1843  -14.4279  -54.3717 H         1 UNK         0.0600 
    238 H238       -0.9159  -14.0396  -52.6718 H         1 UNK         0.0600 
    239 H239        0.4266  -14.5547  -53.6765 H         1 UNK         0.0600 
    240 H240       -1.6977  -18.5900  -53.3598 H         1 UNK         0.3000 
    241 H241       -1.4581  -20.3254  -54.6428 H         1 UNK         0.0600 
    242 H242       -2.9155  -18.1018  -57.4824 H         1 UNK         0.3800 
    243 H243       -2.6409  -17.5886  -55.8378 H         1 UNK         0.3800 
    244 H244        1.1593  -19.2911  -55.7926 H         1 UNK         0.0800 
    245 H245        0.5659  -20.9236  -55.8427 H         1 UNK         0.0800 
    246 H246        2.4288  -18.3307  -54.1903 H         1 UNK         0.0800 
    247 H247        3.5776  -19.6280  -53.9884 H         1 UNK         0.0800 
@<TRIPOS>BOND
     1    1    2 1    
     2    1  127 1    
     3    1  128 1    
     4    1  129 1    
     5    2    3 2    
     6    2    4 am   BACKBONE|DICT|INTERRES
     7    4    5 1    
     8    4  130 1    
     9    5    6 1    
    10    5   65 1    
    11    5  131 1    
    12    6    7 1    
    13    6  132 1    
    14    6  133 1    
    15    7    8 1    
    16    8    9 1    
    17    8  134 1    
    18    8  135 1    
    19    9   10 ar   
    20    9   14 ar   
    21   10   11 ar   
    22   10  136 1    
    23   11   12 ar   
    24   11  126 1    
    25   12   13 ar   
    26   12  137 1    
    27   13   14 ar   
    28   13   15 1    
    29   14  138 1    
    30   15   16 1    
    31   15  139 1    
    32   15  140 1    
    33   16   17 1    
    34   17   18 1    
    35   17  141 1    
    36   17  142 1    
    37   18   19 1    
    38   18   67 1    
    39   18  143 1    
    40   19   20 am   BACKBONE|DICT|INTERRES
    41   19  144 1    
    42   20   21 2    
    43   20   22 1    
    44   22   23 1    
    45   22   24 1    
    46   22  145 1    
    47   23  146 1    
    48   23  147 1    
    49   23  148 1    
    50   24   25 am   BACKBONE|DICT|INTERRES
    51   24  149 1    
    52   25   26 2    
    53   25   27 1    
    54   27   28 1    
    55   27   29 1    
    56   27  150 1    
    57   28  151 1    
    58   28  152 1    
    59   28  153 1    
    60   29   30 am   BACKBONE|DICT|INTERRES
    61   29  154 1    
    62   30   31 2    
    63   30   32 1    
    64   32   33 1    
    65   32   34 1    
    66   32  155 1    
    67   33  156 1    
    68   33  157 1    
    69   33  158 1    
    70   34   35 am   BACKBONE|DICT|INTERRES
    71   34  159 1    
    72   35   36 2    
    73   35   37 1    
    74   37   38 1    
    75   37   39 1    
    76   37  160 1    
    77   38  161 1    
    78   38  162 1    
    79   38  163 1    
    80   39   40 am   BACKBONE|DICT|INTERRES
    81   39  164 1    
    82   40   41 2    
    83   40   42 1    
    84   42   43 1    
    85   42   44 1    
    86   42  165 1    
    87   43  166 1    
    88   43  167 1    
    89   43  168 1    
    90   44   45 am   BACKBONE|DICT|INTERRES
    91   44  169 1    
    92   45   46 2    
    93   45   47 1    
    94   47   48 1    
    95   47   49 1    
    96   47  170 1    
    97   48  171 1    
    98   48  172 1    
    99   48  173 1    
   100   49   50 am   BACKBONE|DICT|INTERRES
   101   49  174 1    
   102   50   51 2    
   103   50   52 1    
   104   52   53 1    
   105   52   54 1    
   106   52  175 1    
   107   53  176 1    
   108   53  177 1    
   109   53  178 1    
   110   54   55 am   BACKBONE|DICT|INTERRES
   111   54  179 1    
   112   55   56 2    
   113   55   57 1    
   114   57   58 1    
   115   57   59 1    
   116   57  180 1    
   117   58  181 1    
   118   58  182 1    
   119   58  183 1    
   120   59   60 am   BACKBONE|DICT|INTERRES
   121   59  184 1    
   122   60   61 2    
   123   60   62 1    
   124   62   63 1    
   125   62   64 1    
   126   62  185 1    
   127   63  186 1    
   128   63  187 1    
   129   63  188 1    
   130   64   65 am   BACKBONE|DICT|INTERRES
   131   64  189 1    
   132   65   66 2    
   133   67   68 2    
   134   67   69 am   BACKBONE|DICT|INTERRES
   135   69   70 1    
   136   69  190 1    
   137   70   71 1    
   138   70   72 1    
   139   70  191 1    
   140   71  192 1    
   141   71  193 1    
   142   71  194 1    
   143   72   73 2    
   144   72   74 am   BACKBONE|DICT|INTERRES
   145   74   75 1    
   146   74  195 1    
   147   75   76 1    
   148   75   77 1    
   149   75  196 1    
   150   76  197 1    
   151   76  198 1    
   152   76  199 1    
   153   77   78 2    
   154   77   79 am   BACKBONE|DICT|INTERRES
   155   79   80 1    
   156   79  200 1    
   157   80   81 1    
   158   80   82 1    
   159   80  201 1    
   160   81  202 1    
   161   81  203 1    
   162   81  204 1    
   163   82   83 2    
   164   82   84 am   BACKBONE|DICT|INTERRES
   165   84   85 1    
   166   84  205 1    
   167   85   86 1    
   168   85   87 1    
   169   85  206 1    
   170   86  207 1    
   171   86  208 1    
   172   86  209 1    
   173   87   88 2    
   174   87   89 am   BACKBONE|DICT|INTERRES
   175   89   90 1    
   176   89  210 1    
   177   90   91 1    
   178   90   92 1    
   179   90  211 1    
   180   91  212 1    
   181   91  213 1    
   182   91  214 1    
   183   92   93 2    
   184   92   94 am   BACKBONE|DICT|INTERRES
   185   94   95 1    
   186   94  215 1    
   187   95   96 1    
   188   95   97 1    
   189   95  216 1    
   190   96  217 1    
   191   96  218 1    
   192   96  219 1    
   193   97   98 2    
   194   97   99 am   BACKBONE|DICT|INTERRES
   195   99  100 1    
   196   99  220 1    
   197  100  101 1    
   198  100  102 1    
   199  100  221 1    
   200  101  222 1    
   201  101  223 1    
   202  101  224 1    
   203  102  103 2    
   204  102  104 am   BACKBONE|DICT|INTERRES
   205  104  105 1    
   206  104  225 1    
   207  105  106 1    
   208  105  107 1    
   209  105  226 1    
   210  106  227 1    
   211  106  228 1    
   212  106  229 1    
   213  107  108 2    
   214  107  109 am   BACKBONE|DICT|INTERRES
   215  109  110 1    
   216  109  230 1    
   217  110  111 1    
   218  110  112 1    
   219  110  231 1    
   220  111  232 1    
   221  111  233 1    
   222  111  234 1    
   223  112  113 2    
   224  112  114 am   BACKBONE|DICT|INTERRES
   225  114  115 1    
   226  114  235 1    
   227  115  116 1    
   228  115  117 1    
   229  115  236 1    
   230  116  237 1    
   231  116  238 1    
   232  116  239 1    
   233  117  118 2    
   234  117  119 am   BACKBONE|DICT|INTERRES
   235  119  120 1    
   236  119  240 1    
   237  120  121 1    
   238  120  124 1    
   239  120  241 1    
   240  121  122 am   BACKBONE|DICT|INTERRES
   241  121  123 2    
   242  122  242 1    
   243  122  243 1    
   244  124  125 1    
   245  124  244 1    
   246  124  245 1    
   247  125  126 1    
   248  126  246 1    
   249  126  247 1    
@<TRIPOS>SUBSTRUCTURE
     1 UNK         1 GROUP             0       ****    0 ROOT    
