@<TRIPOS>MOLECULE
3R540
247   249    1
SMALL
USER_CHARGES


@<TRIPOS>ATOM
      1 CA         -3.0896  -14.7718  -51.6390 C.3       0 UNK        -0.1800 
      2 C          -1.7481  -14.2400  -51.1539 C.2       0 UNK         0.5000 
      3 O          -0.8281  -14.0795  -51.9551 O.2       0 UNK        -0.5000 
      4 N          -1.6397  -13.9617  -49.8514 N.am      1 UNK        -0.5000 
      5 CA         -0.4438  -13.4512  -49.1858 C.3       1 UNK         0.1400 
      6 C6          0.3288  -14.5949  -48.4867 C.3       23 UNK        -0.0398 
      7 S7          2.0376  -14.1504  -48.0086 S.3       23 UNK        -0.2404 
      8 C8          2.9979  -14.4562  -49.5305 C.3       23 UNK        -0.0205 
      9 C9          2.8093  -15.8621  -50.0829 C.ar      23 UNK        -0.0193 
     10 C10         1.9937  -16.0621  -51.1999 C.ar      23 UNK        -0.1150 
     11 C11         1.7709  -17.3462  -51.7002 C.ar      23 UNK        -0.0193 
     12 C12         2.3972  -18.4352  -51.0891 C.ar      23 UNK        -0.1150 
     13 C13         3.2075  -18.2535  -49.9643 C.ar      23 UNK        -0.0193 
     14 C14         3.4225  -16.9611  -49.4725 C.ar      23 UNK        -0.1150 
     15 C15         3.8028  -19.4689  -49.2632 C.3       23 UNK        -0.0205 
     16 S16         3.1933  -19.6926  -47.5552 S.3       23 UNK        -0.2404 
     17 C17         1.3841  -19.4784  -47.7006 C.3       23 UNK        -0.0398 
     18 CA          0.5531  -20.7552  -47.4291 C.3       11 UNK         0.1400 
     19 N           0.8652  -21.3728  -46.1375 N.am      11 UNK        -0.5000 
     20 C           0.3552  -22.5224  -45.6763 C.2       10 UNK         0.5000 
     21 O          -0.4003  -23.2370  -46.3357 O.2       10 UNK        -0.5000 
     22 CA          0.6752  -22.9001  -44.2151 C.3       10 UNK         0.1400 
     23 CB          0.8706  -24.4179  -44.0223 C.3       10 UNK        -0.1800 
     24 N           1.7796  -22.1338  -43.6275 N.am      10 UNK        -0.5000 
     25 C           3.0854  -22.1937  -43.9301 C.2       9 UNK         0.5000 
     26 O           3.5612  -22.9468  -44.7794 O.2       9 UNK        -0.5000 
     27 CA          4.0227  -21.2348  -43.1669 C.3       9 UNK         0.1400 
     28 CB          4.5427  -20.1336  -44.1036 C.3       9 UNK        -0.1800 
     29 N           3.3902  -20.5979  -42.0100 N.am      9 UNK        -0.5000 
     30 C           3.1267  -21.1988  -40.8423 C.2       8 UNK         0.5000 
     31 O           3.4256  -22.3657  -40.5879 O.2       8 UNK        -0.5000 
     32 CA          2.3719  -20.3573  -39.7983 C.3       8 UNK         0.1400 
     33 CB          3.3406  -19.4492  -39.0250 C.3       8 UNK        -0.1800 
     34 N           1.3180  -19.5390  -40.4021 N.am      8 UNK        -0.5000 
     35 C           0.1519  -20.0127  -40.8631 C.2       7 UNK         0.5000 
     36 O          -0.1633  -21.2019  -40.8347 O.2       7 UNK        -0.5000 
     37 CA         -0.8108  -18.9864  -41.4878 C.3       7 UNK         0.1400 
     38 CB         -1.6009  -18.2440  -40.4003 C.3       7 UNK        -0.1800 
     39 N          -0.1056  -18.0160  -42.3237 N.am      7 UNK        -0.5000 
     40 C           0.3972  -18.2996  -43.5333 C.2       6 UNK         0.5000 
     41 O           0.2259  -19.3755  -44.1058 O.2       6 UNK        -0.5000 
     42 CA          1.2405  -17.2142  -44.2264 C.3       6 UNK         0.1400 
     43 CB          0.3616  -16.4098  -45.1902 C.3       6 UNK        -0.1800 
     44 N           1.8946  -16.2885  -43.3015 N.am      6 UNK        -0.5000 
     45 C           2.7816  -16.6324  -42.3558 C.2       5 UNK         0.5000 
     46 O           3.1869  -17.7824  -42.1961 O.2       5 UNK        -0.5000 
     47 CA          3.2656  -15.5306  -41.3927 C.3       5 UNK         0.1400 
     48 CB          4.6938  -15.0982  -41.7548 C.3       5 UNK        -0.1800 
     49 N           2.4067  -14.3451  -41.3578 N.am      5 UNK        -0.5000 
     50 C           1.1161  -14.3106  -40.9918 C.2       4 UNK         0.5000 
     51 O           0.4929  -15.2947  -40.5905 O.2       4 UNK        -0.5000 
     52 CA          0.3935  -12.9584  -41.1614 C.3       4 UNK         0.1400 
     53 CB          0.3641  -12.1927  -39.8297 C.3       4 UNK        -0.1800 
     54 N           1.0062  -12.1109  -42.1929 N.am      4 UNK        -0.5000 
     55 C           0.9969  -12.3888  -43.5042 C.2       3 UNK         0.5000 
     56 O           0.4290  -13.3684  -43.9906 O.2       3 UNK        -0.5000 
     57 CA          1.8340  -11.4690  -44.4074 C.3       3 UNK         0.1400 
     58 CB          3.1949  -12.1189  -44.7049 C.3       3 UNK        -0.1800 
     59 N           1.1551  -11.1926  -45.6713 N.am      3 UNK        -0.5000 
     60 C           0.1393  -10.3305  -45.8127 C.2       2 UNK         0.5000 
     61 O          -0.3329   -9.6773  -44.8809 O.2       2 UNK        -0.5000 
     62 CA         -0.4291  -10.1347  -47.2318 C.3       2 UNK         0.1400 
     63 CB          0.1435   -8.8547  -47.8626 C.3       2 UNK        -0.1800 
     64 N          -0.1484  -11.2630  -48.1225 N.am      2 UNK        -0.5000 
     65 C          -0.8973  -12.3701  -48.1902 C.2       1 UNK         0.5000 
     66 O          -1.9123  -12.5569  -47.5130 O.2       1 UNK        -0.5000 
     67 C          -0.9446  -20.4021  -47.5218 C.2       11 UNK         0.5000 
     68 O          -1.5729  -20.6579  -48.5480 O.2       11 UNK        -0.5000 
     69 N          -1.4889  -19.8453  -46.4288 N.am      12 UNK        -0.5000 
     70 CA         -2.8969  -19.4719  -46.3031 C.3       12 UNK         0.1400 
     71 CB         -3.0866  -18.6104  -45.0459 C.3       12 UNK        -0.1800 
     72 C          -3.8241  -20.6983  -46.2692 C.2       12 UNK         0.5000 
     73 O          -4.9006  -20.6615  -46.8631 O.2       12 UNK        -0.5000 
     74 N          -3.3727  -21.7739  -45.6084 N.am      13 UNK        -0.5000 
     75 CA         -4.0679  -23.0596  -45.5532 C.3       13 UNK         0.1400 
     76 CB         -3.4115  -23.9603  -44.4960 C.3       13 UNK        -0.1800 
     77 C          -4.1028  -23.7485  -46.9278 C.2       13 UNK         0.5000 
     78 O          -5.1572  -24.2347  -47.3360 O.2       13 UNK        -0.5000 
     79 N          -2.9658  -23.7289  -47.6382 N.am      14 UNK        -0.5000 
     80 CA         -2.8390  -24.2188  -49.0096 C.3       14 UNK         0.1400 
     81 CB         -1.3634  -24.2029  -49.4305 C.3       14 UNK        -0.1800 
     82 C          -3.7104  -23.4238  -49.9981 C.2       14 UNK         0.5000 
     83 O          -4.3999  -24.0337  -50.8142 O.2       14 UNK        -0.5000 
     84 N          -3.7161  -22.0887  -49.8702 N.am      15 UNK        -0.5000 
     85 CA         -4.5679  -21.1875  -50.6466 C.3       15 UNK         0.1400 
     86 CB         -4.1839  -19.7274  -50.3607 C.3       15 UNK        -0.1800 
     87 C          -6.0686  -21.4150  -50.4006 C.2       15 UNK         0.5000 
     88 O          -6.8369  -21.4270  -51.3601 O.2       15 UNK        -0.5000 
     89 N          -6.4622  -21.6282  -49.1382 N.am      16 UNK        -0.5000 
     90 CA         -7.8372  -21.9574  -48.7592 C.3       16 UNK         0.1400 
     91 CB         -7.9754  -21.9093  -47.2299 C.3       16 UNK        -0.1800 
     92 C          -8.3000  -23.3216  -49.3069 C.2       16 UNK         0.5000 
     93 O          -9.4560  -23.4510  -49.7120 O.2       16 UNK        -0.5000 
     94 N          -7.3935  -24.3072  -49.3101 N.am      17 UNK        -0.5000 
     95 CA         -7.6504  -25.6642  -49.7818 C.3       17 UNK         0.1400 
     96 CB         -6.5994  -26.6161  -49.1873 C.3       17 UNK        -0.1800 
     97 C          -7.6820  -25.7774  -51.3168 C.2       17 UNK         0.5000 
     98 O          -8.6461  -26.3174  -51.8617 O.2       17 UNK        -0.5000 
     99 N          -6.6145  -25.3156  -51.9809 N.am      18 UNK        -0.5000 
    100 CA        -6.3394  -25.6093  -53.3896 C.3       18 UNK         0.1400 
    101 CB        -4.8610  -26.0116  -53.5199 C.3       18 UNK        -0.1800 
    102 C         -6.6491  -24.4482  -54.3488 C.2       18 UNK         0.5000 
    103 O         -6.7473  -24.6958  -55.5521 O.2       18 UNK        -0.5000 
    104 N         -6.7764  -23.2171  -53.8295 N.am      19 UNK        -0.5000 
    105 CA        -6.8766  -21.9631  -54.5890 C.3       19 UNK         0.1400 
    106 CB        -8.2080  -21.8931  -55.3713 C.3       19 UNK        -0.1800 
    107 C         -5.6161  -21.7166  -55.4501 C.2       19 UNK         0.5000 
    108 O         -4.5164  -22.0794  -55.0229 O.2       19 UNK        -0.5000 
    109 N         -5.7870  -21.0976  -56.6283 N.am      20 UNK        -0.5000 
    110 CA        -4.7507  -20.7937  -57.6228 C.3       20 UNK         0.1400 
    111 CB        -4.2934  -22.0966  -58.3186 C.3       20 UNK        -0.1800 
    112 C         -3.5928  -19.9564  -57.0315 C.2       20 UNK         0.5000 
    113 O         -3.8491  -19.0231  -56.2668 O.2       20 UNK        -0.5000 
    114 N         -2.3441  -20.3048  -57.3661 N.am      21 UNK        -0.5000 
    115 CA        -1.1181  -19.6942  -56.8477 C.3       21 UNK         0.1400 
    116 CB        -0.0024  -19.8665  -57.8946 C.3       21 UNK        -0.1800 
    117 C         -0.7351  -20.2673  -55.4648 C.2       21 UNK         0.5000 
    118 O          0.3908  -20.7316  -55.2765 O.2       21 UNK        -0.5000 
    119 N         -1.6892  -20.2249  -54.5280 N.am      22 UNK        -0.5000 
    120 CA        -1.5872  -20.7174  -53.1448 C.3       22 UNK         0.1400 
    121 C         -1.4027  -22.2614  -53.0578 C.2       22 UNK         0.5000 
    122 N         -2.2128  -23.0390  -53.7631 N.am      22 UNK        -0.7600 
    123 O         -0.5252  -22.7650  -52.3624 O.2       22 UNK        -0.5000 
    124 C124       -0.5603  -19.9370  -52.2777 C.3       23 UNK        -0.0398 
    125 S125       -0.8078  -18.1264  -52.3222 S.3       23 UNK        -0.2404 
    126 C126        0.8293  -17.5506  -52.8782 C.3       23 UNK        -0.0205 
    127 H127       -3.8062  -14.8707  -50.8234 H         1 UNK         0.0600 
    128 H128       -3.5127  -14.0994  -52.3852 H         1 UNK         0.0600 
    129 H129       -2.9596  -15.7525  -52.0969 H         1 UNK         0.0600 
    130 H130       -2.4453  -14.0454  -49.2446 H         1 UNK         0.3000 
    131 H131        0.2075  -12.9817  -49.9267 H         1 UNK         0.0600 
    132 H132       -0.2085  -14.9188  -47.5943 H         1 UNK         0.0800 
    133 H133        0.3546  -15.4772  -49.1245 H         1 UNK         0.0800 
    134 H134        4.0552  -14.2928  -49.3174 H         1 UNK         0.0800 
    135 H135        2.7224  -13.7115  -50.2789 H         1 UNK         0.0800 
    136 H136        1.5070  -15.2165  -51.6647 H         1 UNK         0.1150 
    137 H137        2.2286  -19.4321  -51.4675 H         1 UNK         0.1150 
    138 H138        4.0383  -16.8149  -48.5961 H         1 UNK         0.1150 
    139 H139        3.5927  -20.3801  -49.8252 H         1 UNK         0.0800 
    140 H140        4.8885  -19.3696  -49.2396 H         1 UNK         0.0800 
    141 H141        1.1260  -19.0853  -48.6832 H         1 UNK         0.0800 
    142 H142        1.1146  -18.6932  -46.9956 H         1 UNK         0.0800 
    143 H143        0.7752  -21.4859  -48.2095 H         1 UNK         0.0600 
    144 H144        1.4263  -20.8224  -45.5034 H         1 UNK         0.3000 
    145 H145       -0.2081  -22.6148  -43.6421 H         1 UNK         0.0600 
    146 H146        1.0876  -24.6581  -42.9815 H         1 UNK         0.0600 
    147 H147       -0.0295  -24.9672  -44.2995 H         1 UNK         0.0600 
    148 H148        1.6851  -24.8047  -44.6347 H         1 UNK         0.0600 
    149 H149        1.5043  -21.4608  -42.9256 H         1 UNK         0.3000 
    150 H150        4.8760  -21.8198  -42.8179 H         1 UNK         0.0600 
    151 H151        5.0504  -20.5594  -44.9699 H         1 UNK         0.0600 
    152 H152        5.2567  -19.4867  -43.5938 H         1 UNK         0.0600 
    153 H153        3.7308  -19.5071  -44.4734 H         1 UNK         0.0600 
    154 H154        3.1722  -19.6076  -42.1047 H         1 UNK         0.3000 
    155 H155        1.9094  -21.0439  -39.0861 H         1 UNK         0.0600 
    156 H156        3.8319  -18.7288  -39.6798 H         1 UNK         0.0600 
    157 H157        4.1214  -20.0367  -38.5403 H         1 UNK         0.0600 
    158 H158        2.8213  -18.8931  -38.2446 H         1 UNK         0.0600 
    159 H159        1.5172  -18.5557  -40.5116 H         1 UNK         0.3000 
    160 H160       -1.5231  -19.5329  -42.1090 H         1 UNK         0.0600 
    161 H161       -2.3285  -17.5618  -40.8403 H         1 UNK         0.0600 
    162 H162       -0.9460  -17.6609  -39.7515 H         1 UNK         0.0600 
    163 H163       -2.1507  -18.9441  -39.7701 H         1 UNK         0.0600 
    164 H164        0.0675  -17.1033  -41.9204 H         1 UNK         0.3000 
    165 H165        2.0198  -17.7163  -44.8024 H         1 UNK         0.0600 
    166 H166        0.9569  -15.6661  -45.7167 H         1 UNK         0.0600 
    167 H167       -0.1084  -17.0484  -45.9380 H         1 UNK         0.0600 
    168 H168       -0.4364  -15.8850  -44.6633 H         1 UNK         0.0600 
    169 H169        1.6003  -15.3223  -43.3596 H         1 UNK         0.3000 
    170 H170        3.2788  -15.9613  -40.3898 H         1 UNK         0.0600 
    171 H171        5.3719  -15.9529  -41.7581 H         1 UNK         0.0600 
    172 H172        4.7370  -14.6414  -42.7442 H         1 UNK         0.0600 
    173 H173        5.0842  -14.3794  -41.0342 H         1 UNK         0.0600 
    174 H174        2.8269  -13.4826  -41.6692 H         1 UNK         0.3000 
    175 H175       -0.6360  -13.1701  -41.4595 H         1 UNK         0.0600 
    176 H176       -0.2045  -11.2668  -39.9195 H         1 UNK         0.0600 
    177 H177       -0.1095  -12.7881  -39.0476 H         1 UNK         0.0600 
    178 H178        1.3686  -11.9395  -39.4871 H         1 UNK         0.0600 
    179 H179        1.4925  -11.2873  -41.8672 H         1 UNK         0.3000 
    180 H180        2.0101  -10.5226  -43.8911 H         1 UNK         0.0600 
    181 H181        3.0815  -13.0795  -45.2099 H         1 UNK         0.0600 
    182 H182        3.7542  -12.2959  -43.7854 H         1 UNK         0.0600 
    183 H183        3.8089  -11.4784  -45.3386 H         1 UNK         0.0600 
    184 H184        1.4482  -11.7338  -46.4710 H         1 UNK         0.3000 
    185 H185       -1.5105  -10.0085  -47.1388 H         1 UNK         0.0600 
    186 H186        1.2263   -8.9137  -47.9833 H         1 UNK         0.0600 
    187 H187       -0.2948   -8.6679  -48.8434 H         1 UNK         0.0600 
    188 H188       -0.0706   -7.9833  -47.2420 H         1 UNK         0.0600 
    189 H189        0.6675  -11.1790  -48.7127 H         1 UNK         0.3000 
    190 H190       -0.9003  -19.6999  -45.6127 H         1 UNK         0.3000 
    191 H191       -3.1684  -18.8708  -47.1733 H         1 UNK         0.0600 
    192 H192       -2.8088  -19.1514  -44.1412 H         1 UNK         0.0600 
    193 H193       -4.1272  -18.3022  -44.9378 H         1 UNK         0.0600 
    194 H194       -2.4836  -17.7038  -45.0931 H         1 UNK         0.0600 
    195 H195       -2.4640  -21.7254  -45.1751 H         1 UNK         0.3000 
    196 H196       -5.0995  -22.8736  -45.2466 H         1 UNK         0.0600 
    197 H197       -3.9455  -24.9073  -44.4086 H         1 UNK         0.0600 
    198 H198       -3.4232  -23.4890  -43.5131 H         1 UNK         0.0600 
    199 H199       -2.3763  -24.1920  -44.7452 H         1 UNK         0.0600 
    200 H200       -2.1231  -23.3548  -47.2112 H         1 UNK         0.3000 
    201 H201       -3.1825  -25.2552  -49.0240 H         1 UNK         0.0600 
    202 H202       -0.7532  -24.8025  -48.7550 H         1 UNK         0.0600 
    203 H203       -0.9558  -23.1916  -49.4404 H         1 UNK         0.0600 
    204 H204       -1.2419  -24.6160  -50.4324 H         1 UNK         0.0600 
    205 H205       -3.0783  -21.6558  -49.2079 H         1 UNK         0.3000 
    206 H206       -4.3859  -21.3940  -51.7025 H         1 UNK         0.0600 
    207 H207       -3.1299  -19.5429  -50.5659 H         1 UNK         0.0600 
    208 H208       -4.7610  -19.0431  -50.9836 H         1 UNK         0.0600 
    209 H209       -4.3691  -19.4599  -49.3204 H         1 UNK         0.0600 
    210 H210       -5.7864  -21.5422  -48.3850 H         1 UNK         0.3000 
    211 H211       -8.4927  -21.1927  -49.1811 H         1 UNK         0.0600 
    212 H212       -7.3166  -22.6286  -46.7428 H         1 UNK         0.0600 
    213 H213       -8.9965  -22.1371  -46.9220 H         1 UNK         0.0600 
    214 H214       -7.7325  -20.9192  -46.8438 H         1 UNK         0.0600 
    215 H215       -6.4797  -24.1298  -48.9066 H         1 UNK         0.3000 
    216 H216       -8.6271  -25.9781  -49.4067 H         1 UNK         0.0600 
    217 H217       -6.7637  -27.6408  -49.5229 H         1 UNK         0.0600 
    218 H218       -6.6447  -26.6193  -48.0981 H         1 UNK         0.0600 
    219 H219       -5.5866  -26.3327  -49.4764 H         1 UNK         0.0600 
    220 H220       -5.8624  -24.8602  -51.4647 H         1 UNK         0.3000 
    221 H221       -6.9385  -26.4618  -53.7168 H         1 UNK         0.0600 
    222 H222       -4.6208  -26.2990  -54.5444 H         1 UNK         0.0600 
    223 H223       -4.1973  -25.1909  -53.2469 H         1 UNK         0.0600 
    224 H224       -4.6245  -26.8617  -52.8797 H         1 UNK         0.0600 
    225 H225       -6.6781  -23.1039  -52.8286 H         1 UNK         0.3000 
    226 H226       -6.8913  -21.1540  -53.8605 H         1 UNK         0.0600 
    227 H227       -8.2282  -22.5866  -56.2127 H         1 UNK         0.0600 
    228 H228       -8.3857  -20.8908  -55.7624 H         1 UNK         0.0600 
    229 H229       -9.0520  -22.1331  -54.7242 H         1 UNK         0.0600 
    230 H230       -6.7216  -20.8049  -56.8745 H         1 UNK         0.3000 
    231 H231       -5.2235  -20.1633  -58.3772 H         1 UNK         0.0600 
    232 H232       -5.1486  -22.6503  -58.7067 H         1 UNK         0.0600 
    233 H233       -3.7585  -22.7581  -57.6354 H         1 UNK         0.0600 
    234 H234       -3.6412  -21.8888  -59.1677 H         1 UNK         0.0600 
    235 H235       -2.2191  -21.1090  -57.9639 H         1 UNK         0.3000 
    236 H236       -1.2815  -18.6225  -56.7148 H         1 UNK         0.0600 
    237 H237       -0.2836  -19.4179  -58.8476 H         1 UNK         0.0600 
    238 H238        0.9184  -19.3808  -57.5693 H         1 UNK         0.0600 
    239 H239        0.2245  -20.9185  -58.0727 H         1 UNK         0.0600 
    240 H240       -2.5875  -19.8410  -54.7969 H         1 UNK         0.3000 
    241 H241       -2.5647  -20.5244  -52.7099 H         1 UNK         0.0600 
    242 H242       -2.0925  -24.0368  -53.7208 H         1 UNK         0.3800 
    243 H243       -2.9829  -22.6467  -54.3049 H         1 UNK         0.3800 
    244 H244       -0.6294  -20.2543  -51.2356 H         1 UNK         0.0800 
    245 H245        0.4497  -20.1854  -52.6016 H         1 UNK         0.0800 
    246 H246        0.6961  -16.6106  -53.4162 H         1 UNK         0.0800 
    247 H247        1.2611  -18.2492  -53.5964 H         1 UNK         0.0800 
@<TRIPOS>BOND
     1    1    2 1    
     2    1  127 1    
     3    1  128 1    
     4    1  129 1    
     5    2    3 2    
     6    2    4 am   BACKBONE|DICT|INTERRES
     7    4    5 1    
     8    4  130 1    
     9    5    6 1    
    10    5   65 1    
    11    5  131 1    
    12    6    7 1    
    13    6  132 1    
    14    6  133 1    
    15    7    8 1    
    16    8    9 1    
    17    8  134 1    
    18    8  135 1    
    19    9   10 ar   
    20    9   14 ar   
    21   10   11 ar   
    22   10  136 1    
    23   11   12 ar   
    24   11  126 1    
    25   12   13 ar   
    26   12  137 1    
    27   13   14 ar   
    28   13   15 1    
    29   14  138 1    
    30   15   16 1    
    31   15  139 1    
    32   15  140 1    
    33   16   17 1    
    34   17   18 1    
    35   17  141 1    
    36   17  142 1    
    37   18   19 1    
    38   18   67 1    
    39   18  143 1    
    40   19   20 am   BACKBONE|DICT|INTERRES
    41   19  144 1    
    42   20   21 2    
    43   20   22 1    
    44   22   23 1    
    45   22   24 1    
    46   22  145 1    
    47   23  146 1    
    48   23  147 1    
    49   23  148 1    
    50   24   25 am   BACKBONE|DICT|INTERRES
    51   24  149 1    
    52   25   26 2    
    53   25   27 1    
    54   27   28 1    
    55   27   29 1    
    56   27  150 1    
    57   28  151 1    
    58   28  152 1    
    59   28  153 1    
    60   29   30 am   BACKBONE|DICT|INTERRES
    61   29  154 1    
    62   30   31 2    
    63   30   32 1    
    64   32   33 1    
    65   32   34 1    
    66   32  155 1    
    67   33  156 1    
    68   33  157 1    
    69   33  158 1    
    70   34   35 am   BACKBONE|DICT|INTERRES
    71   34  159 1    
    72   35   36 2    
    73   35   37 1    
    74   37   38 1    
    75   37   39 1    
    76   37  160 1    
    77   38  161 1    
    78   38  162 1    
    79   38  163 1    
    80   39   40 am   BACKBONE|DICT|INTERRES
    81   39  164 1    
    82   40   41 2    
    83   40   42 1    
    84   42   43 1    
    85   42   44 1    
    86   42  165 1    
    87   43  166 1    
    88   43  167 1    
    89   43  168 1    
    90   44   45 am   BACKBONE|DICT|INTERRES
    91   44  169 1    
    92   45   46 2    
    93   45   47 1    
    94   47   48 1    
    95   47   49 1    
    96   47  170 1    
    97   48  171 1    
    98   48  172 1    
    99   48  173 1    
   100   49   50 am   BACKBONE|DICT|INTERRES
   101   49  174 1    
   102   50   51 2    
   103   50   52 1    
   104   52   53 1    
   105   52   54 1    
   106   52  175 1    
   107   53  176 1    
   108   53  177 1    
   109   53  178 1    
   110   54   55 am   BACKBONE|DICT|INTERRES
   111   54  179 1    
   112   55   56 2    
   113   55   57 1    
   114   57   58 1    
   115   57   59 1    
   116   57  180 1    
   117   58  181 1    
   118   58  182 1    
   119   58  183 1    
   120   59   60 am   BACKBONE|DICT|INTERRES
   121   59  184 1    
   122   60   61 2    
   123   60   62 1    
   124   62   63 1    
   125   62   64 1    
   126   62  185 1    
   127   63  186 1    
   128   63  187 1    
   129   63  188 1    
   130   64   65 am   BACKBONE|DICT|INTERRES
   131   64  189 1    
   132   65   66 2    
   133   67   68 2    
   134   67   69 am   BACKBONE|DICT|INTERRES
   135   69   70 1    
   136   69  190 1    
   137   70   71 1    
   138   70   72 1    
   139   70  191 1    
   140   71  192 1    
   141   71  193 1    
   142   71  194 1    
   143   72   73 2    
   144   72   74 am   BACKBONE|DICT|INTERRES
   145   74   75 1    
   146   74  195 1    
   147   75   76 1    
   148   75   77 1    
   149   75  196 1    
   150   76  197 1    
   151   76  198 1    
   152   76  199 1    
   153   77   78 2    
   154   77   79 am   BACKBONE|DICT|INTERRES
   155   79   80 1    
   156   79  200 1    
   157   80   81 1    
   158   80   82 1    
   159   80  201 1    
   160   81  202 1    
   161   81  203 1    
   162   81  204 1    
   163   82   83 2    
   164   82   84 am   BACKBONE|DICT|INTERRES
   165   84   85 1    
   166   84  205 1    
   167   85   86 1    
   168   85   87 1    
   169   85  206 1    
   170   86  207 1    
   171   86  208 1    
   172   86  209 1    
   173   87   88 2    
   174   87   89 am   BACKBONE|DICT|INTERRES
   175   89   90 1    
   176   89  210 1    
   177   90   91 1    
   178   90   92 1    
   179   90  211 1    
   180   91  212 1    
   181   91  213 1    
   182   91  214 1    
   183   92   93 2    
   184   92   94 am   BACKBONE|DICT|INTERRES
   185   94   95 1    
   186   94  215 1    
   187   95   96 1    
   188   95   97 1    
   189   95  216 1    
   190   96  217 1    
   191   96  218 1    
   192   96  219 1    
   193   97   98 2    
   194   97   99 am   BACKBONE|DICT|INTERRES
   195   99  100 1    
   196   99  220 1    
   197  100  101 1    
   198  100  102 1    
   199  100  221 1    
   200  101  222 1    
   201  101  223 1    
   202  101  224 1    
   203  102  103 2    
   204  102  104 am   BACKBONE|DICT|INTERRES
   205  104  105 1    
   206  104  225 1    
   207  105  106 1    
   208  105  107 1    
   209  105  226 1    
   210  106  227 1    
   211  106  228 1    
   212  106  229 1    
   213  107  108 2    
   214  107  109 am   BACKBONE|DICT|INTERRES
   215  109  110 1    
   216  109  230 1    
   217  110  111 1    
   218  110  112 1    
   219  110  231 1    
   220  111  232 1    
   221  111  233 1    
   222  111  234 1    
   223  112  113 2    
   224  112  114 am   BACKBONE|DICT|INTERRES
   225  114  115 1    
   226  114  235 1    
   227  115  116 1    
   228  115  117 1    
   229  115  236 1    
   230  116  237 1    
   231  116  238 1    
   232  116  239 1    
   233  117  118 2    
   234  117  119 am   BACKBONE|DICT|INTERRES
   235  119  120 1    
   236  119  240 1    
   237  120  121 1    
   238  120  124 1    
   239  120  241 1    
   240  121  122 am   BACKBONE|DICT|INTERRES
   241  121  123 2    
   242  122  242 1    
   243  122  243 1    
   244  124  125 1    
   245  124  244 1    
   246  124  245 1    
   247  125  126 1    
   248  126  246 1    
   249  126  247 1    
@<TRIPOS>SUBSTRUCTURE
     1 UNK         1 GROUP             0       ****    0 ROOT    
