@<TRIPOS>MOLECULE
3R540
247   249    1
SMALL
USER_CHARGES


@<TRIPOS>ATOM
      1 CA          8.0749  -18.4112  -49.1596 C.3       0 UNK        -0.1800 
      2 C           6.8160  -18.2392  -49.9982 C.2       0 UNK         0.5000 
      3 O           6.6014  -19.0048  -50.9368 O.2       0 UNK        -0.5000 
      4 N           5.9923  -17.2444  -49.6538 N.am      1 UNK        -0.5000 
      5 CA          4.6975  -16.9394  -50.2664 C.3       1 UNK         0.1400 
      6 C6          4.7826  -15.7885  -51.3057 C.3       23 UNK        -0.0398 
      7 S7          5.5641  -16.3470  -52.8579 S.3       23 UNK        -0.2404 
      8 C8          4.1425  -16.5187  -53.9918 C.3       23 UNK        -0.0205 
      9 C9          3.0172  -17.3960  -53.4498 C.ar      23 UNK        -0.0193 
     10 C10         1.7239  -16.8755  -53.3388 C.ar      23 UNK        -0.1150 
     11 C11         0.6748  -17.6685  -52.8673 C.ar      23 UNK        -0.0193 
     12 C12         0.9293  -18.9855  -52.4774 C.ar      23 UNK        -0.1150 
     13 C13         2.2162  -19.5215  -52.5823 C.ar      23 UNK        -0.0193 
     14 C14         3.2522  -18.7273  -53.0867 C.ar      23 UNK        -0.1150 
     15 C15         2.4722  -20.9647  -52.1652 C.3       23 UNK        -0.0205 
     16 S16         3.6422  -21.1274  -50.7729 S.3       23 UNK        -0.2404 
     17 C17         2.9156  -20.0675  -49.4765 C.3       23 UNK        -0.0398 
     18 CA          2.0884  -20.8340  -48.4206 C.3       11 UNK         0.1400 
     19 N           2.0463  -20.1106  -47.1441 N.am      11 UNK        -0.5000 
     20 C           1.4397  -20.5385  -46.0284 C.2       10 UNK         0.5000 
     21 O           0.8227  -21.6025  -45.9566 O.2       10 UNK        -0.5000 
     22 CA          1.4769  -19.6182  -44.7925 C.3       10 UNK         0.1400 
     23 CB          2.4086  -18.3931  -44.9344 C.3       10 UNK        -0.1800 
     24 N           0.1249  -19.2019  -44.4068 N.am      10 UNK        -0.5000 
     25 C          -0.7715  -18.5434  -45.1584 C.2       9 UNK         0.5000 
     26 O          -0.5438  -18.1716  -46.3108 O.2       9 UNK        -0.5000 
     27 CA         -2.1517  -18.2554  -44.5238 C.3       9 UNK         0.1400 
     28 CB         -3.2986  -18.5109  -45.5155 C.3       9 UNK        -0.1800 
     29 N          -2.4038  -19.0340  -43.3064 N.am      9 UNK        -0.5000 
     30 C          -2.0473  -18.6683  -42.0701 C.2       8 UNK         0.5000 
     31 O          -1.4246  -17.6353  -41.8176 O.2       8 UNK        -0.5000 
     32 CA         -2.3889  -19.6615  -40.9483 C.3       8 UNK         0.1400 
     33 CB         -1.2833  -20.7197  -40.8123 C.3       8 UNK        -0.1800 
     34 N          -2.5504  -18.9722  -39.6698 N.am      8 UNK        -0.5000 
     35 C          -3.7094  -18.4564  -39.2372 C.2       7 UNK         0.5000 
     36 O          -4.7657  -18.5386  -39.8663 O.2       7 UNK        -0.5000 
     37 CA         -3.7111  -17.7460  -37.8686 C.3       7 UNK         0.1400 
     38 CB         -4.2255  -18.6939  -36.7739 C.3       7 UNK        -0.1800 
     39 N          -2.3983  -17.2379  -37.4724 N.am      7 UNK        -0.5000 
     40 C          -1.8133  -16.1534  -37.9948 C.2       6 UNK         0.5000 
     41 O          -2.3373  -15.4401  -38.8517 O.2       6 UNK        -0.5000 
     42 CA         -0.3985  -15.8015  -37.4919 C.3       6 UNK         0.1400 
     43 CB          0.0036  -16.4990  -36.1717 C.3       6 UNK        -0.1800 
     44 N           0.5986  -16.0411  -38.5377 N.am      6 UNK        -0.5000 
     45 C           0.8779  -17.2094  -39.1326 C.2       5 UNK         0.5000 
     46 O           0.3501  -18.2834  -38.8354 O.2       5 UNK        -0.5000 
     47 CA          1.8574  -17.1244  -40.3091 C.3       5 UNK         0.1400 
     48 CB          2.4434  -18.4878  -40.7199 C.3       5 UNK        -0.1800 
     49 N           1.1200  -16.5611  -41.4297 N.am      5 UNK        -0.5000 
     50 C           1.5648  -15.6416  -42.2865 C.2       4 UNK         0.5000 
     51 O           2.6901  -15.1411  -42.2341 O.2       4 UNK        -0.5000 
     52 CA          0.5660  -15.2531  -43.3916 C.3       4 UNK         0.1400 
     53 CB         -0.5089  -14.2739  -42.8798 C.3       4 UNK        -0.1800 
     54 N           1.2219  -14.7794  -44.6133 N.am      4 UNK        -0.5000 
     55 C           1.8205  -13.6048  -44.8626 C.2       3 UNK         0.5000 
     56 O           1.8280  -12.6474  -44.0877 O.2       3 UNK        -0.5000 
     57 CA          2.5472  -13.4762  -46.2201 C.3       3 UNK         0.1400 
     58 CB          4.0573  -13.2766  -46.0111 C.3       3 UNK        -0.1800 
     59 N           2.3565  -14.6402  -47.0898 N.am      3 UNK        -0.5000 
     60 C           1.2865  -14.8842  -47.8534 C.2       2 UNK         0.5000 
     61 O           0.3406  -14.1033  -47.9626 O.2       2 UNK        -0.5000 
     62 CA          1.2826  -16.2372  -48.6005 C.3       2 UNK         0.1400 
     63 CB         -0.0094  -16.4736  -49.3937 C.3       2 UNK        -0.1800 
     64 N           2.4217  -16.4204  -49.5046 N.am      2 UNK        -0.5000 
     65 C           3.6889  -16.6516  -49.1373 C.2       1 UNK         0.5000 
     66 O           4.0494  -16.6934  -47.9565 O.2       1 UNK        -0.5000 
     67 C           0.6866  -21.1805  -48.9644 C.2       11 UNK         0.5000 
     68 O           0.4990  -22.2767  -49.4893 O.2       11 UNK        -0.5000 
     69 N          -0.2874  -20.2745  -48.7872 N.am      12 UNK        -0.5000 
     70 CA         -1.6695  -20.4911  -49.2178 C.3       12 UNK         0.1400 
     71 CB         -2.4298  -19.1598  -49.2392 C.3       12 UNK        -0.1800 
     72 C          -2.4159  -21.5493  -48.3870 C.2       12 UNK         0.5000 
     73 O          -3.3482  -22.1608  -48.9075 O.2       12 UNK        -0.5000 
     74 N          -1.9847  -21.7756  -47.1395 N.am      13 UNK        -0.5000 
     75 CA         -2.4776  -22.8666  -46.3021 C.3       13 UNK         0.1400 
     76 CB         -2.3357  -22.4921  -44.8180 C.3       13 UNK        -0.1800 
     77 C          -1.7365  -24.1757  -46.6216 C.2       13 UNK         0.5000 
     78 O          -2.3790  -25.2156  -46.7629 O.2       13 UNK        -0.5000 
     79 N          -0.4044  -24.0948  -46.7526 N.am      14 UNK        -0.5000 
     80 CA          0.4884  -25.2275  -47.0052 C.3       14 UNK         0.1400 
     81 CB          1.9466  -24.7669  -46.8605 C.3       14 UNK        -0.1800 
     82 C           0.2629  -25.8974  -48.3732 C.2       14 UNK         0.5000 
     83 O           0.1783  -27.1241  -48.4408 O.2       14 UNK        -0.5000 
     84 N           0.1534  -25.0847  -49.4325 N.am      15 UNK        -0.5000 
     85 CA         -0.1009  -25.5391  -50.8026 C.3       15 UNK         0.1400 
     86 CB          0.5500  -24.5475  -51.7822 C.3       15 UNK        -0.1800 
     87 C          -1.6042  -25.6823  -51.1111 C.2       15 UNK         0.5000 
     88 O          -1.9505  -26.1623  -52.1906 O.2       15 UNK        -0.5000 
     89 N          -2.4624  -25.2289  -50.1838 N.am      16 UNK        -0.5000 
     90 CA         -3.9259  -25.1420  -50.2727 C.3       16 UNK         0.1400 
     91 CB         -4.5640  -26.5374  -50.4285 C.3       16 UNK        -0.1800 
     92 C          -4.4254  -24.1391  -51.3364 C.2       16 UNK         0.5000 
     93 O          -5.5992  -24.1734  -51.7089 O.2       16 UNK        -0.5000 
     94 N          -3.5461  -23.2251  -51.7751 N.am      17 UNK        -0.5000 
     95 CA         -3.8238  -22.1754  -52.7581 C.3       17 UNK         0.1400 
     96 CB         -2.5024  -21.5326  -53.2066 C.3       17 UNK        -0.1800 
     97 C          -4.8341  -21.1149  -52.2728 C.2       17 UNK         0.5000 
     98 O          -5.3641  -20.3703  -53.0975 O.2       17 UNK        -0.5000 
     99 N          -5.1431  -21.0929  -50.9676 N.am      18 UNK        -0.5000 
    100 CA        -6.2534  -20.3389  -50.3797 C.3       18 UNK         0.1400 
    101 CB        -6.2668  -20.5507  -48.8575 C.3       18 UNK        -0.1800 
    102 C         -7.6247  -20.7170  -50.9786 C.2       18 UNK         0.5000 
    103 O         -8.4888  -19.8489  -51.0979 O.2       18 UNK        -0.5000 
    104 N         -7.7847  -21.9806  -51.4055 N.am      19 UNK        -0.5000 
    105 CA        -8.9710  -22.4748  -52.1124 C.3       19 UNK         0.1400 
    106 CB        -8.9365  -24.0099  -52.1476 C.3       19 UNK        -0.1800 
    107 C         -9.1084  -21.9051  -53.5402 C.2       19 UNK         0.5000 
    108 O        -10.2199  -21.8565  -54.0672 O.2       19 UNK        -0.5000 
    109 N         -7.9881  -21.4592  -54.1251 N.am      20 UNK        -0.5000 
    110 CA        -7.9158  -20.7536  -55.4058 C.3       20 UNK         0.1400 
    111 CB        -6.6661  -21.2363  -56.1633 C.3       20 UNK        -0.1800 
    112 C         -7.9016  -19.2203  -55.2183 C.2       20 UNK         0.5000 
    113 O         -7.6944  -18.4973  -56.1936 O.2       20 UNK        -0.5000 
    114 N         -8.1147  -18.7533  -53.9774 N.am      21 UNK        -0.5000 
    115 CA        -8.1339  -17.3583  -53.5290 C.3       21 UNK         0.1400 
    116 CB        -9.2763  -16.5716  -54.2065 C.3       21 UNK        -0.1800 
    117 C         -6.7660  -16.6498  -53.6289 C.2       21 UNK         0.5000 
    118 O         -6.7237  -15.4257  -53.7680 O.2       21 UNK        -0.5000 
    119 N         -5.6698  -17.4154  -53.5351 N.am      22 UNK        -0.5000 
    120 CA        -4.3021  -16.8876  -53.4323 C.3       22 UNK         0.1400 
    121 C         -4.0630  -16.1934  -52.0617 C.2       22 UNK         0.5000 
    122 N         -3.4723  -15.0064  -52.0481 N.am      22 UNK        -0.7600 
    123 O         -4.3806  -16.7423  -51.0094 O.2       22 UNK        -0.5000 
    124 C124       -3.2578  -18.0027  -53.6880 C.3       23 UNK        -0.0398 
    125 S125       -1.6630  -17.3769  -54.3186 S.3       23 UNK        -0.2404 
    126 C126       -0.7331  -17.1036  -52.7780 C.3       23 UNK        -0.0205 
    127 H127        8.0896  -19.4013  -48.7040 H         1 UNK         0.0600 
    128 H128        8.9602  -18.3102  -49.7875 H         1 UNK         0.0600 
    129 H129        8.1368  -17.6693  -48.3629 H         1 UNK         0.0600 
    130 H130        6.1855  -16.7070  -48.8188 H         1 UNK         0.3000 
    131 H131        4.3226  -17.8349  -50.7617 H         1 UNK         0.0600 
    132 H132        5.3597  -14.9542  -50.9040 H         1 UNK         0.0800 
    133 H133        3.8015  -15.3791  -51.5492 H         1 UNK         0.0800 
    134 H134        4.4956  -16.9455  -54.9313 H         1 UNK         0.0800 
    135 H135        3.7719  -15.5211  -54.2327 H         1 UNK         0.0800 
    136 H136        1.5259  -15.8552  -53.6368 H         1 UNK         0.1150 
    137 H137        0.1198  -19.5966  -52.1036 H         1 UNK         0.1150 
    138 H138        4.2484  -19.1390  -53.1740 H         1 UNK         0.1150 
    139 H139        1.5385  -21.4630  -51.9019 H         1 UNK         0.0800 
    140 H140        2.8720  -21.5109  -53.0203 H         1 UNK         0.0800 
    141 H141        2.3405  -19.2522  -49.9149 H         1 UNK         0.0800 
    142 H142        3.7693  -19.5984  -48.9865 H         1 UNK         0.0800 
    143 H143        2.5963  -21.7773  -48.2132 H         1 UNK         0.0600 
    144 H144        2.5227  -19.2214  -47.1122 H         1 UNK         0.3000 
    145 H145        1.8606  -20.2296  -43.9745 H         1 UNK         0.0600 
    146 H146        2.4757  -17.8518  -43.9920 H         1 UNK         0.0600 
    147 H147        3.4244  -18.6944  -45.1935 H         1 UNK         0.0600 
    148 H148        2.0652  -17.6908  -45.6925 H         1 UNK         0.0600 
    149 H149       -0.1722  -19.4926  -43.4879 H         1 UNK         0.3000 
    150 H150       -2.1684  -17.1929  -44.2729 H         1 UNK         0.0600 
    151 H151       -3.2493  -17.8135  -46.3517 H         1 UNK         0.0600 
    152 H152       -4.2701  -18.3660  -45.0425 H         1 UNK         0.0600 
    153 H153       -3.2712  -19.5221  -45.9211 H         1 UNK         0.0600 
    154 H154       -2.8994  -19.9044  -43.4317 H         1 UNK         0.3000 
    155 H155       -3.3177  -20.1747  -41.2070 H         1 UNK         0.0600 
    156 H156       -1.5323  -21.4486  -40.0409 H         1 UNK         0.0600 
    157 H157       -1.1452  -21.2701  -41.7439 H         1 UNK         0.0600 
    158 H158       -0.3255  -20.2729  -40.5481 H         1 UNK         0.0600 
    159 H159       -1.7006  -18.7905  -39.1472 H         1 UNK         0.3000 
    160 H160       -4.4016  -16.9026  -37.9380 H         1 UNK         0.0600 
    161 H161       -3.5691  -19.5557  -36.6469 H         1 UNK         0.0600 
    162 H162       -5.2192  -19.0714  -37.0187 H         1 UNK         0.0600 
    163 H163       -4.3011  -18.1837  -35.8134 H         1 UNK         0.0600 
    164 H164       -1.8857  -17.7815  -36.7931 H         1 UNK         0.3000 
    165 H165       -0.4009  -14.7266  -37.3046 H         1 UNK         0.0600 
    166 H166        0.0727  -17.5824  -36.2721 H         1 UNK         0.0600 
    167 H167        0.9735  -16.1412  -35.8261 H         1 UNK         0.0600 
    168 H168       -0.7160  -16.2839  -35.3807 H         1 UNK         0.0600 
    169 H169        1.0433  -15.2109  -38.9035 H         1 UNK         0.3000 
    170 H170        2.6781  -16.4675  -40.0131 H         1 UNK         0.0600 
    171 H171        2.9275  -18.9767  -39.8739 H         1 UNK         0.0600 
    172 H172        1.6749  -19.1616  -41.0980 H         1 UNK         0.0600 
    173 H173        3.1937  -18.3703  -41.5018 H         1 UNK         0.0600 
    174 H174        0.1617  -16.9008  -41.5259 H         1 UNK         0.3000 
    175 H175        0.0539  -16.1674  -43.6881 H         1 UNK         0.0600 
    176 H176       -0.0723  -13.3662  -42.4629 H         1 UNK         0.0600 
    177 H177       -1.1936  -13.9855  -43.6773 H         1 UNK         0.0600 
    178 H178       -1.1060  -14.7336  -42.0909 H         1 UNK         0.0600 
    179 H179        1.3118  -15.4743  -45.3384 H         1 UNK         0.3000 
    180 H180        2.1504  -12.5909  -46.7211 H         1 UNK         0.0600 
    181 H181        4.5078  -14.1309  -45.5040 H         1 UNK         0.0600 
    182 H182        4.2569  -12.3919  -45.4051 H         1 UNK         0.0600 
    183 H183        4.5727  -13.1404  -46.9620 H         1 UNK         0.0600 
    184 H184        3.1084  -15.3253  -47.1087 H         1 UNK         0.3000 
    185 H185        1.3348  -17.0162  -47.8392 H         1 UNK         0.0600 
    186 H186       -0.8820  -16.4480  -48.7394 H         1 UNK         0.0600 
    187 H187       -0.1524  -15.7180  -50.1666 H         1 UNK         0.0600 
    188 H188        0.0110  -17.4512  -49.8721 H         1 UNK         0.0600 
    189 H189        2.1990  -16.3911  -50.4891 H         1 UNK         0.3000 
    190 H190       -0.0954  -19.4257  -48.2706 H         1 UNK         0.3000 
    191 H191       -1.6426  -20.8703  -50.2388 H         1 UNK         0.0600 
    192 H192       -3.4857  -19.3036  -49.4636 H         1 UNK         0.0600 
    193 H193       -2.0415  -18.4984  -50.0093 H         1 UNK         0.0600 
    194 H194       -2.3610  -18.6397  -48.2864 H         1 UNK         0.0600 
    195 H195       -1.1664  -21.2824  -46.8080 H         1 UNK         0.3000 
    196 H196       -3.5399  -23.0264  -46.5011 H         1 UNK         0.0600 
    197 H197       -2.6716  -23.3085  -44.1774 H         1 UNK         0.0600 
    198 H198       -2.9457  -21.6230  -44.5773 H         1 UNK         0.0600 
    199 H199       -1.3046  -22.2669  -44.5460 H         1 UNK         0.0600 
    200 H200        0.0437  -23.1980  -46.5846 H         1 UNK         0.3000 
    201 H201        0.2942  -25.9763  -46.2345 H         1 UNK         0.0600 
    202 H202        2.1299  -24.3372  -45.8754 H         1 UNK         0.0600 
    203 H203        2.2063  -24.0164  -47.6068 H         1 UNK         0.0600 
    204 H204        2.6345  -25.6041  -46.9845 H         1 UNK         0.0600 
    205 H205        0.2581  -24.0790  -49.3075 H         1 UNK         0.3000 
    206 H206        0.3630  -26.5160  -50.9532 H         1 UNK         0.0600 
    207 H207        1.6041  -24.3935  -51.5504 H         1 UNK         0.0600 
    208 H208        0.4931  -24.9168  -52.8068 H         1 UNK         0.0600 
    209 H209        0.0567  -23.5753  -51.7601 H         1 UNK         0.0600 
    210 H210       -2.0636  -24.8737  -49.3261 H         1 UNK         0.3000 
    211 H211       -4.2554  -24.7423  -49.3126 H         1 UNK         0.0600 
    212 H212       -4.3553  -26.9745  -51.4051 H         1 UNK         0.0600 
    213 H213       -5.6482  -26.4847  -50.3224 H         1 UNK         0.0600 
    214 H214       -4.1981  -27.2251  -49.6660 H         1 UNK         0.0600 
    215 H215       -2.6169  -23.2493  -51.3844 H         1 UNK         0.3000 
    216 H216       -4.2701  -22.6599  -53.6290 H         1 UNK         0.0600 
    217 H217       -2.6616  -20.8879  -54.0710 H         1 UNK         0.0600 
    218 H218       -1.7737  -22.2872  -53.5036 H         1 UNK         0.0600 
    219 H219       -2.0549  -20.9224  -52.4247 H         1 UNK         0.0600 
    220 H220       -4.6289  -21.7011  -50.3376 H         1 UNK         0.3000 
    221 H221       -6.0821  -19.2793  -50.5821 H         1 UNK         0.0600 
    222 H222       -6.3673  -21.6059  -48.6004 H         1 UNK         0.0600 
    223 H223       -5.3540  -20.1810  -48.3924 H         1 UNK         0.0600 
    224 H224       -7.0992  -20.0183  -48.3955 H         1 UNK         0.0600 
    225 H225       -7.0179  -22.6371  -51.3051 H         1 UNK         0.3000 
    226 H226       -9.8540  -22.1673  -51.5483 H         1 UNK         0.0600 
    227 H227       -8.8575  -24.4278  -51.1438 H         1 UNK         0.0600 
    228 H228       -9.8466  -24.4101  -52.5961 H         1 UNK         0.0600 
    229 H229       -8.0940  -24.3800  -52.7329 H         1 UNK         0.0600 
    230 H230       -7.1221  -21.4946  -53.6026 H         1 UNK         0.3000 
    231 H231       -8.7907  -20.9958  -56.0123 H         1 UNK         0.0600 
    232 H232       -6.6716  -22.3198  -56.2828 H         1 UNK         0.0600 
    233 H233       -5.7462  -20.9605  -55.6476 H         1 UNK         0.0600 
    234 H234       -6.6220  -20.8021  -57.1628 H         1 UNK         0.0600 
    235 H235       -8.2680  -19.4318  -53.2424 H         1 UNK         0.3000 
    236 H236       -8.3616  -17.3971  -52.4630 H         1 UNK         0.0600 
    237 H237       -9.4017  -15.5905  -53.7470 H         1 UNK         0.0600 
    238 H238       -9.0861  -16.4112  -55.2679 H         1 UNK         0.0600 
    239 H239      -10.2272  -17.0957  -54.1104 H         1 UNK         0.0600 
    240 H240       -5.7733  -18.4168  -53.4085 H         1 UNK         0.3000 
    241 H241       -4.1967  -16.1406  -54.2219 H         1 UNK         0.0600 
    242 H242       -3.2098  -14.5374  -52.9008 H         1 UNK         0.3800 
    243 H243       -3.3104  -14.5530  -51.1630 H         1 UNK         0.3800 
    244 H244       -3.6334  -18.6781  -54.4579 H         1 UNK         0.0800 
    245 H245       -3.1067  -18.6229  -52.8034 H         1 UNK         0.0800 
    246 H246       -0.6975  -16.0328  -52.5735 H         1 UNK         0.0800 
    247 H247       -1.2547  -17.5541  -51.9357 H         1 UNK         0.0800 
@<TRIPOS>BOND
     1    1    2 1    
     2    1  127 1    
     3    1  128 1    
     4    1  129 1    
     5    2    3 2    
     6    2    4 am   BACKBONE|DICT|INTERRES
     7    4    5 1    
     8    4  130 1    
     9    5    6 1    
    10    5   65 1    
    11    5  131 1    
    12    6    7 1    
    13    6  132 1    
    14    6  133 1    
    15    7    8 1    
    16    8    9 1    
    17    8  134 1    
    18    8  135 1    
    19    9   10 ar   
    20    9   14 ar   
    21   10   11 ar   
    22   10  136 1    
    23   11   12 ar   
    24   11  126 1    
    25   12   13 ar   
    26   12  137 1    
    27   13   14 ar   
    28   13   15 1    
    29   14  138 1    
    30   15   16 1    
    31   15  139 1    
    32   15  140 1    
    33   16   17 1    
    34   17   18 1    
    35   17  141 1    
    36   17  142 1    
    37   18   19 1    
    38   18   67 1    
    39   18  143 1    
    40   19   20 am   BACKBONE|DICT|INTERRES
    41   19  144 1    
    42   20   21 2    
    43   20   22 1    
    44   22   23 1    
    45   22   24 1    
    46   22  145 1    
    47   23  146 1    
    48   23  147 1    
    49   23  148 1    
    50   24   25 am   BACKBONE|DICT|INTERRES
    51   24  149 1    
    52   25   26 2    
    53   25   27 1    
    54   27   28 1    
    55   27   29 1    
    56   27  150 1    
    57   28  151 1    
    58   28  152 1    
    59   28  153 1    
    60   29   30 am   BACKBONE|DICT|INTERRES
    61   29  154 1    
    62   30   31 2    
    63   30   32 1    
    64   32   33 1    
    65   32   34 1    
    66   32  155 1    
    67   33  156 1    
    68   33  157 1    
    69   33  158 1    
    70   34   35 am   BACKBONE|DICT|INTERRES
    71   34  159 1    
    72   35   36 2    
    73   35   37 1    
    74   37   38 1    
    75   37   39 1    
    76   37  160 1    
    77   38  161 1    
    78   38  162 1    
    79   38  163 1    
    80   39   40 am   BACKBONE|DICT|INTERRES
    81   39  164 1    
    82   40   41 2    
    83   40   42 1    
    84   42   43 1    
    85   42   44 1    
    86   42  165 1    
    87   43  166 1    
    88   43  167 1    
    89   43  168 1    
    90   44   45 am   BACKBONE|DICT|INTERRES
    91   44  169 1    
    92   45   46 2    
    93   45   47 1    
    94   47   48 1    
    95   47   49 1    
    96   47  170 1    
    97   48  171 1    
    98   48  172 1    
    99   48  173 1    
   100   49   50 am   BACKBONE|DICT|INTERRES
   101   49  174 1    
   102   50   51 2    
   103   50   52 1    
   104   52   53 1    
   105   52   54 1    
   106   52  175 1    
   107   53  176 1    
   108   53  177 1    
   109   53  178 1    
   110   54   55 am   BACKBONE|DICT|INTERRES
   111   54  179 1    
   112   55   56 2    
   113   55   57 1    
   114   57   58 1    
   115   57   59 1    
   116   57  180 1    
   117   58  181 1    
   118   58  182 1    
   119   58  183 1    
   120   59   60 am   BACKBONE|DICT|INTERRES
   121   59  184 1    
   122   60   61 2    
   123   60   62 1    
   124   62   63 1    
   125   62   64 1    
   126   62  185 1    
   127   63  186 1    
   128   63  187 1    
   129   63  188 1    
   130   64   65 am   BACKBONE|DICT|INTERRES
   131   64  189 1    
   132   65   66 2    
   133   67   68 2    
   134   67   69 am   BACKBONE|DICT|INTERRES
   135   69   70 1    
   136   69  190 1    
   137   70   71 1    
   138   70   72 1    
   139   70  191 1    
   140   71  192 1    
   141   71  193 1    
   142   71  194 1    
   143   72   73 2    
   144   72   74 am   BACKBONE|DICT|INTERRES
   145   74   75 1    
   146   74  195 1    
   147   75   76 1    
   148   75   77 1    
   149   75  196 1    
   150   76  197 1    
   151   76  198 1    
   152   76  199 1    
   153   77   78 2    
   154   77   79 am   BACKBONE|DICT|INTERRES
   155   79   80 1    
   156   79  200 1    
   157   80   81 1    
   158   80   82 1    
   159   80  201 1    
   160   81  202 1    
   161   81  203 1    
   162   81  204 1    
   163   82   83 2    
   164   82   84 am   BACKBONE|DICT|INTERRES
   165   84   85 1    
   166   84  205 1    
   167   85   86 1    
   168   85   87 1    
   169   85  206 1    
   170   86  207 1    
   171   86  208 1    
   172   86  209 1    
   173   87   88 2    
   174   87   89 am   BACKBONE|DICT|INTERRES
   175   89   90 1    
   176   89  210 1    
   177   90   91 1    
   178   90   92 1    
   179   90  211 1    
   180   91  212 1    
   181   91  213 1    
   182   91  214 1    
   183   92   93 2    
   184   92   94 am   BACKBONE|DICT|INTERRES
   185   94   95 1    
   186   94  215 1    
   187   95   96 1    
   188   95   97 1    
   189   95  216 1    
   190   96  217 1    
   191   96  218 1    
   192   96  219 1    
   193   97   98 2    
   194   97   99 am   BACKBONE|DICT|INTERRES
   195   99  100 1    
   196   99  220 1    
   197  100  101 1    
   198  100  102 1    
   199  100  221 1    
   200  101  222 1    
   201  101  223 1    
   202  101  224 1    
   203  102  103 2    
   204  102  104 am   BACKBONE|DICT|INTERRES
   205  104  105 1    
   206  104  225 1    
   207  105  106 1    
   208  105  107 1    
   209  105  226 1    
   210  106  227 1    
   211  106  228 1    
   212  106  229 1    
   213  107  108 2    
   214  107  109 am   BACKBONE|DICT|INTERRES
   215  109  110 1    
   216  109  230 1    
   217  110  111 1    
   218  110  112 1    
   219  110  231 1    
   220  111  232 1    
   221  111  233 1    
   222  111  234 1    
   223  112  113 2    
   224  112  114 am   BACKBONE|DICT|INTERRES
   225  114  115 1    
   226  114  235 1    
   227  115  116 1    
   228  115  117 1    
   229  115  236 1    
   230  116  237 1    
   231  116  238 1    
   232  116  239 1    
   233  117  118 2    
   234  117  119 am   BACKBONE|DICT|INTERRES
   235  119  120 1    
   236  119  240 1    
   237  120  121 1    
   238  120  124 1    
   239  120  241 1    
   240  121  122 am   BACKBONE|DICT|INTERRES
   241  121  123 2    
   242  122  242 1    
   243  122  243 1    
   244  124  125 1    
   245  124  244 1    
   246  124  245 1    
   247  125  126 1    
   248  126  246 1    
   249  126  247 1    
@<TRIPOS>SUBSTRUCTURE
     1 UNK         1 GROUP             0       ****    0 ROOT    
