@<TRIPOS>MOLECULE
3R540
247   249    1
SMALL
USER_CHARGES


@<TRIPOS>ATOM
      1 CA         -3.6555  -15.9546  -45.4274 C.3       0 UNK        -0.1800 
      2 C          -3.2415  -14.4960  -45.3085 C.2       0 UNK         0.5000 
      3 O          -3.8027  -13.7640  -44.4932 O.2       0 UNK        -0.5000 
      4 N          -2.2650  -14.0701  -46.1182 N.am      1 UNK        -0.5000 
      5 CA         -1.6728  -12.7318  -46.0989 C.3       1 UNK         0.1400 
      6 C6         -1.0209  -12.3572  -47.4581 C.3       23 UNK        -0.0398 
      7 S7          0.0751  -13.6328  -48.1895 S.3       23 UNK        -0.2404 
      8 C8         -0.7877  -14.0875  -49.7288 C.3       23 UNK        -0.0205 
      9 C9         -1.2171  -15.5454  -49.7189 C.ar      23 UNK        -0.0193 
     10 C10        -0.3469  -16.5313  -50.1894 C.ar      23 UNK        -0.1150 
     11 C11        -0.7409  -17.8703  -50.2197 C.ar      23 UNK        -0.0193 
     12 C12        -2.0218  -18.2190  -49.7868 C.ar      23 UNK        -0.1150 
     13 C13        -2.8984  -17.2464  -49.2889 C.ar      23 UNK        -0.0193 
     14 C14        -2.4872  -15.9095  -49.2647 C.ar      23 UNK        -0.1150 
     15 C15        -4.2979  -17.5961  -48.7852 C.3       23 UNK        -0.0205 
     16 S16        -4.4999  -19.2770  -48.0975 S.3       23 UNK        -0.2404 
     17 C17        -3.1859  -19.3913  -46.8294 C.3       23 UNK        -0.0398 
     18 CA         -2.7438  -20.8645  -46.6334 C.3       11 UNK         0.1400 
     19 N          -1.3002  -21.0088  -46.4105 N.am      11 UNK        -0.5000 
     20 C          -0.6469  -22.1808  -46.4438 C.2       10 UNK         0.5000 
     21 O          -1.1877  -23.2581  -46.6840 O.2       10 UNK        -0.5000 
     22 CA          0.8475  -22.1674  -46.0771 C.3       10 UNK         0.1400 
     23 CB          1.7090  -21.7143  -47.2655 C.3       10 UNK        -0.1800 
     24 N           1.1183  -21.3418  -44.8997 N.am      10 UNK        -0.5000 
     25 C           0.6309  -21.6019  -43.6771 C.2       9 UNK         0.5000 
     26 O          -0.0263  -22.6072  -43.4076 O.2       9 UNK        -0.5000 
     27 CA          0.8674  -20.5437  -42.5847 C.3       9 UNK         0.1400 
     28 CB          2.2396  -20.7405  -41.9245 C.3       9 UNK        -0.1800 
     29 N           0.7490  -19.1737  -43.0866 N.am      9 UNK        -0.5000 
     30 C          -0.3737  -18.6381  -43.5887 C.2       8 UNK         0.5000 
     31 O          -1.4534  -19.2273  -43.6323 O.2       8 UNK        -0.5000 
     32 CA         -0.2553  -17.2333  -44.2070 C.3       8 UNK         0.1400 
     33 CB         -0.2514  -16.1463  -43.1248 C.3       8 UNK        -0.1800 
     34 N           0.9308  -17.0995  -45.0507 N.am      8 UNK        -0.5000 
     35 C           1.1431  -17.8080  -46.1684 C.2       7 UNK         0.5000 
     36 O           0.3191  -18.5875  -46.6459 O.2       7 UNK        -0.5000 
     37 CA          2.5311  -17.6773  -46.8172 C.3       7 UNK         0.1400 
     38 CB          2.5908  -16.4738  -47.7661 C.3       7 UNK        -0.1800 
     39 N           3.5833  -17.5569  -45.8085 N.am      7 UNK        -0.5000 
     40 C           4.0450  -18.5777  -45.0742 C.2       6 UNK         0.5000 
     41 O           3.6528  -19.7373  -45.2008 O.2       6 UNK        -0.5000 
     42 CA          5.0991  -18.2450  -44.0000 C.3       6 UNK         0.1400 
     43 CB          6.5090  -18.2495  -44.6090 C.3       6 UNK        -0.1800 
     44 N           4.8612  -16.9586  -43.3419 N.am      6 UNK        -0.5000 
     45 C           3.8237  -16.7067  -42.5320 C.2       5 UNK         0.5000 
     46 O           2.9804  -17.5486  -42.2266 O.2       5 UNK        -0.5000 
     47 CA          3.6694  -15.2623  -42.0144 C.3       5 UNK         0.1400 
     48 CB          4.4512  -15.0735  -40.7064 C.3       5 UNK        -0.1800 
     49 N           4.0604  -14.2157  -42.9663 N.am      5 UNK        -0.5000 
     50 C           3.5988  -14.0931  -44.2178 C.2       4 UNK         0.5000 
     51 O           2.8558  -14.9168  -44.7514 O.2       4 UNK        -0.5000 
     52 CA          4.0022  -12.8167  -44.9672 C.3       4 UNK         0.1400 
     53 CB          3.9053  -12.9774  -46.4945 C.3       4 UNK        -0.1800 
     54 N           3.0814  -11.7713  -44.5448 N.am      4 UNK        -0.5000 
     55 C           3.4024  -10.6689  -43.8575 C.2       3 UNK         0.5000 
     56 O           4.5583  -10.3570  -43.5680 O.2       3 UNK        -0.5000 
     57 CA          2.2383   -9.7637  -43.3981 C.3       3 UNK         0.1400 
     58 CB          2.0345   -8.6083  -44.3899 C.3       3 UNK        -0.1800 
     59 N           0.9696  -10.4789  -43.2372 N.am      3 UNK        -0.5000 
     60 C           0.7355  -11.4305  -42.3228 C.2       2 UNK         0.5000 
     61 O           1.5357  -11.7328  -41.4369 O.2       2 UNK        -0.5000 
     62 CA         -0.6027  -12.1940  -42.4180 C.3       2 UNK         0.1400 
     63 CB         -1.6006  -11.6499  -41.3844 C.3       2 UNK        -0.1800 
     64 N          -1.2550  -12.2122  -43.7356 N.am      2 UNK        -0.5000 
     65 C          -0.7114  -12.6026  -44.8979 C.2       1 UNK         0.5000 
     66 O           0.4783  -12.8804  -45.0289 O.2       1 UNK        -0.5000 
     67 C          -3.5896  -21.5602  -45.5445 C.2       11 UNK         0.5000 
     68 O          -4.6427  -22.1156  -45.8541 O.2       11 UNK        -0.5000 
     69 N          -3.1139  -21.5395  -44.2917 N.am      12 UNK        -0.5000 
     70 CA         -3.7280  -22.2561  -43.1734 C.3       12 UNK         0.1400 
     71 CB         -3.1047  -21.7839  -41.8512 C.3       12 UNK        -0.1800 
     72 C          -3.6204  -23.7867  -43.3228 C.2       12 UNK         0.5000 
     73 O          -4.5599  -24.4961  -42.9604 O.2       12 UNK        -0.5000 
     74 N          -2.4915  -24.2656  -43.8642 N.am      13 UNK        -0.5000 
     75 CA         -2.2479  -25.6761  -44.1628 C.3       13 UNK         0.1400 
     76 CB         -0.7426  -25.9065  -44.3698 C.3       13 UNK        -0.1800 
     77 C          -3.0562  -26.1735  -45.3767 C.2       13 UNK         0.5000 
     78 O          -3.6434  -27.2543  -45.3073 O.2       13 UNK        -0.5000 
     79 N          -3.0815  -25.3840  -46.4569 N.am      14 UNK        -0.5000 
     80 CA         -3.7928  -25.6787  -47.6956 C.3       14 UNK         0.1400 
     81 CB         -2.8811  -26.4857  -48.6372 C.3       14 UNK        -0.1800 
     82 C          -4.2343  -24.3556  -48.3322 C.2       14 UNK         0.5000 
     83 O          -3.3863  -23.6071  -48.8212 O.2       14 UNK        -0.5000 
     84 N          -5.5464  -24.0837  -48.3067 N.am      15 UNK        -0.5000 
     85 CA         -6.1678  -22.8581  -48.8164 C.3       15 UNK         0.1400 
     86 CB         -7.6842  -22.9215  -48.5795 C.3       15 UNK        -0.1800 
     87 C          -5.8514  -22.6279  -50.3038 C.2       15 UNK         0.5000 
     88 O          -6.1885  -23.4776  -51.1311 O.2       15 UNK        -0.5000 
     89 N          -5.1574  -21.5191  -50.6006 N.am      16 UNK        -0.5000 
     90 CA         -4.6298  -21.1412  -51.9191 C.3       16 UNK         0.1400 
     91 CB         -5.7880  -20.7329  -52.8499 C.3       16 UNK        -0.1800 
     92 C          -3.7166  -22.2315  -52.5289 C.2       16 UNK         0.5000 
     93 O          -3.7990  -22.5247  -53.7260 O.2       16 UNK        -0.5000 
     94 N          -2.9290  -22.8800  -51.6550 N.am      17 UNK        -0.5000 
     95 CA         -2.0557  -24.0331  -51.9025 C.3       17 UNK         0.1400 
     96 CB         -0.9125  -23.6456  -52.8622 C.3       17 UNK        -0.1800 
     97 C          -2.8057  -25.3000  -52.3745 C.2       17 UNK         0.5000 
     98 O          -2.1679  -26.2218  -52.8844 O.2       17 UNK        -0.5000 
     99 N          -4.1421  -25.3136  -52.2290 N.am      18 UNK        -0.5000 
    100 CA        -5.0970  -26.2784  -52.7868 C.3       18 UNK         0.1400 
    101 CB        -4.9310  -27.6664  -52.1339 C.3       18 UNK        -0.1800 
    102 C         -5.0803  -26.3302  -54.3328 C.2       18 UNK         0.5000 
    103 O         -5.4852  -27.3383  -54.9146 O.2       18 UNK        -0.5000 
    104 N         -4.6095  -25.2486  -54.9698 N.am      19 UNK        -0.5000 
    105 CA        -4.3712  -25.1556  -56.4112 C.3       19 UNK         0.1400 
    106 CB        -2.8530  -25.2413  -56.6507 C.3       19 UNK        -0.1800 
    107 C         -4.9495  -23.8677  -57.0249 C.2       19 UNK         0.5000 
    108 O         -4.7623  -23.6452  -58.2220 O.2       19 UNK        -0.5000 
    109 N         -5.6126  -23.0348  -56.2058 N.am      20 UNK        -0.5000 
    110 CA        -6.0768  -21.6762  -56.5196 C.3       20 UNK         0.1400 
    111 CB        -7.1864  -21.6969  -57.5924 C.3       20 UNK        -0.1800 
    112 C         -4.9053  -20.7287  -56.8677 C.2       20 UNK         0.5000 
    113 O         -5.0291  -19.8835  -57.7564 O.2       20 UNK        -0.5000 
    114 N         -3.7803  -20.9127  -56.1675 N.am      21 UNK        -0.5000 
    115 CA        -2.5258  -20.1916  -56.3524 C.3       21 UNK         0.1400 
    116 CB        -1.4005  -21.2330  -56.4770 C.3       21 UNK        -0.1800 
    117 C         -2.2613  -19.2541  -55.1627 C.2       21 UNK         0.5000 
    118 O         -2.9672  -19.3217  -54.1547 O.2       21 UNK        -0.5000 
    119 N         -1.2351  -18.4070  -55.3167 N.am      22 UNK        -0.5000 
    120 CA        -0.6181  -17.4680  -54.3532 C.3       22 UNK         0.1400 
    121 C         -1.5249  -16.4424  -53.6052 C.2       22 UNK         0.5000 
    122 N         -2.8141  -16.6831  -53.4302 N.am      22 UNK        -0.7600 
    123 O         -1.0490  -15.3756  -53.2267 O.2       22 UNK        -0.5000 
    124 C124        0.4321  -18.1392  -53.4195 C.3       23 UNK        -0.0398 
    125 S125       -0.1718  -19.5182  -52.3790 S.3       23 UNK        -0.2404 
    126 C126        0.2194  -18.9473  -50.6966 C.3       23 UNK        -0.0205 
    127 H127       -3.5202  -16.4638  -44.4732 H         1 UNK         0.0600 
    128 H128       -4.7069  -16.0258  -45.7052 H         1 UNK         0.0600 
    129 H129       -3.0650  -16.4761  -46.1801 H         1 UNK         0.0600 
    130 H130       -1.8136  -14.7172  -46.7499 H         1 UNK         0.3000 
    131 H131       -2.4763  -12.0091  -45.9390 H         1 UNK         0.0600 
    132 H132       -1.8141  -12.1151  -48.1648 H         1 UNK         0.0800 
    133 H133       -0.4450  -11.4353  -47.3603 H         1 UNK         0.0800 
    134 H134       -0.1141  -13.9121  -50.5691 H         1 UNK         0.0800 
    135 H135       -1.6525  -13.4491  -49.9098 H         1 UNK         0.0800 
    136 H136        0.6353  -16.2509  -50.5412 H         1 UNK         0.1150 
    137 H137       -2.3219  -19.2557  -49.8272 H         1 UNK         0.1150 
    138 H138       -3.1610  -15.1464  -48.9007 H         1 UNK         0.1150 
    139 H139       -4.6138  -16.8792  -48.0276 H         1 UNK         0.0800 
    140 H140       -4.9943  -17.4832  -49.6169 H         1 UNK         0.0800 
    141 H141       -3.5337  -18.9389  -45.8989 H         1 UNK         0.0800 
    142 H142       -2.3363  -18.7865  -47.1430 H         1 UNK         0.0800 
    143 H143       -2.9352  -21.4000  -47.5644 H         1 UNK         0.0600 
    144 H144       -0.7700  -20.1573  -46.2479 H         1 UNK         0.3000 
    145 H145        1.1362  -23.1914  -45.8308 H         1 UNK         0.0600 
    146 H146        2.7693  -21.7285  -47.0133 H         1 UNK         0.0600 
    147 H147        1.5686  -22.3785  -48.1190 H         1 UNK         0.0600 
    148 H148        1.4558  -20.7080  -47.5951 H         1 UNK         0.0600 
    149 H149        1.7044  -20.5262  -45.0344 H         1 UNK         0.3000 
    150 H150        0.1013  -20.6822  -41.8193 H         1 UNK         0.0600 
    151 H151        2.3420  -21.7523  -41.5303 H         1 UNK         0.0600 
    152 H152        2.3780  -20.0517  -41.0911 H         1 UNK         0.0600 
    153 H153        3.0539  -20.5789  -42.6310 H         1 UNK         0.0600 
    154 H154        1.5843  -18.5978  -43.0284 H         1 UNK         0.3000 
    155 H155       -1.1246  -17.0766  -44.8455 H         1 UNK         0.0600 
    156 H156        0.5574  -16.2888  -42.4090 H         1 UNK         0.0600 
    157 H157       -1.1890  -16.1475  -42.5678 H         1 UNK         0.0600 
    158 H158       -0.1337  -15.1592  -43.5677 H         1 UNK         0.0600 
    159 H159        1.6379  -16.4283  -44.7635 H         1 UNK         0.3000 
    160 H160        2.7155  -18.5781  -47.4060 H         1 UNK         0.0600 
    161 H161        3.5798  -16.3652  -48.2109 H         1 UNK         0.0600 
    162 H162        2.3452  -15.5423  -47.2571 H         1 UNK         0.0600 
    163 H163        1.8796  -16.5943  -48.5804 H         1 UNK         0.0600 
    164 H164        3.8681  -16.6154  -45.5720 H         1 UNK         0.3000 
    165 H165        5.0551  -19.0279  -43.2398 H         1 UNK         0.0600 
    166 H166        7.2697  -18.0949  -43.8436 H         1 UNK         0.0600 
    167 H167        6.7228  -19.2050  -45.0899 H         1 UNK         0.0600 
    168 H168        6.6258  -17.4693  -45.3623 H         1 UNK         0.0600 
    169 H169        5.5052  -16.2094  -43.5484 H         1 UNK         0.3000 
    170 H170        2.6105  -15.1104  -41.7973 H         1 UNK         0.0600 
    171 H171        4.1663  -15.8247  -39.9683 H         1 UNK         0.0600 
    172 H172        5.5269  -15.1591  -40.8645 H         1 UNK         0.0600 
    173 H173        4.2520  -14.0963  -40.2657 H         1 UNK         0.0600 
    174 H174        4.6478  -13.4803  -42.6001 H         1 UNK         0.3000 
    175 H175        5.0348  -12.5738  -44.7087 H         1 UNK         0.0600 
    176 H176        2.8812  -13.1738  -46.8148 H         1 UNK         0.0600 
    177 H177        4.2442  -12.0761  -47.0050 H         1 UNK         0.0600 
    178 H178        4.5252  -13.8044  -46.8424 H         1 UNK         0.0600 
    179 H179        2.0987  -11.9961  -44.6902 H         1 UNK         0.3000 
    180 H180        2.5128   -9.3406  -42.4296 H         1 UNK         0.0600 
    181 H181        1.7387   -8.9718  -45.3749 H         1 UNK         0.0600 
    182 H182        2.9533   -8.0336  -44.5144 H         1 UNK         0.0600 
    183 H183        1.2662   -7.9183  -44.0405 H         1 UNK         0.0600 
    184 H184        0.2558  -10.2983  -43.9270 H         1 UNK         0.3000 
    185 H185       -0.3853  -13.2312  -42.1581 H         1 UNK         0.0600 
    186 H186       -1.1693  -11.6510  -40.3824 H         1 UNK         0.0600 
    187 H187       -1.8961  -10.6254  -41.6140 H         1 UNK         0.0600 
    188 H188       -2.5031  -12.2604  -41.3473 H         1 UNK         0.0600 
    189 H189       -2.2539  -12.0542  -43.7249 H         1 UNK         0.3000 
    190 H190       -2.2844  -20.9901  -44.0906 H         1 UNK         0.3000 
    191 H191       -4.7891  -21.9988  -43.1537 H         1 UNK         0.0600 
    192 H192       -2.0460  -22.0331  -41.7901 H         1 UNK         0.0600 
    193 H193       -3.5997  -22.2525  -40.9999 H         1 UNK         0.0600 
    194 H194       -3.2021  -20.7046  -41.7317 H         1 UNK         0.0600 
    195 H195       -1.7448  -23.6162  -44.0848 H         1 UNK         0.3000 
    196 H196       -2.5565  -26.2636  -43.2955 H         1 UNK         0.0600 
    197 H197       -0.5318  -26.9603  -44.5555 H         1 UNK         0.0600 
    198 H198       -0.1745  -25.6106  -43.4876 H         1 UNK         0.0600 
    199 H199       -0.3577  -25.3411  -45.2183 H         1 UNK         0.0600 
    200 H200       -2.5430  -24.5183  -46.4600 H         1 UNK         0.3000 
    201 H201       -4.6831  -26.2733  -47.4799 H         1 UNK         0.0600 
    202 H202       -2.6306  -27.4559  -48.2083 H         1 UNK         0.0600 
    203 H203       -1.9476  -25.9595  -48.8409 H         1 UNK         0.0600 
    204 H204       -3.3705  -26.6688  -49.5932 H         1 UNK         0.0600 
    205 H205       -6.1737  -24.7556  -47.8906 H         1 UNK         0.3000 
    206 H206       -5.7720  -22.0216  -48.2395 H         1 UNK         0.0600 
    207 H207       -7.9135  -23.0102  -47.5173 H         1 UNK         0.0600 
    208 H208       -8.1730  -22.0163  -48.9422 H         1 UNK         0.0600 
    209 H209       -8.1379  -23.7692  -49.0946 H         1 UNK         0.0600 
    210 H210       -4.9143  -20.8929  -49.8435 H         1 UNK         0.3000 
    211 H211       -3.9998  -20.2641  -51.7630 H         1 UNK         0.0600 
    212 H212       -6.4126  -21.5852  -53.1187 H         1 UNK         0.0600 
    213 H213       -5.4078  -20.2936  -53.7708 H         1 UNK         0.0600 
    214 H214       -6.4255  -19.9846  -52.3794 H         1 UNK         0.0600 
    215 H215       -3.0185  -22.6382  -50.6738 H         1 UNK         0.3000 
    216 H216       -1.6106  -24.2851  -50.9390 H         1 UNK         0.0600 
    217 H217       -1.2763  -23.4889  -53.8773 H         1 UNK         0.0600 
    218 H218       -0.1551  -24.4288  -52.9058 H         1 UNK         0.0600 
    219 H219       -0.4151  -22.7315  -52.5378 H         1 UNK         0.0600 
    220 H220       -4.5790  -24.5069  -51.7945 H         1 UNK         0.3000 
    221 H221       -6.0872  -25.9093  -52.5165 H         1 UNK         0.0600 
    222 H222       -3.9708  -28.1204  -52.3787 H         1 UNK         0.0600 
    223 H223       -5.0083  -27.6023  -51.0492 H         1 UNK         0.0600 
    224 H224       -5.7100  -28.3527  -52.4676 H         1 UNK         0.0600 
    225 H225       -4.2837  -24.4641  -54.4151 H         1 UNK         0.3000 
    226 H226       -4.8515  -25.9855  -56.9331 H         1 UNK         0.0600 
    227 H227       -2.4425  -26.1671  -56.2470 H         1 UNK         0.0600 
    228 H228       -2.6171  -25.2195  -57.7152 H         1 UNK         0.0600 
    229 H229       -2.3274  -24.4099  -56.1788 H         1 UNK         0.0600 
    230 H230       -5.7038  -23.3110  -55.2389 H         1 UNK         0.3000 
    231 H231       -6.5255  -21.2862  -55.6067 H         1 UNK         0.0600 
    232 H232       -7.9880  -22.3822  -57.3171 H         1 UNK         0.0600 
    233 H233       -6.8064  -21.9992  -58.5685 H         1 UNK         0.0600 
    234 H234       -7.6318  -20.7085  -57.7098 H         1 UNK         0.0600 
    235 H235       -3.7941  -21.5609  -55.3841 H         1 UNK         0.3000 
    236 H236       -2.5571  -19.5922  -57.2644 H         1 UNK         0.0600 
    237 H237       -0.4395  -20.7596  -56.6803 H         1 UNK         0.0600 
    238 H238       -1.2925  -21.8144  -55.5610 H         1 UNK         0.0600 
    239 H239       -1.5971  -21.9293  -57.2926 H         1 UNK         0.0600 
    240 H240       -0.7665  -18.4280  -56.2107 H         1 UNK         0.3000 
    241 H241       -0.0321  -16.8241  -55.0109 H         1 UNK         0.0600 
    242 H242       -3.1624  -17.6084  -53.6715 H         1 UNK         0.3800 
    243 H243       -3.3968  -16.0165  -52.9522 H         1 UNK         0.3800 
    244 H244        1.2349  -18.5457  -54.0355 H         1 UNK         0.0800 
    245 H245        0.9143  -17.3884  -52.7920 H         1 UNK         0.0800 
    246 H246        0.1627  -19.7983  -50.0160 H         1 UNK         0.0800 
    247 H247        1.2518  -18.5969  -50.6548 H         1 UNK         0.0800 
@<TRIPOS>BOND
     1    1    2 1    
     2    1  127 1    
     3    1  128 1    
     4    1  129 1    
     5    2    3 2    
     6    2    4 am   BACKBONE|DICT|INTERRES
     7    4    5 1    
     8    4  130 1    
     9    5    6 1    
    10    5   65 1    
    11    5  131 1    
    12    6    7 1    
    13    6  132 1    
    14    6  133 1    
    15    7    8 1    
    16    8    9 1    
    17    8  134 1    
    18    8  135 1    
    19    9   10 ar   
    20    9   14 ar   
    21   10   11 ar   
    22   10  136 1    
    23   11   12 ar   
    24   11  126 1    
    25   12   13 ar   
    26   12  137 1    
    27   13   14 ar   
    28   13   15 1    
    29   14  138 1    
    30   15   16 1    
    31   15  139 1    
    32   15  140 1    
    33   16   17 1    
    34   17   18 1    
    35   17  141 1    
    36   17  142 1    
    37   18   19 1    
    38   18   67 1    
    39   18  143 1    
    40   19   20 am   BACKBONE|DICT|INTERRES
    41   19  144 1    
    42   20   21 2    
    43   20   22 1    
    44   22   23 1    
    45   22   24 1    
    46   22  145 1    
    47   23  146 1    
    48   23  147 1    
    49   23  148 1    
    50   24   25 am   BACKBONE|DICT|INTERRES
    51   24  149 1    
    52   25   26 2    
    53   25   27 1    
    54   27   28 1    
    55   27   29 1    
    56   27  150 1    
    57   28  151 1    
    58   28  152 1    
    59   28  153 1    
    60   29   30 am   BACKBONE|DICT|INTERRES
    61   29  154 1    
    62   30   31 2    
    63   30   32 1    
    64   32   33 1    
    65   32   34 1    
    66   32  155 1    
    67   33  156 1    
    68   33  157 1    
    69   33  158 1    
    70   34   35 am   BACKBONE|DICT|INTERRES
    71   34  159 1    
    72   35   36 2    
    73   35   37 1    
    74   37   38 1    
    75   37   39 1    
    76   37  160 1    
    77   38  161 1    
    78   38  162 1    
    79   38  163 1    
    80   39   40 am   BACKBONE|DICT|INTERRES
    81   39  164 1    
    82   40   41 2    
    83   40   42 1    
    84   42   43 1    
    85   42   44 1    
    86   42  165 1    
    87   43  166 1    
    88   43  167 1    
    89   43  168 1    
    90   44   45 am   BACKBONE|DICT|INTERRES
    91   44  169 1    
    92   45   46 2    
    93   45   47 1    
    94   47   48 1    
    95   47   49 1    
    96   47  170 1    
    97   48  171 1    
    98   48  172 1    
    99   48  173 1    
   100   49   50 am   BACKBONE|DICT|INTERRES
   101   49  174 1    
   102   50   51 2    
   103   50   52 1    
   104   52   53 1    
   105   52   54 1    
   106   52  175 1    
   107   53  176 1    
   108   53  177 1    
   109   53  178 1    
   110   54   55 am   BACKBONE|DICT|INTERRES
   111   54  179 1    
   112   55   56 2    
   113   55   57 1    
   114   57   58 1    
   115   57   59 1    
   116   57  180 1    
   117   58  181 1    
   118   58  182 1    
   119   58  183 1    
   120   59   60 am   BACKBONE|DICT|INTERRES
   121   59  184 1    
   122   60   61 2    
   123   60   62 1    
   124   62   63 1    
   125   62   64 1    
   126   62  185 1    
   127   63  186 1    
   128   63  187 1    
   129   63  188 1    
   130   64   65 am   BACKBONE|DICT|INTERRES
   131   64  189 1    
   132   65   66 2    
   133   67   68 2    
   134   67   69 am   BACKBONE|DICT|INTERRES
   135   69   70 1    
   136   69  190 1    
   137   70   71 1    
   138   70   72 1    
   139   70  191 1    
   140   71  192 1    
   141   71  193 1    
   142   71  194 1    
   143   72   73 2    
   144   72   74 am   BACKBONE|DICT|INTERRES
   145   74   75 1    
   146   74  195 1    
   147   75   76 1    
   148   75   77 1    
   149   75  196 1    
   150   76  197 1    
   151   76  198 1    
   152   76  199 1    
   153   77   78 2    
   154   77   79 am   BACKBONE|DICT|INTERRES
   155   79   80 1    
   156   79  200 1    
   157   80   81 1    
   158   80   82 1    
   159   80  201 1    
   160   81  202 1    
   161   81  203 1    
   162   81  204 1    
   163   82   83 2    
   164   82   84 am   BACKBONE|DICT|INTERRES
   165   84   85 1    
   166   84  205 1    
   167   85   86 1    
   168   85   87 1    
   169   85  206 1    
   170   86  207 1    
   171   86  208 1    
   172   86  209 1    
   173   87   88 2    
   174   87   89 am   BACKBONE|DICT|INTERRES
   175   89   90 1    
   176   89  210 1    
   177   90   91 1    
   178   90   92 1    
   179   90  211 1    
   180   91  212 1    
   181   91  213 1    
   182   91  214 1    
   183   92   93 2    
   184   92   94 am   BACKBONE|DICT|INTERRES
   185   94   95 1    
   186   94  215 1    
   187   95   96 1    
   188   95   97 1    
   189   95  216 1    
   190   96  217 1    
   191   96  218 1    
   192   96  219 1    
   193   97   98 2    
   194   97   99 am   BACKBONE|DICT|INTERRES
   195   99  100 1    
   196   99  220 1    
   197  100  101 1    
   198  100  102 1    
   199  100  221 1    
   200  101  222 1    
   201  101  223 1    
   202  101  224 1    
   203  102  103 2    
   204  102  104 am   BACKBONE|DICT|INTERRES
   205  104  105 1    
   206  104  225 1    
   207  105  106 1    
   208  105  107 1    
   209  105  226 1    
   210  106  227 1    
   211  106  228 1    
   212  106  229 1    
   213  107  108 2    
   214  107  109 am   BACKBONE|DICT|INTERRES
   215  109  110 1    
   216  109  230 1    
   217  110  111 1    
   218  110  112 1    
   219  110  231 1    
   220  111  232 1    
   221  111  233 1    
   222  111  234 1    
   223  112  113 2    
   224  112  114 am   BACKBONE|DICT|INTERRES
   225  114  115 1    
   226  114  235 1    
   227  115  116 1    
   228  115  117 1    
   229  115  236 1    
   230  116  237 1    
   231  116  238 1    
   232  116  239 1    
   233  117  118 2    
   234  117  119 am   BACKBONE|DICT|INTERRES
   235  119  120 1    
   236  119  240 1    
   237  120  121 1    
   238  120  124 1    
   239  120  241 1    
   240  121  122 am   BACKBONE|DICT|INTERRES
   241  121  123 2    
   242  122  242 1    
   243  122  243 1    
   244  124  125 1    
   245  124  244 1    
   246  124  245 1    
   247  125  126 1    
   248  126  246 1    
   249  126  247 1    
@<TRIPOS>SUBSTRUCTURE
     1 UNK         1 GROUP             0       ****    0 ROOT    
