@<TRIPOS>MOLECULE
3R540
247   249    1
SMALL
USER_CHARGES


@<TRIPOS>ATOM
      1 CA         -1.1562  -17.7957  -49.3443 C.3       0 UNK        -0.1800 
      2 C          -0.1813  -16.9260  -48.5709 C.2       0 UNK         0.5000 
      3 O           1.0259  -17.0158  -48.7933 O.2       0 UNK        -0.5000 
      4 N          -0.6889  -16.0939  -47.6500 N.am      1 UNK        -0.5000 
      5 CA          0.1085  -15.3278  -46.6797 C.3       1 UNK         0.1400 
      6 C6         -0.7323  -14.8324  -45.4792 C.3       23 UNK        -0.0398 
      7 S7         -2.0365  -13.6288  -45.8990 S.3       23 UNK        -0.2404 
      8 C8         -3.4935  -14.3586  -45.0782 C.3       23 UNK        -0.0205 
      9 C9         -4.1184  -15.5014  -45.8692 C.ar      23 UNK        -0.0193 
     10 C10        -4.4529  -15.3237  -47.2129 C.ar      23 UNK        -0.1150 
     11 C11        -5.0584  -16.3492  -47.9398 C.ar      23 UNK        -0.0193 
     12 C12        -5.3525  -17.5599  -47.3058 C.ar      23 UNK        -0.1150 
     13 C13        -5.0532  -17.7505  -45.9470 C.ar      23 UNK        -0.0193 
     14 C14        -4.4217  -16.7157  -45.2457 C.ar      23 UNK        -0.1150 
     15 C15        -5.4071  -19.0297  -45.1779 C.3       23 UNK        -0.0205 
     16 S16        -6.1799  -20.3630  -46.1666 S.3       23 UNK        -0.2404 
     17 C17        -5.4647  -21.8917  -45.4672 C.3       23 UNK        -0.0398 
     18 CA         -4.0699  -22.1790  -46.0761 C.3       11 UNK         0.1400 
     19 N          -3.0343  -21.3904  -45.4094 N.am      11 UNK        -0.5000 
     20 C          -1.9320  -20.9182  -45.9965 C.2       10 UNK         0.5000 
     21 O          -1.7041  -21.0413  -47.2001 O.2       10 UNK        -0.5000 
     22 CA         -0.9268  -20.1810  -45.0872 C.3       10 UNK         0.1400 
     23 CB         -1.0127  -18.6745  -45.3385 C.3       10 UNK        -0.1800 
     24 N          -1.0724  -20.4094  -43.6448 N.am      10 UNK        -0.5000 
     25 C          -0.9791  -21.5845  -43.0069 C.2       9 UNK         0.5000 
     26 O          -0.9131  -22.6654  -43.5900 O.2       9 UNK        -0.5000 
     27 CA         -0.9543  -21.5677  -41.4683 C.3       9 UNK         0.1400 
     28 CB          0.3485  -22.2011  -40.9528 C.3       9 UNK        -0.1800 
     29 N          -1.0594  -20.2122  -40.9271 N.am      9 UNK        -0.5000 
     30 C          -2.1642  -19.6754  -40.3924 C.2       8 UNK         0.5000 
     31 O          -3.2382  -20.2713  -40.3058 O.2       8 UNK        -0.5000 
     32 CA         -2.0592  -18.2326  -39.8562 C.3       8 UNK         0.1400 
     33 CB         -1.8793  -18.2423  -38.3304 C.3       8 UNK        -0.1800 
     34 N          -0.9646  -17.4654  -40.4540 N.am      8 UNK        -0.5000 
     35 C          -0.9637  -16.9935  -41.7073 C.2       7 UNK         0.5000 
     36 O          -1.9046  -17.1283  -42.4886 O.2       7 UNK        -0.5000 
     37 CA          0.3193  -16.2838  -42.1808 C.3       7 UNK         0.1400 
     38 CB          0.2337  -14.7777  -41.8928 C.3       7 UNK        -0.1800 
     39 N           1.5662  -16.8094  -41.6160 N.am      7 UNK        -0.5000 
     40 C           1.9857  -18.0795  -41.6890 C.2       6 UNK         0.5000 
     41 O           1.3065  -18.9973  -42.1487 O.2       6 UNK        -0.5000 
     42 CA          3.4237  -18.3486  -41.2101 C.3       6 UNK         0.1400 
     43 CB          3.6921  -19.8440  -40.9637 C.3       6 UNK        -0.1800 
     44 N           4.3633  -17.8595  -42.2151 N.am      6 UNK        -0.5000 
     45 C           4.7416  -16.5830  -42.3628 C.2       5 UNK         0.5000 
     46 O           4.4343  -15.6849  -41.5773 O.2       5 UNK        -0.5000 
     47 CA          5.5673  -16.2512  -43.6209 C.3       5 UNK         0.1400 
     48 CB          7.0700  -16.3867  -43.3327 C.3       5 UNK        -0.1800 
     49 N           5.2186  -17.0866  -44.7754 N.am      5 UNK        -0.5000 
     50 C           4.0392  -17.0475  -45.4103 C.2       4 UNK         0.5000 
     51 O           3.1154  -16.2970  -45.0938 O.2       4 UNK        -0.5000 
     52 CA          3.8566  -18.0186  -46.5884 C.3       4 UNK         0.1400 
     53 CB          2.6456  -18.9382  -46.3646 C.3       4 UNK        -0.1800 
     54 N           3.6790  -17.2885  -47.8408 N.am      4 UNK        -0.5000 
     55 C           4.6657  -16.6852  -48.5173 C.2       3 UNK         0.5000 
     56 O           5.8423  -16.6883  -48.1530 O.2       3 UNK        -0.5000 
     57 CA          4.2811  -15.9637  -49.8192 C.3       3 UNK         0.1400 
     58 CB          4.0167  -16.9806  -50.9417 C.3       3 UNK        -0.1800 
     59 N           3.0896  -15.1384  -49.6314 N.am      3 UNK        -0.5000 
     60 C           3.0636  -13.7980  -49.6606 C.2       2 UNK         0.5000 
     61 O           4.0526  -13.0978  -49.8806 O.2       2 UNK        -0.5000 
     62 CA          1.7036  -13.1137  -49.4022 C.3       2 UNK         0.1400 
     63 CB          1.0098  -12.7770  -50.7309 C.3       2 UNK        -0.1800 
     64 N           0.8037  -13.9360  -48.5949 N.am      2 UNK        -0.5000 
     65 C           0.9845  -14.2112  -47.2962 C.2       1 UNK         0.5000 
     66 O           1.8275  -13.6444  -46.6003 O.2       1 UNK        -0.5000 
     67 C          -3.7109  -23.6825  -46.1067 C.2       11 UNK         0.5000 
     68 O          -4.3808  -24.4386  -46.8103 O.2       11 UNK        -0.5000 
     69 N          -2.6452  -24.0839  -45.3995 N.am      12 UNK        -0.5000 
     70 CA         -2.0163  -25.3992  -45.4832 C.3       12 UNK         0.1400 
     71 CB         -1.9734  -26.0408  -44.0865 C.3       12 UNK        -0.1800 
     72 C          -0.6048  -25.2494  -46.0735 C.2       12 UNK         0.5000 
     73 O          -0.3045  -25.8644  -47.0966 O.2       12 UNK        -0.5000 
     74 N           0.2238  -24.3991  -45.4523 N.am      13 UNK        -0.5000 
     75 CA          1.5768  -24.0553  -45.8867 C.3       13 UNK         0.1400 
     76 CB          2.2957  -23.3168  -44.7440 C.3       13 UNK        -0.1800 
     77 C           1.5221  -23.1987  -47.1625 C.2       13 UNK         0.5000 
     78 O           1.1552  -22.0297  -47.0850 O.2       13 UNK        -0.5000 
     79 N           1.8353  -23.8143  -48.3102 N.am      14 UNK        -0.5000 
     80 CA          1.6736  -23.2874  -49.6748 C.3       14 UNK         0.1400 
     81 CB          2.3844  -21.9306  -49.8748 C.3       14 UNK        -0.1800 
     82 C           0.2068  -23.2600  -50.1599 C.2       14 UNK         0.5000 
     83 O          -0.0581  -22.7200  -51.2343 O.2       14 UNK        -0.5000 
     84 N          -0.7025  -23.8835  -49.3944 N.am      15 UNK        -0.5000 
     85 CA         -2.0948  -24.2135  -49.7151 C.3       15 UNK         0.1400 
     86 CB         -2.1191  -25.4716  -50.6066 C.3       15 UNK        -0.1800 
     87 C          -2.9297  -23.0572  -50.3068 C.2       15 UNK         0.5000 
     88 O          -3.6069  -23.2563  -51.3153 O.2       15 UNK        -0.5000 
     89 N          -2.8529  -21.8648  -49.6973 N.am      16 UNK        -0.5000 
     90 CA         -3.5280  -20.6309  -50.1253 C.3       16 UNK         0.1400 
     91 CB         -5.0559  -20.7455  -49.9492 C.3       16 UNK        -0.1800 
     92 C          -3.1236  -20.2001  -51.5531 C.2       16 UNK         0.5000 
     93 O          -3.9828  -19.8590  -52.3701 O.2       16 UNK        -0.5000 
     94 N          -1.8117  -20.2605  -51.8214 N.am      17 UNK        -0.5000 
     95 CA         -1.1557  -20.0276  -53.1101 C.3       17 UNK         0.1400 
     96 CB         -1.4067  -18.5935  -53.6244 C.3       17 UNK        -0.1800 
     97 C          -1.5201  -21.1206  -54.1341 C.2       17 UNK         0.5000 
     98 O          -1.9868  -20.8161  -55.2312 O.2       17 UNK        -0.5000 
     99 N          -1.2995  -22.3826  -53.7399 N.am      18 UNK        -0.5000 
    100 CA        -1.5039  -23.6067  -54.5222 C.3       18 UNK         0.1400 
    101 CB        -0.4757  -23.6901  -55.6695 C.3       18 UNK        -0.1800 
    102 C         -2.9609  -23.7831  -54.9996 C.2       18 UNK         0.5000 
    103 O         -3.2054  -24.0331  -56.1813 O.2       18 UNK        -0.5000 
    104 N         -3.9004  -23.6354  -54.0557 N.am      19 UNK        -0.5000 
    105 CA        -5.3541  -23.7597  -54.1996 C.3       19 UNK         0.1400 
    106 CB        -5.7513  -25.1787  -54.6582 C.3       19 UNK        -0.1800 
    107 C         -6.0109  -22.6521  -55.0502 C.2       19 UNK         0.5000 
    108 O         -7.1711  -22.7972  -55.4388 O.2       19 UNK        -0.5000 
    109 N         -5.2917  -21.5477  -55.2958 N.am      20 UNK        -0.5000 
    110 CA        -5.8028  -20.3710  -56.0036 C.3       20 UNK         0.1400 
    111 CB        -4.6201  -19.5747  -56.5755 C.3       20 UNK        -0.1800 
    112 C         -6.6683  -19.4583  -55.1134 C.2       20 UNK         0.5000 
    113 O         -7.2773  -18.5230  -55.6347 O.2       20 UNK        -0.5000 
    114 N         -6.6656  -19.7004  -53.7925 N.am      21 UNK        -0.5000 
    115 CA        -7.2905  -18.8877  -52.7412 C.3       21 UNK         0.1400 
    116 CB        -8.8288  -18.9410  -52.8434 C.3       21 UNK        -0.1800 
    117 C         -6.7275  -17.4509  -52.7240 C.2       21 UNK         0.5000 
    118 O         -7.4778  -16.4868  -52.5650 O.2       21 UNK        -0.5000 
    119 N         -5.4092  -17.3517  -52.9403 N.am      22 UNK        -0.5000 
    120 CA        -4.6389  -16.1163  -53.1616 C.3       22 UNK         0.1400 
    121 C         -4.9678  -15.3625  -54.4893 C.2       22 UNK         0.5000 
    122 N         -5.7548  -15.9123  -55.4074 N.am      22 UNK        -0.7600 
    123 O         -4.4683  -14.2634  -54.7144 O.2       22 UNK        -0.5000 
    124 C124       -4.6333  -15.1656  -51.9335 C.3       23 UNK        -0.0398 
    125 S125       -3.9438  -15.9488  -50.4371 S.3       23 UNK        -0.2404 
    126 C126       -5.4267  -16.1171  -49.3970 C.3       23 UNK        -0.0205 
    127 H127       -2.1546  -17.7546  -48.9091 H         1 UNK         0.0600 
    128 H128       -0.8225  -18.8331  -49.3232 H         1 UNK         0.0600 
    129 H129       -1.2128  -17.4719  -50.3830 H         1 UNK         0.0600 
    130 H130       -1.6913  -16.0234  -47.5382 H         1 UNK         0.3000 
    131 H131        0.8220  -16.0407  -46.2649 H         1 UNK         0.0600 
    132 H132       -1.1865  -15.6906  -44.9831 H         1 UNK         0.0800 
    133 H133       -0.0812  -14.3730  -44.7347 H         1 UNK         0.0800 
    134 H134       -3.2192  -14.6803  -44.0718 H         1 UNK         0.0800 
    135 H135       -4.2463  -13.5791  -44.9545 H         1 UNK         0.0800 
    136 H136       -4.2436  -14.3804  -47.6981 H         1 UNK         0.1150 
    137 H137       -5.8366  -18.3360  -47.8786 H         1 UNK         0.1150 
    138 H138       -4.1834  -16.8504  -44.1993 H         1 UNK         0.1150 
    139 H139       -4.5057  -19.3934  -44.6893 H         1 UNK         0.0800 
    140 H140       -6.0965  -18.7699  -44.3735 H         1 UNK         0.0800 
    141 H141       -6.1665  -22.6943  -45.7015 H         1 UNK         0.0800 
    142 H142       -5.4285  -21.8313  -44.3784 H         1 UNK         0.0800 
    143 H143       -4.1030  -21.8874  -47.1265 H         1 UNK         0.0600 
    144 H144       -3.1389  -21.2467  -44.4162 H         1 UNK         0.3000 
    145 H145        0.0724  -20.5148  -45.3658 H         1 UNK         0.0600 
    146 H146       -0.2148  -18.1409  -44.8236 H         1 UNK         0.0600 
    147 H147       -0.9143  -18.4692  -46.4003 H         1 UNK         0.0600 
    148 H148       -1.9674  -18.2630  -45.0110 H         1 UNK         0.0600 
    149 H149       -1.1189  -19.5779  -43.0734 H         1 UNK         0.3000 
    150 H150       -1.7887  -22.1817  -41.1240 H         1 UNK         0.0600 
    151 H151        0.4345  -23.2397  -41.2749 H         1 UNK         0.0600 
    152 H152        0.3869  -22.1955  -39.8635 H         1 UNK         0.0600 
    153 H153        1.2264  -21.6710  -41.3232 H         1 UNK         0.0600 
    154 H154       -0.2281  -19.6390  -41.0275 H         1 UNK         0.3000 
    155 H155       -2.9999  -17.7275  -40.0861 H         1 UNK         0.0600 
    156 H156       -2.6944  -18.7798  -37.8439 H         1 UNK         0.0600 
    157 H157       -1.8741  -17.2295  -37.9271 H         1 UNK         0.0600 
    158 H158       -0.9465  -18.7263  -38.0381 H         1 UNK         0.0600 
    159 H159       -0.1475  -17.3118  -39.8814 H         1 UNK         0.3000 
    160 H160        0.3849  -16.4215  -43.2606 H         1 UNK         0.0600 
    161 H161        0.2419  -14.5729  -40.8216 H         1 UNK         0.0600 
    162 H162       -0.6835  -14.3500  -42.3005 H         1 UNK         0.0600 
    163 H163        1.0699  -14.2425  -42.3435 H         1 UNK         0.0600 
    164 H164        2.2242  -16.1221  -41.2701 H         1 UNK         0.3000 
    165 H165        3.5783  -17.8176  -40.2684 H         1 UNK         0.0600 
    166 H166        4.7058  -20.0060  -40.5970 H         1 UNK         0.0600 
    167 H167        3.0086  -20.2430  -40.2132 H         1 UNK         0.0600 
    168 H168        3.5667  -20.4356  -41.8716 H         1 UNK         0.0600 
    169 H169        4.6384  -18.5190  -42.9275 H         1 UNK         0.3000 
    170 H170        5.3623  -15.2112  -43.8838 H         1 UNK         0.0600 
    171 H171        7.3643  -15.7570  -42.4919 H         1 UNK         0.0600 
    172 H172        7.3426  -17.4134  -43.0852 H         1 UNK         0.0600 
    173 H173        7.6658  -16.0780  -44.1920 H         1 UNK         0.0600 
    174 H174        5.9376  -17.7099  -45.1140 H         1 UNK         0.3000 
    175 H175        4.7432  -18.6504  -46.6741 H         1 UNK         0.0600 
    176 H176        1.7153  -18.3732  -46.3216 H         1 UNK         0.0600 
    177 H177        2.5519  -19.6668  -47.1698 H         1 UNK         0.0600 
    178 H178        2.7364  -19.4939  -45.4302 H         1 UNK         0.0600 
    179 H179        2.7269  -17.2297  -48.1943 H         1 UNK         0.3000 
    180 H180        5.1321  -15.3484  -50.1184 H         1 UNK         0.0600 
    181 H181        3.1666  -17.6252  -50.7133 H         1 UNK         0.0600 
    182 H182        4.8840  -17.6228  -51.1000 H         1 UNK         0.0600 
    183 H183        3.8083  -16.4767  -51.8855 H         1 UNK         0.0600 
    184 H184        2.2351  -15.6395  -49.4086 H         1 UNK         0.3000 
    185 H185        1.8945  -12.1810  -48.8673 H         1 UNK         0.0600 
    186 H186        1.6423  -12.1403  -51.3509 H         1 UNK         0.0600 
    187 H187        0.7839  -13.6757  -51.3064 H         1 UNK         0.0600 
    188 H188        0.0754  -12.2409  -50.5635 H         1 UNK         0.0600 
    189 H189        0.0778  -14.4367  -49.0861 H         1 UNK         0.3000 
    190 H190       -2.1384  -23.3947  -44.8519 H         1 UNK         0.3000 
    191 H191       -2.5827  -26.0598  -46.1429 H         1 UNK         0.0600 
    192 H192       -2.9800  -26.2000  -43.6998 H         1 UNK         0.0600 
    193 H193       -1.4795  -27.0127  -44.1186 H         1 UNK         0.0600 
    194 H194       -1.4361  -25.4216  -43.3672 H         1 UNK         0.0600 
    195 H195       -0.1287  -23.8691  -44.6581 H         1 UNK         0.3000 
    196 H196        2.1236  -24.9776  -46.0934 H         1 UNK         0.0600 
    197 H197        3.3151  -23.0554  -45.0299 H         1 UNK         0.0600 
    198 H198        2.3558  -23.9374  -43.8498 H         1 UNK         0.0600 
    199 H199        1.7848  -22.3919  -44.4725 H         1 UNK         0.0600 
    200 H200        2.1043  -24.7879  -48.2617 H         1 UNK         0.3000 
    201 H201        2.1777  -24.0072  -50.3210 H         1 UNK         0.0600 
    202 H202        3.4023  -21.9539  -49.4860 H         1 UNK         0.0600 
    203 H203        1.8543  -21.1133  -49.3851 H         1 UNK         0.0600 
    204 H204        2.4478  -21.6793  -50.9341 H         1 UNK         0.0600 
    205 H205       -0.3602  -24.3018  -48.5382 H         1 UNK         0.3000 
    206 H206       -2.5697  -24.4768  -48.7712 H         1 UNK         0.0600 
    207 H207       -1.5909  -26.2987  -50.1318 H         1 UNK         0.0600 
    208 H208       -3.1405  -25.8067  -50.7913 H         1 UNK         0.0600 
    209 H209       -1.6515  -25.2875  -51.5738 H         1 UNK         0.0600 
    210 H210       -2.2598  -21.7661  -48.8755 H         1 UNK         0.3000 
    211 H211       -3.1843  -19.8481  -49.4498 H         1 UNK         0.0600 
    212 H212       -5.5036  -21.4127  -50.6865 H         1 UNK         0.0600 
    213 H213       -5.5252  -19.7679  -50.0562 H         1 UNK         0.0600 
    214 H214       -5.3184  -21.1195  -48.9616 H         1 UNK         0.0600 
    215 H215       -1.2113  -20.6441  -51.1039 H         1 UNK         0.3000 
    216 H216       -0.0847  -20.1238  -52.9261 H         1 UNK         0.0600 
    217 H217       -0.7863  -18.3830  -54.4961 H         1 UNK         0.0600 
    218 H218       -1.1642  -17.8507  -52.8650 H         1 UNK         0.0600 
    219 H219       -2.4429  -18.4430  -53.9249 H         1 UNK         0.0600 
    220 H220       -0.9165  -22.5215  -52.8054 H         1 UNK         0.3000 
    221 H221       -1.3034  -24.4378  -53.8452 H         1 UNK         0.0600 
    222 H222       -0.6284  -22.9036  -56.4093 H         1 UNK         0.0600 
    223 H223        0.5430  -23.6019  -55.2919 H         1 UNK         0.0600 
    224 H224       -0.5467  -24.6463  -56.1891 H         1 UNK         0.0600 
    225 H225       -3.6004  -23.4215  -53.1046 H         1 UNK         0.3000 
    226 H226       -5.7532  -23.6253  -53.1933 H         1 UNK         0.0600 
    227 H227       -5.2850  -25.9399  -54.0328 H         1 UNK         0.0600 
    228 H228       -6.8300  -25.3240  -54.5917 H         1 UNK         0.0600 
    229 H229       -5.4619  -25.3681  -55.6921 H         1 UNK         0.0600 
    230 H230       -4.3368  -21.5000  -54.9642 H         1 UNK         0.3000 
    231 H231       -6.4229  -20.7024  -56.8390 H         1 UNK         0.0600 
    232 H232       -4.0054  -19.1467  -55.7831 H         1 UNK         0.0600 
    233 H233       -4.9677  -18.7497  -57.1985 H         1 UNK         0.0600 
    234 H234       -3.9812  -20.2033  -57.1962 H         1 UNK         0.0600 
    235 H235       -6.0561  -20.4371  -53.4640 H         1 UNK         0.3000 
    236 H236       -7.0099  -19.3406  -51.7911 H         1 UNK         0.0600 
    237 H237       -9.1869  -19.9704  -52.8545 H         1 UNK         0.0600 
    238 H238       -9.2929  -18.4452  -51.9902 H         1 UNK         0.0600 
    239 H239       -9.1946  -18.4488  -53.7450 H         1 UNK         0.0600 
    240 H240       -4.8779  -18.2156  -52.9987 H         1 UNK         0.3000 
    241 H241       -3.6114  -16.4515  -53.3006 H         1 UNK         0.0600 
    242 H242       -5.9374  -15.4054  -56.2588 H         1 UNK         0.3800 
    243 H243       -6.2070  -16.8059  -55.2572 H         1 UNK         0.3800 
    244 H244       -4.0147  -14.2897  -52.1348 H         1 UNK         0.0800 
    245 H245       -5.6339  -14.7801  -51.7370 H         1 UNK         0.0800 
    246 H246       -6.0302  -15.2108  -49.4620 H         1 UNK         0.0800 
    247 H247       -6.0436  -16.9310  -49.7799 H         1 UNK         0.0800 
@<TRIPOS>BOND
     1    1    2 1    
     2    1  127 1    
     3    1  128 1    
     4    1  129 1    
     5    2    3 2    
     6    2    4 am   BACKBONE|DICT|INTERRES
     7    4    5 1    
     8    4  130 1    
     9    5    6 1    
    10    5   65 1    
    11    5  131 1    
    12    6    7 1    
    13    6  132 1    
    14    6  133 1    
    15    7    8 1    
    16    8    9 1    
    17    8  134 1    
    18    8  135 1    
    19    9   10 ar   
    20    9   14 ar   
    21   10   11 ar   
    22   10  136 1    
    23   11   12 ar   
    24   11  126 1    
    25   12   13 ar   
    26   12  137 1    
    27   13   14 ar   
    28   13   15 1    
    29   14  138 1    
    30   15   16 1    
    31   15  139 1    
    32   15  140 1    
    33   16   17 1    
    34   17   18 1    
    35   17  141 1    
    36   17  142 1    
    37   18   19 1    
    38   18   67 1    
    39   18  143 1    
    40   19   20 am   BACKBONE|DICT|INTERRES
    41   19  144 1    
    42   20   21 2    
    43   20   22 1    
    44   22   23 1    
    45   22   24 1    
    46   22  145 1    
    47   23  146 1    
    48   23  147 1    
    49   23  148 1    
    50   24   25 am   BACKBONE|DICT|INTERRES
    51   24  149 1    
    52   25   26 2    
    53   25   27 1    
    54   27   28 1    
    55   27   29 1    
    56   27  150 1    
    57   28  151 1    
    58   28  152 1    
    59   28  153 1    
    60   29   30 am   BACKBONE|DICT|INTERRES
    61   29  154 1    
    62   30   31 2    
    63   30   32 1    
    64   32   33 1    
    65   32   34 1    
    66   32  155 1    
    67   33  156 1    
    68   33  157 1    
    69   33  158 1    
    70   34   35 am   BACKBONE|DICT|INTERRES
    71   34  159 1    
    72   35   36 2    
    73   35   37 1    
    74   37   38 1    
    75   37   39 1    
    76   37  160 1    
    77   38  161 1    
    78   38  162 1    
    79   38  163 1    
    80   39   40 am   BACKBONE|DICT|INTERRES
    81   39  164 1    
    82   40   41 2    
    83   40   42 1    
    84   42   43 1    
    85   42   44 1    
    86   42  165 1    
    87   43  166 1    
    88   43  167 1    
    89   43  168 1    
    90   44   45 am   BACKBONE|DICT|INTERRES
    91   44  169 1    
    92   45   46 2    
    93   45   47 1    
    94   47   48 1    
    95   47   49 1    
    96   47  170 1    
    97   48  171 1    
    98   48  172 1    
    99   48  173 1    
   100   49   50 am   BACKBONE|DICT|INTERRES
   101   49  174 1    
   102   50   51 2    
   103   50   52 1    
   104   52   53 1    
   105   52   54 1    
   106   52  175 1    
   107   53  176 1    
   108   53  177 1    
   109   53  178 1    
   110   54   55 am   BACKBONE|DICT|INTERRES
   111   54  179 1    
   112   55   56 2    
   113   55   57 1    
   114   57   58 1    
   115   57   59 1    
   116   57  180 1    
   117   58  181 1    
   118   58  182 1    
   119   58  183 1    
   120   59   60 am   BACKBONE|DICT|INTERRES
   121   59  184 1    
   122   60   61 2    
   123   60   62 1    
   124   62   63 1    
   125   62   64 1    
   126   62  185 1    
   127   63  186 1    
   128   63  187 1    
   129   63  188 1    
   130   64   65 am   BACKBONE|DICT|INTERRES
   131   64  189 1    
   132   65   66 2    
   133   67   68 2    
   134   67   69 am   BACKBONE|DICT|INTERRES
   135   69   70 1    
   136   69  190 1    
   137   70   71 1    
   138   70   72 1    
   139   70  191 1    
   140   71  192 1    
   141   71  193 1    
   142   71  194 1    
   143   72   73 2    
   144   72   74 am   BACKBONE|DICT|INTERRES
   145   74   75 1    
   146   74  195 1    
   147   75   76 1    
   148   75   77 1    
   149   75  196 1    
   150   76  197 1    
   151   76  198 1    
   152   76  199 1    
   153   77   78 2    
   154   77   79 am   BACKBONE|DICT|INTERRES
   155   79   80 1    
   156   79  200 1    
   157   80   81 1    
   158   80   82 1    
   159   80  201 1    
   160   81  202 1    
   161   81  203 1    
   162   81  204 1    
   163   82   83 2    
   164   82   84 am   BACKBONE|DICT|INTERRES
   165   84   85 1    
   166   84  205 1    
   167   85   86 1    
   168   85   87 1    
   169   85  206 1    
   170   86  207 1    
   171   86  208 1    
   172   86  209 1    
   173   87   88 2    
   174   87   89 am   BACKBONE|DICT|INTERRES
   175   89   90 1    
   176   89  210 1    
   177   90   91 1    
   178   90   92 1    
   179   90  211 1    
   180   91  212 1    
   181   91  213 1    
   182   91  214 1    
   183   92   93 2    
   184   92   94 am   BACKBONE|DICT|INTERRES
   185   94   95 1    
   186   94  215 1    
   187   95   96 1    
   188   95   97 1    
   189   95  216 1    
   190   96  217 1    
   191   96  218 1    
   192   96  219 1    
   193   97   98 2    
   194   97   99 am   BACKBONE|DICT|INTERRES
   195   99  100 1    
   196   99  220 1    
   197  100  101 1    
   198  100  102 1    
   199  100  221 1    
   200  101  222 1    
   201  101  223 1    
   202  101  224 1    
   203  102  103 2    
   204  102  104 am   BACKBONE|DICT|INTERRES
   205  104  105 1    
   206  104  225 1    
   207  105  106 1    
   208  105  107 1    
   209  105  226 1    
   210  106  227 1    
   211  106  228 1    
   212  106  229 1    
   213  107  108 2    
   214  107  109 am   BACKBONE|DICT|INTERRES
   215  109  110 1    
   216  109  230 1    
   217  110  111 1    
   218  110  112 1    
   219  110  231 1    
   220  111  232 1    
   221  111  233 1    
   222  111  234 1    
   223  112  113 2    
   224  112  114 am   BACKBONE|DICT|INTERRES
   225  114  115 1    
   226  114  235 1    
   227  115  116 1    
   228  115  117 1    
   229  115  236 1    
   230  116  237 1    
   231  116  238 1    
   232  116  239 1    
   233  117  118 2    
   234  117  119 am   BACKBONE|DICT|INTERRES
   235  119  120 1    
   236  119  240 1    
   237  120  121 1    
   238  120  124 1    
   239  120  241 1    
   240  121  122 am   BACKBONE|DICT|INTERRES
   241  121  123 2    
   242  122  242 1    
   243  122  243 1    
   244  124  125 1    
   245  124  244 1    
   246  124  245 1    
   247  125  126 1    
   248  126  246 1    
   249  126  247 1    
@<TRIPOS>SUBSTRUCTURE
     1 UNK         1 GROUP             0       ****    0 ROOT    
