@<TRIPOS>MOLECULE
3R540
247   249    1
SMALL
USER_CHARGES


@<TRIPOS>ATOM
      1 CA         -2.5437  -13.2130  -53.1818 C.3       0 UNK        -0.1800 
      2 C          -1.2732  -13.7726  -52.5583 C.2       0 UNK         0.5000 
      3 O          -0.3063  -14.0410  -53.2710 O.2       0 UNK        -0.5000 
      4 N          -1.2765  -13.9699  -51.2354 N.am      1 UNK        -0.5000 
      5 CA         -0.1467  -14.5118  -50.4693 C.3       1 UNK         0.1400 
      6 C6         -0.6166  -15.1283  -49.1334 C.3       23 UNK        -0.0398 
      7 S7         -1.6963  -16.5763  -49.3536 S.3       23 UNK        -0.2404 
      8 C8         -0.8813  -17.7682  -48.2368 C.3       23 UNK        -0.0205 
      9 C9          0.4565  -18.3420  -48.7108 C.ar      23 UNK        -0.0193 
     10 C10         0.9096  -18.2378  -50.0327 C.ar      23 UNK        -0.1150 
     11 C11         2.1271  -18.8072  -50.4197 C.ar      23 UNK        -0.0193 
     12 C12         2.8916  -19.5009  -49.4804 C.ar      23 UNK        -0.1150 
     13 C13         2.4607  -19.6090  -48.1572 C.ar      23 UNK        -0.0193 
     14 C14         1.2506  -19.0176  -47.7795 C.ar      23 UNK        -0.1150 
     15 C15         3.3230  -20.3359  -47.1355 C.3       23 UNK        -0.0205 
     16 S16         2.8195  -22.0733  -46.9321 S.3       23 UNK        -0.2404 
     17 C17         1.3019  -21.8516  -45.9526 C.3       23 UNK        -0.0398 
     18 CA          0.7419  -23.1713  -45.3661 C.3       11 UNK         0.1400 
     19 N           0.1311  -22.9096  -44.0653 N.am      11 UNK        -0.5000 
     20 C           0.4762  -23.4397  -42.8861 C.2       10 UNK         0.5000 
     21 O           1.3703  -24.2740  -42.7474 O.2       10 UNK        -0.5000 
     22 CA         -0.3121  -22.9551  -41.6484 C.3       10 UNK         0.1400 
     23 CB          0.5801  -22.0852  -40.7492 C.3       10 UNK        -0.1800 
     24 N          -1.5214  -22.2022  -42.0028 N.am      10 UNK        -0.5000 
     25 C          -2.6294  -22.7639  -42.5086 C.2       9 UNK         0.5000 
     26 O          -2.7785  -23.9813  -42.6042 O.2       9 UNK        -0.5000 
     27 CA         -3.7301  -21.8309  -43.0524 C.3       9 UNK         0.1400 
     28 CB         -4.8892  -21.7182  -42.0518 C.3       9 UNK        -0.1800 
     29 N          -3.2660  -20.4845  -43.3971 N.am      9 UNK        -0.5000 
     30 C          -2.3877  -20.1793  -44.3629 C.2       8 UNK         0.5000 
     31 O          -1.8554  -21.0192  -45.0876 O.2       8 UNK        -0.5000 
     32 CA         -2.0075  -18.6915  -44.5243 C.3       8 UNK         0.1400 
     33 CB         -3.0820  -17.7237  -43.9875 C.3       8 UNK        -0.1800 
     34 N          -0.6960  -18.3619  -43.9486 N.am      8 UNK        -0.5000 
     35 C          -0.2408  -18.6836  -42.7255 C.2       7 UNK         0.5000 
     36 O          -0.8788  -19.3286  -41.8930 O.2       7 UNK        -0.5000 
     37 CA          1.1632  -18.1778  -42.3641 C.3       7 UNK         0.1400 
     38 CB          2.2406  -18.8228  -43.2527 C.3       7 UNK        -0.1800 
     39 N           1.2186  -16.7228  -42.4836 N.am      7 UNK        -0.5000 
     40 C           0.9058  -15.8714  -41.4942 C.2       6 UNK         0.5000 
     41 O           0.6277  -16.2285  -40.3489 O.2       6 UNK        -0.5000 
     42 CA          0.8954  -14.3647  -41.8298 C.3       6 UNK         0.1400 
     43 CB          2.2472  -13.7258  -41.4777 C.3       6 UNK        -0.1800 
     44 N           0.5976  -14.0933  -43.2349 N.am      6 UNK        -0.5000 
     45 C          -0.5828  -14.3264  -43.8277 C.2       5 UNK         0.5000 
     46 O          -1.5966  -14.6556  -43.2135 O.2       5 UNK        -0.5000 
     47 CA         -0.6351  -14.1990  -45.3655 C.3       5 UNK         0.1400 
     48 CB         -1.3329  -12.8899  -45.7631 C.3       5 UNK        -0.1800 
     49 N           0.6857  -14.2557  -46.0029 N.am      5 UNK        -0.5000 
     50 C           1.5210  -15.3069  -45.9583 C.2       4 UNK         0.5000 
     51 O           1.2083  -16.3871  -45.4530 O.2       4 UNK        -0.5000 
     52 CA          2.9506  -15.1115  -46.5077 C.3       4 UNK         0.1400 
     53 CB          3.2612  -16.0879  -47.6489 C.3       4 UNK        -0.1800 
     54 N           3.2295  -13.7424  -46.9497 N.am      4 UNK        -0.5000 
     55 C           3.4848  -12.7176  -46.1221 C.2       3 UNK         0.5000 
     56 O           3.4885  -12.8275  -44.8952 O.2       3 UNK        -0.5000 
     57 CA          3.7491  -11.3364  -46.7574 C.3       3 UNK         0.1400 
     58 CB          5.2593  -11.0740  -46.8571 C.3       3 UNK        -0.1800 
     59 N           3.1475  -11.1605  -48.0824 N.am      3 UNK        -0.5000 
     60 C           1.8317  -11.1607  -48.3339 C.2       2 UNK         0.5000 
     61 O           0.9782  -11.3130  -47.4587 O.2       2 UNK        -0.5000 
     62 CA          1.3772  -11.0127  -49.8032 C.3       2 UNK         0.1400 
     63 CB          2.5252  -10.7670  -50.8086 C.3       2 UNK        -0.1800 
     64 N           0.5661  -12.1638  -50.2135 N.am      2 UNK        -0.5000 
     65 C           0.9384  -13.4534  -50.1810 C.2       1 UNK         0.5000 
     66 O           2.0759  -13.8270  -49.8908 O.2       1 UNK        -0.5000 
     67 C          -0.2894  -23.8279  -46.3127 C.2       11 UNK         0.5000 
     68 O          -0.1727  -23.6905  -47.5316 O.2       11 UNK        -0.5000 
     69 N          -1.3009  -24.5082  -45.7466 N.am      12 UNK        -0.5000 
     70 CA         -2.4895  -25.0332  -46.4294 C.3       12 UNK         0.1400 
     71 CB         -3.3635  -25.7959  -45.4225 C.3       12 UNK        -0.1800 
     72 C          -2.2306  -25.9104  -47.6677 C.2       12 UNK         0.5000 
     73 O          -3.0603  -25.9054  -48.5767 O.2       12 UNK        -0.5000 
     74 N          -1.0956  -26.6206  -47.6947 N.am      13 UNK        -0.5000 
     75 CA         -0.6569  -27.4416  -48.8244 C.3       13 UNK         0.1400 
     76 CB          0.5246  -28.3165  -48.3788 C.3       13 UNK        -0.1800 
     77 C          -0.2777  -26.6178  -50.0721 C.2       13 UNK         0.5000 
     78 O          -0.4660  -27.0998  -51.1895 O.2       13 UNK        -0.5000 
     79 N           0.2390  -25.3991  -49.8649 N.am      14 UNK        -0.5000 
     80 CA          0.5844  -24.4529  -50.9256 C.3       14 UNK         0.1400 
     81 CB          1.8477  -23.6734  -50.5247 C.3       14 UNK        -0.1800 
     82 C          -0.5796  -23.4861  -51.1856 C.2       14 UNK         0.5000 
     83 O          -0.9330  -23.2475  -52.3395 O.2       14 UNK        -0.5000 
     84 N          -1.1660  -22.9661  -50.1000 N.am      15 UNK        -0.5000 
     85 CA         -2.2255  -21.9581  -50.1057 C.3       15 UNK         0.1400 
     86 CB         -2.2602  -21.3007  -48.7177 C.3       15 UNK        -0.1800 
     87 C          -3.6186  -22.5021  -50.4817 C.2       15 UNK         0.5000 
     88 O          -4.5608  -21.7144  -50.5571 O.2       15 UNK        -0.5000 
     89 N          -3.7414  -23.8250  -50.6684 N.am      16 UNK        -0.5000 
     90 CA         -4.9619  -24.5739  -50.9907 C.3       16 UNK         0.1400 
     91 CB         -5.4366  -24.2539  -52.4224 C.3       16 UNK        -0.1800 
     92 C          -6.0568  -24.3733  -49.9236 C.2       16 UNK         0.5000 
     93 O          -7.1833  -23.9932  -50.2443 O.2       16 UNK        -0.5000 
     94 N          -5.6685  -24.6073  -48.6617 N.am      17 UNK        -0.5000 
     95 CA         -6.4549  -24.3984  -47.4402 C.3       17 UNK         0.1400 
     96 CB         -7.6562  -25.3652  -47.3824 C.3       17 UNK        -0.1800 
     97 C          -6.8445  -22.9191  -47.2248 C.2       17 UNK         0.5000 
     98 O          -7.9854  -22.6238  -46.8656 O.2       17 UNK        -0.5000 
     99 N          -5.8658  -22.0251  -47.4366 N.am      18 UNK        -0.5000 
    100 CA        -5.9476  -20.5658  -47.2935 C.3       18 UNK         0.1400 
    101 CB        -6.2022  -20.1659  -45.8246 C.3       18 UNK        -0.1800 
    102 C         -6.9401  -19.9197  -48.2827 C.2       18 UNK         0.5000 
    103 O         -7.7568  -19.0823  -47.8923 O.2       18 UNK        -0.5000 
    104 N         -6.8403  -20.3232  -49.5534 N.am      19 UNK        -0.5000 
    105 CA        -7.5624  -19.7430  -50.6815 C.3       19 UNK         0.1400 
    106 CB        -7.8966  -20.8740  -51.6719 C.3       19 UNK        -0.1800 
    107 C         -6.7226  -18.6275  -51.3399 C.2       19 UNK         0.5000 
    108 O         -5.7324  -18.1656  -50.7686 O.2       19 UNK        -0.5000 
    109 N         -7.1285  -18.2156  -52.5479 N.am      20 UNK        -0.5000 
    110 CA        -6.4245  -17.2353  -53.3818 C.3       20 UNK         0.1400 
    111 CB        -7.4246  -16.6472  -54.3911 C.3       20 UNK        -0.1800 
    112 C         -5.1897  -17.8133  -54.1103 C.2       20 UNK         0.5000 
    113 O         -4.4713  -17.0571  -54.7661 O.2       20 UNK        -0.5000 
    114 N         -4.9762  -19.1335  -54.0111 N.am      21 UNK        -0.5000 
    115 CA        -3.8371  -19.8595  -54.5727 C.3       21 UNK         0.1400 
    116 CB        -4.0700  -21.3650  -54.3744 C.3       21 UNK        -0.1800 
    117 C         -2.4956  -19.4400  -53.9408 C.2       21 UNK         0.5000 
    118 O         -2.4655  -18.9833  -52.7954 O.2       21 UNK        -0.5000 
    119 N         -1.4083  -19.6204  -54.7015 N.am      22 UNK        -0.5000 
    120 CA        -0.0174  -19.2746  -54.3553 C.3       22 UNK         0.1400 
    121 C          0.2543  -17.7427  -54.3102 C.2       22 UNK         0.5000 
    122 N         -0.5449  -16.9621  -53.5983 N.am      22 UNK        -0.7600 
    123 O          1.1914  -17.2601  -54.9396 O.2       22 UNK        -0.5000 
    124 C124        0.4688  -20.0004  -53.0708 C.3       23 UNK        -0.0398 
    125 S125        2.2827  -20.0909  -52.8940 S.3       23 UNK        -0.2404 
    126 C126        2.6399  -18.6448  -51.8425 C.3       23 UNK        -0.0205 
    127 H127       -2.3259  -12.2839  -53.7085 H         1 UNK         0.0600 
    128 H128       -3.3080  -13.0084  -52.4317 H         1 UNK         0.0600 
    129 H129       -2.9531  -13.9254  -53.8984 H         1 UNK         0.0600 
    130 H130       -2.1133  -13.7716  -50.7057 H         1 UNK         0.3000 
    131 H131        0.3301  -15.2989  -51.0575 H         1 UNK         0.0600 
    132 H132        0.2453  -15.4356  -48.5430 H         1 UNK         0.0800 
    133 H133       -1.1510  -14.3923  -48.5327 H         1 UNK         0.0800 
    134 H134       -0.7432  -17.2865  -47.2681 H         1 UNK         0.0800 
    135 H135       -1.5703  -18.5942  -48.0709 H         1 UNK         0.0800 
    136 H136        0.3206  -17.7171  -50.7725 H         1 UNK         0.1150 
    137 H137        3.8306  -19.9458  -49.7784 H         1 UNK         0.1150 
    138 H138        0.9230  -19.0815  -46.7519 H         1 UNK         0.1150 
    139 H139        4.3677  -20.3121  -47.4488 H         1 UNK         0.0800 
    140 H140        3.2876  -19.8193  -46.1756 H         1 UNK         0.0800 
    141 H141        0.5484  -21.3384  -46.5511 H         1 UNK         0.0800 
    142 H142        1.5516  -21.1615  -45.1462 H         1 UNK         0.0800 
    143 H143        1.5572  -23.8873  -45.2471 H         1 UNK         0.0600 
    144 H144       -0.6394  -22.2494  -44.0964 H         1 UNK         0.3000 
    145 H145       -0.6081  -23.8386  -41.0789 H         1 UNK         0.0600 
    146 H146        0.0318  -21.7195  -39.8809 H         1 UNK         0.0600 
    147 H147        1.4328  -22.6555  -40.3787 H         1 UNK         0.0600 
    148 H148        0.9749  -21.2227  -41.2857 H         1 UNK         0.0600 
    149 H149       -1.4584  -21.1885  -41.9495 H         1 UNK         0.3000 
    150 H150       -4.1120  -22.2924  -43.9655 H         1 UNK         0.0600 
    151 H151       -5.2818  -22.7029  -41.7947 H         1 UNK         0.0600 
    152 H152       -5.7147  -21.1399  -42.4676 H         1 UNK         0.0600 
    153 H153       -4.5738  -21.2376  -41.1249 H         1 UNK         0.0600 
    154 H154       -3.6077  -19.7330  -42.8158 H         1 UNK         0.3000 
    155 H155       -1.9289  -18.5246  -45.5977 H         1 UNK         0.0600 
    156 H156       -3.1226  -17.7149  -42.8977 H         1 UNK         0.0600 
    157 H157       -4.0740  -17.9826  -44.3601 H         1 UNK         0.0600 
    158 H158       -2.8796  -16.7054  -44.3165 H         1 UNK         0.0600 
    159 H159       -0.0804  -17.8207  -44.5455 H         1 UNK         0.3000 
    160 H160        1.3722  -18.4701  -41.3326 H         1 UNK         0.0600 
    161 H161        2.0960  -18.5985  -44.3093 H         1 UNK         0.0600 
    162 H162        2.2342  -19.9078  -43.1435 H         1 UNK         0.0600 
    163 H163        3.2358  -18.4765  -42.9740 H         1 UNK         0.0600 
    164 H164        1.3816  -16.3572  -43.4141 H         1 UNK         0.3000 
    165 H165        0.1223  -13.8933  -41.2194 H         1 UNK         0.0600 
    166 H166        2.2299  -12.6486  -41.6446 H         1 UNK         0.0600 
    167 H167        2.4954  -13.8880  -40.4280 H         1 UNK         0.0600 
    168 H168        3.0577  -14.1438  -42.0764 H         1 UNK         0.0600 
    169 H169        1.3722  -13.7900  -43.8092 H         1 UNK         0.3000 
    170 H170       -1.2255  -15.0356  -45.7447 H         1 UNK         0.0600 
    171 H171       -2.3436  -12.8462  -45.3554 H         1 UNK         0.0600 
    172 H172       -0.7913  -12.0195  -45.3904 H         1 UNK         0.0600 
    173 H173       -1.4161  -12.7901  -46.8446 H         1 UNK         0.0600 
    174 H174        1.0136  -13.3965  -46.4262 H         1 UNK         0.3000 
    175 H175        3.6335  -15.3459  -45.6884 H         1 UNK         0.0600 
    176 H176        2.5323  -16.0277  -48.4561 H         1 UNK         0.0600 
    177 H177        4.2479  -15.9043  -48.0738 H         1 UNK         0.0600 
    178 H178        3.2609  -17.1115  -47.2782 H         1 UNK         0.0600 
    179 H179        3.1905  -13.5738  -47.9482 H         1 UNK         0.3000 
    180 H180        3.3158  -10.5863  -46.0926 H         1 UNK         0.0600 
    181 H181        5.7464  -11.7800  -47.5309 H         1 UNK         0.0600 
    182 H182        5.7380  -11.1680  -45.8813 H         1 UNK         0.0600 
    183 H183        5.4623  -10.0665  -47.2206 H         1 UNK         0.0600 
    184 H184        3.7852  -11.0587  -48.8585 H         1 UNK         0.3000 
    185 H185        0.7207  -10.1420  -49.8317 H         1 UNK         0.0600 
    186 H186        3.0778   -9.8596  -50.5620 H         1 UNK         0.0600 
    187 H187        3.2356  -11.5938  -50.8403 H         1 UNK         0.0600 
    188 H188        2.1331  -10.6356  -51.8172 H         1 UNK         0.0600 
    189 H189       -0.3959  -11.9608  -50.4438 H         1 UNK         0.3000 
    190 H190       -1.3126  -24.5689  -44.7381 H         1 UNK         0.3000 
    191 H191       -3.0571  -24.1685  -46.7775 H         1 UNK         0.0600 
    192 H192       -3.8132  -25.1173  -44.6992 H         1 UNK         0.0600 
    193 H193       -4.1829  -26.3192  -45.9174 H         1 UNK         0.0600 
    194 H194       -2.7872  -26.5419  -44.8742 H         1 UNK         0.0600 
    195 H195       -0.4729  -26.5610  -46.9028 H         1 UNK         0.3000 
    196 H196       -1.4823  -28.1002  -49.1035 H         1 UNK         0.0600 
    197 H197        0.8614  -28.9615  -49.1916 H         1 UNK         0.0600 
    198 H198        0.2452  -28.9633  -47.5470 H         1 UNK         0.0600 
    199 H199        1.3767  -27.7124  -48.0645 H         1 UNK         0.0600 
    200 H200        0.2998  -25.0486  -48.9150 H         1 UNK         0.3000 
    201 H201        0.7989  -24.9873  -51.8535 H         1 UNK         0.0600 
    202 H202        2.6918  -24.3445  -50.3667 H         1 UNK         0.0600 
    203 H203        1.6985  -23.1026  -49.6074 H         1 UNK         0.0600 
    204 H204        2.1338  -22.9663  -51.3045 H         1 UNK         0.0600 
    205 H205       -0.7999  -23.2215  -49.1853 H         1 UNK         0.3000 
    206 H206       -1.9665  -21.1924  -50.8405 H         1 UNK         0.0600 
    207 H207       -1.2739  -20.9337  -48.4332 H         1 UNK         0.0600 
    208 H208       -2.9394  -20.4486  -48.7107 H         1 UNK         0.0600 
    209 H209       -2.5872  -21.9964  -47.9446 H         1 UNK         0.0600 
    210 H210       -2.9163  -24.3892  -50.5197 H         1 UNK         0.3000 
    211 H211       -4.6927  -25.6308  -50.9628 H         1 UNK         0.0600 
    212 H212       -5.7658  -23.2205  -52.5188 H         1 UNK         0.0600 
    213 H213       -6.2753  -24.8906  -52.7059 H         1 UNK         0.0600 
    214 H214       -4.6406  -24.4205  -53.1481 H         1 UNK         0.0600 
    215 H215       -4.7278  -24.9714  -48.5371 H         1 UNK         0.3000 
    216 H216       -5.7993  -24.6529  -46.6078 H         1 UNK         0.0600 
    217 H217       -8.1592  -25.3045  -46.4166 H         1 UNK         0.0600 
    218 H218       -7.3366  -26.3986  -47.5161 H         1 UNK         0.0600 
    219 H219       -8.3974  -25.1408  -48.1498 H         1 UNK         0.0600 
    220 H220       -4.9866  -22.3767  -47.7827 H         1 UNK         0.3000 
    221 H221       -4.9653  -20.1774  -47.5624 H         1 UNK         0.0600 
    222 H222       -7.1979  -20.4564  -45.4887 H         1 UNK         0.0600 
    223 H223       -5.4773  -20.6310  -45.1599 H         1 UNK         0.0600 
    224 H224       -6.1164  -19.0867  -45.6940 H         1 UNK         0.0600 
    225 H225       -6.0861  -20.9582  -49.8065 H         1 UNK         0.3000 
    226 H226       -8.4985  -19.2991  -50.3374 H         1 UNK         0.0600 
    227 H227       -8.4125  -21.6930  -51.1703 H         1 UNK         0.0600 
    228 H228       -8.5531  -20.5310  -52.4718 H         1 UNK         0.0600 
    229 H229       -6.9961  -21.2818  -52.1309 H         1 UNK         0.0600 
    230 H230       -7.9540  -18.6329  -52.9533 H         1 UNK         0.3000 
    231 H231       -6.0701  -16.4228  -52.7439 H         1 UNK         0.0600 
    232 H232       -7.8108  -17.4116  -55.0666 H         1 UNK         0.0600 
    233 H233       -6.9569  -15.8747  -55.0030 H         1 UNK         0.0600 
    234 H234       -8.2724  -16.1862  -53.8840 H         1 UNK         0.0600 
    235 H235       -5.5952  -19.6638  -53.4185 H         1 UNK         0.3000 
    236 H236       -3.7999  -19.6463  -55.6430 H         1 UNK         0.0600 
    237 H237       -5.0040  -21.6886  -54.8341 H         1 UNK         0.0600 
    238 H238       -3.2668  -21.9512  -54.8225 H         1 UNK         0.0600 
    239 H239       -4.1081  -21.6230  -53.3164 H         1 UNK         0.0600 
    240 H240       -1.5339  -19.9858  -55.6347 H         1 UNK         0.3000 
    241 H241        0.5740  -19.6643  -55.1853 H         1 UNK         0.0600 
    242 H242       -0.3831  -15.9610  -53.5723 H         1 UNK         0.3800 
    243 H243       -1.3311  -17.3754  -53.1080 H         1 UNK         0.3800 
    244 H244        0.0158  -19.5751  -52.1777 H         1 UNK         0.0800 
    245 H245        0.1219  -21.0318  -53.1013 H         1 UNK         0.0800 
    246 H246        2.2300  -17.7400  -52.2910 H         1 UNK         0.0800 
    247 H247        3.7203  -18.4959  -51.8185 H         1 UNK         0.0800 
@<TRIPOS>BOND
     1    1    2 1    
     2    1  127 1    
     3    1  128 1    
     4    1  129 1    
     5    2    3 2    
     6    2    4 am   BACKBONE|DICT|INTERRES
     7    4    5 1    
     8    4  130 1    
     9    5    6 1    
    10    5   65 1    
    11    5  131 1    
    12    6    7 1    
    13    6  132 1    
    14    6  133 1    
    15    7    8 1    
    16    8    9 1    
    17    8  134 1    
    18    8  135 1    
    19    9   10 ar   
    20    9   14 ar   
    21   10   11 ar   
    22   10  136 1    
    23   11   12 ar   
    24   11  126 1    
    25   12   13 ar   
    26   12  137 1    
    27   13   14 ar   
    28   13   15 1    
    29   14  138 1    
    30   15   16 1    
    31   15  139 1    
    32   15  140 1    
    33   16   17 1    
    34   17   18 1    
    35   17  141 1    
    36   17  142 1    
    37   18   19 1    
    38   18   67 1    
    39   18  143 1    
    40   19   20 am   BACKBONE|DICT|INTERRES
    41   19  144 1    
    42   20   21 2    
    43   20   22 1    
    44   22   23 1    
    45   22   24 1    
    46   22  145 1    
    47   23  146 1    
    48   23  147 1    
    49   23  148 1    
    50   24   25 am   BACKBONE|DICT|INTERRES
    51   24  149 1    
    52   25   26 2    
    53   25   27 1    
    54   27   28 1    
    55   27   29 1    
    56   27  150 1    
    57   28  151 1    
    58   28  152 1    
    59   28  153 1    
    60   29   30 am   BACKBONE|DICT|INTERRES
    61   29  154 1    
    62   30   31 2    
    63   30   32 1    
    64   32   33 1    
    65   32   34 1    
    66   32  155 1    
    67   33  156 1    
    68   33  157 1    
    69   33  158 1    
    70   34   35 am   BACKBONE|DICT|INTERRES
    71   34  159 1    
    72   35   36 2    
    73   35   37 1    
    74   37   38 1    
    75   37   39 1    
    76   37  160 1    
    77   38  161 1    
    78   38  162 1    
    79   38  163 1    
    80   39   40 am   BACKBONE|DICT|INTERRES
    81   39  164 1    
    82   40   41 2    
    83   40   42 1    
    84   42   43 1    
    85   42   44 1    
    86   42  165 1    
    87   43  166 1    
    88   43  167 1    
    89   43  168 1    
    90   44   45 am   BACKBONE|DICT|INTERRES
    91   44  169 1    
    92   45   46 2    
    93   45   47 1    
    94   47   48 1    
    95   47   49 1    
    96   47  170 1    
    97   48  171 1    
    98   48  172 1    
    99   48  173 1    
   100   49   50 am   BACKBONE|DICT|INTERRES
   101   49  174 1    
   102   50   51 2    
   103   50   52 1    
   104   52   53 1    
   105   52   54 1    
   106   52  175 1    
   107   53  176 1    
   108   53  177 1    
   109   53  178 1    
   110   54   55 am   BACKBONE|DICT|INTERRES
   111   54  179 1    
   112   55   56 2    
   113   55   57 1    
   114   57   58 1    
   115   57   59 1    
   116   57  180 1    
   117   58  181 1    
   118   58  182 1    
   119   58  183 1    
   120   59   60 am   BACKBONE|DICT|INTERRES
   121   59  184 1    
   122   60   61 2    
   123   60   62 1    
   124   62   63 1    
   125   62   64 1    
   126   62  185 1    
   127   63  186 1    
   128   63  187 1    
   129   63  188 1    
   130   64   65 am   BACKBONE|DICT|INTERRES
   131   64  189 1    
   132   65   66 2    
   133   67   68 2    
   134   67   69 am   BACKBONE|DICT|INTERRES
   135   69   70 1    
   136   69  190 1    
   137   70   71 1    
   138   70   72 1    
   139   70  191 1    
   140   71  192 1    
   141   71  193 1    
   142   71  194 1    
   143   72   73 2    
   144   72   74 am   BACKBONE|DICT|INTERRES
   145   74   75 1    
   146   74  195 1    
   147   75   76 1    
   148   75   77 1    
   149   75  196 1    
   150   76  197 1    
   151   76  198 1    
   152   76  199 1    
   153   77   78 2    
   154   77   79 am   BACKBONE|DICT|INTERRES
   155   79   80 1    
   156   79  200 1    
   157   80   81 1    
   158   80   82 1    
   159   80  201 1    
   160   81  202 1    
   161   81  203 1    
   162   81  204 1    
   163   82   83 2    
   164   82   84 am   BACKBONE|DICT|INTERRES
   165   84   85 1    
   166   84  205 1    
   167   85   86 1    
   168   85   87 1    
   169   85  206 1    
   170   86  207 1    
   171   86  208 1    
   172   86  209 1    
   173   87   88 2    
   174   87   89 am   BACKBONE|DICT|INTERRES
   175   89   90 1    
   176   89  210 1    
   177   90   91 1    
   178   90   92 1    
   179   90  211 1    
   180   91  212 1    
   181   91  213 1    
   182   91  214 1    
   183   92   93 2    
   184   92   94 am   BACKBONE|DICT|INTERRES
   185   94   95 1    
   186   94  215 1    
   187   95   96 1    
   188   95   97 1    
   189   95  216 1    
   190   96  217 1    
   191   96  218 1    
   192   96  219 1    
   193   97   98 2    
   194   97   99 am   BACKBONE|DICT|INTERRES
   195   99  100 1    
   196   99  220 1    
   197  100  101 1    
   198  100  102 1    
   199  100  221 1    
   200  101  222 1    
   201  101  223 1    
   202  101  224 1    
   203  102  103 2    
   204  102  104 am   BACKBONE|DICT|INTERRES
   205  104  105 1    
   206  104  225 1    
   207  105  106 1    
   208  105  107 1    
   209  105  226 1    
   210  106  227 1    
   211  106  228 1    
   212  106  229 1    
   213  107  108 2    
   214  107  109 am   BACKBONE|DICT|INTERRES
   215  109  110 1    
   216  109  230 1    
   217  110  111 1    
   218  110  112 1    
   219  110  231 1    
   220  111  232 1    
   221  111  233 1    
   222  111  234 1    
   223  112  113 2    
   224  112  114 am   BACKBONE|DICT|INTERRES
   225  114  115 1    
   226  114  235 1    
   227  115  116 1    
   228  115  117 1    
   229  115  236 1    
   230  116  237 1    
   231  116  238 1    
   232  116  239 1    
   233  117  118 2    
   234  117  119 am   BACKBONE|DICT|INTERRES
   235  119  120 1    
   236  119  240 1    
   237  120  121 1    
   238  120  124 1    
   239  120  241 1    
   240  121  122 am   BACKBONE|DICT|INTERRES
   241  121  123 2    
   242  122  242 1    
   243  122  243 1    
   244  124  125 1    
   245  124  244 1    
   246  124  245 1    
   247  125  126 1    
   248  126  246 1    
   249  126  247 1    
@<TRIPOS>SUBSTRUCTURE
     1 UNK         1 GROUP             0       ****    0 ROOT    
