@<TRIPOS>MOLECULE
3R540
247   249    1
SMALL
USER_CHARGES


@<TRIPOS>ATOM
      1 CA         -0.1326  -16.1681  -48.4297 C.3       0 UNK        -0.1800 
      2 C          -1.3126  -15.3794  -47.8839 C.2       0 UNK         0.5000 
      3 O          -1.5906  -14.2821  -48.3666 O.2       0 UNK        -0.5000 
      4 N          -2.0033  -15.9445  -46.8851 N.am      1 UNK        -0.5000 
      5 CA         -3.1921  -15.3885  -46.2178 C.3       1 UNK         0.1400 
      6 C6         -4.4081  -15.1313  -47.1547 C.3       23 UNK        -0.0398 
      7 S7         -4.7551  -16.5443  -48.2577 S.3       23 UNK        -0.2404 
      8 C8         -6.2909  -17.2716  -47.5924 C.3       23 UNK        -0.0205 
      9 C9         -6.4527  -18.7412  -47.9843 C.ar      23 UNK        -0.0193 
     10 C10        -6.1044  -19.1896  -49.2649 C.ar      23 UNK        -0.1150 
     11 C11        -6.1833  -20.5430  -49.5962 C.ar      23 UNK        -0.0193 
     12 C12        -6.6753  -21.4489  -48.6555 C.ar      23 UNK        -0.1150 
     13 C13        -7.0534  -21.0210  -47.3801 C.ar      23 UNK        -0.0193 
     14 C14        -6.9382  -19.6653  -47.0517 C.ar      23 UNK        -0.1150 
     15 C15        -7.6020  -22.0208  -46.3688 C.3       23 UNK        -0.0205 
     16 S16        -6.3023  -22.7805  -45.3356 S.3       23 UNK        -0.2404 
     17 C17        -5.4682  -23.9103  -46.5104 C.3       23 UNK        -0.0398 
     18 CA         -3.9745  -23.5785  -46.7762 C.3       11 UNK         0.1400 
     19 N          -3.7202  -22.1364  -46.8831 N.am      11 UNK        -0.5000 
     20 C          -2.5426  -21.5544  -47.1418 C.2       10 UNK         0.5000 
     21 O          -1.5298  -22.1834  -47.4445 O.2       10 UNK        -0.5000 
     22 CA         -2.4595  -20.0263  -47.0061 C.3       10 UNK         0.1400 
     23 CB         -2.5003  -19.3753  -48.3930 C.3       10 UNK        -0.1800 
     24 N          -3.4826  -19.4323  -46.1367 N.am      10 UNK        -0.5000 
     25 C          -3.6006  -19.7041  -44.8288 C.2       9 UNK         0.5000 
     26 O          -2.9446  -20.5721  -44.2477 O.2       9 UNK        -0.5000 
     27 CA         -4.5658  -18.8409  -44.0106 C.3       9 UNK         0.1400 
     28 CB         -5.6677  -19.6767  -43.3419 C.3       9 UNK        -0.1800 
     29 N          -3.7376  -18.2290  -42.9862 N.am      9 UNK        -0.5000 
     30 C          -3.7151  -16.9334  -42.6678 C.2       8 UNK         0.5000 
     31 O          -4.5574  -16.1183  -43.0427 O.2       8 UNK        -0.5000 
     32 CA         -2.5124  -16.4574  -41.8292 C.3       8 UNK         0.1400 
     33 CB         -2.8829  -16.3827  -40.3411 C.3       8 UNK        -0.1800 
     34 N          -1.3060  -17.2826  -41.9821 N.am      8 UNK        -0.5000 
     35 C          -0.6287  -17.4683  -43.1253 C.2       7 UNK         0.5000 
     36 O          -0.9830  -16.9973  -44.2074 O.2       7 UNK        -0.5000 
     37 CA          0.6485  -18.3220  -43.0103 C.3       7 UNK         0.1400 
     38 CB          0.3191  -19.8265  -43.0688 C.3       7 UNK        -0.1800 
     39 N           1.6903  -17.9542  -43.9770 N.am      7 UNK        -0.5000 
     40 C           1.7019  -18.1510  -45.3027 C.2       6 UNK         0.5000 
     41 O           0.8020  -18.6979  -45.9406 O.2       6 UNK        -0.5000 
     42 CA          2.9413  -17.6136  -46.0310 C.3       6 UNK         0.1400 
     43 CB          3.0337  -18.1150  -47.4908 C.3       6 UNK        -0.1800 
     44 N           2.9300  -16.1522  -45.9619 N.am      6 UNK        -0.5000 
     45 C           3.9369  -15.3520  -46.3344 C.2       5 UNK         0.5000 
     46 O           5.0316  -15.7594  -46.7249 O.2       5 UNK        -0.5000 
     47 CA          3.6856  -13.8393  -46.2470 C.3       5 UNK         0.1400 
     48 CB          2.4063  -13.4168  -46.9925 C.3       5 UNK        -0.1800 
     49 N           3.6111  -13.4143  -44.8521 N.am      5 UNK        -0.5000 
     50 C           4.6618  -12.9996  -44.1293 C.2       4 UNK         0.5000 
     51 O           5.8092  -12.9343  -44.5727 O.2       4 UNK        -0.5000 
     52 CA          4.4028  -12.5529  -42.6754 C.3       4 UNK         0.1400 
     53 CB          4.4315  -11.0195  -42.5748 C.3       4 UNK        -0.1800 
     54 N           3.1300  -13.0304  -42.1369 N.am      4 UNK        -0.5000 
     55 C           2.9066  -14.2746  -41.6961 C.2       3 UNK         0.5000 
     56 O           3.7658  -15.1553  -41.6552 O.2       3 UNK        -0.5000 
     57 CA          1.4646  -14.5983  -41.2604 C.3       3 UNK         0.1400 
     58 CB          1.2812  -14.3484  -39.7565 C.3       3 UNK        -0.1800 
     59 N           0.4300  -13.8657  -42.0006 N.am      3 UNK        -0.5000 
     60 C           0.2433  -13.9451  -43.3237 C.2       2 UNK         0.5000 
     61 O           0.9944  -14.5617  -44.0858 O.2       2 UNK        -0.5000 
     62 CA         -0.9903  -13.2419  -43.8969 C.3       2 UNK         0.1400 
     63 CB         -0.5985  -11.9581  -44.6486 C.3       2 UNK        -0.1800 
     64 N          -1.6087  -14.2046  -44.7920 N.am      2 UNK        -0.5000 
     65 C          -2.8261  -14.1677  -45.3408 C.2       1 UNK         0.5000 
     66 O          -3.6259  -13.2451  -45.1759 O.2       1 UNK        -0.5000 
     67 C          -3.0492  -24.2943  -45.7651 C.2       11 UNK         0.5000 
     68 O          -2.6838  -25.4457  -46.0048 O.2       11 UNK        -0.5000 
     69 N          -2.6255  -23.5947  -44.7013 N.am      12 UNK        -0.5000 
     70 CA         -1.6472  -24.0864  -43.7263 C.3       12 UNK         0.1400 
     71 CB         -1.6923  -23.1913  -42.4798 C.3       12 UNK        -0.1800 
     72 C          -0.2094  -24.1748  -44.2852 C.2       12 UNK         0.5000 
     73 O           0.6200  -24.8731  -43.7020 O.2       12 UNK        -0.5000 
     74 N           0.0544  -23.4890  -45.4047 N.am      13 UNK        -0.5000 
     75 CA          1.3172  -23.4796  -46.1412 C.3       13 UNK         0.1400 
     76 CB          1.7951  -22.0208  -46.2668 C.3       13 UNK        -0.1800 
     77 C           1.1583  -24.1549  -47.5206 C.2       13 UNK         0.5000 
     78 O           1.8996  -23.8247  -48.4473 O.2       13 UNK        -0.5000 
     79 N           0.1808  -25.0680  -47.6497 N.am      14 UNK        -0.5000 
     80 CA         -0.1735  -25.8194  -48.8624 C.3       14 UNK         0.1400 
     81 CB          0.9554  -26.7979  -49.2491 C.3       14 UNK        -0.1800 
     82 C          -0.5939  -24.8965  -50.0257 C.2       14 UNK         0.5000 
     83 O          -0.0919  -25.0259  -51.1439 O.2       14 UNK        -0.5000 
     84 N          -1.4769  -23.9389  -49.7102 N.am      15 UNK        -0.5000 
     85 CA         -1.9381  -22.8404  -50.5658 C.3       15 UNK         0.1400 
     86 CB         -2.7642  -23.3651  -51.7587 C.3       15 UNK        -0.1800 
     87 C          -0.7817  -21.9043  -50.9674 C.2       15 UNK         0.5000 
     88 O          -0.7181  -21.4629  -52.1136 O.2       15 UNK        -0.5000 
     89 N           0.1252  -21.6492  -50.0110 N.am      16 UNK        -0.5000 
     90 CA          1.3994  -20.9353  -50.1603 C.3       16 UNK         0.1400 
     91 CB          1.1577  -19.4308  -50.3980 C.3       16 UNK        -0.1800 
     92 C           2.2867  -21.5799  -51.2457 C.2       16 UNK         0.5000 
     93 O           2.7497  -20.8938  -52.1562 O.2       16 UNK        -0.5000 
     94 N           2.4429  -22.9094  -51.1618 N.am      17 UNK        -0.5000 
     95 CA          3.0544  -23.7882  -52.1668 C.3       17 UNK         0.1400 
     96 CB          4.5801  -23.5686  -52.2251 C.3       17 UNK        -0.1800 
     97 C           2.3663  -23.6629  -53.5465 C.2       17 UNK         0.5000 
     98 O           3.0358  -23.5138  -54.5701 O.2       17 UNK        -0.5000 
     99 N           1.0265  -23.6920  -53.5227 N.am      18 UNK        -0.5000 
    100 CA         0.0852  -23.5326  -54.6377 C.3       18 UNK         0.1400 
    101 CB         0.2684  -24.6599  -55.6747 C.3       18 UNK        -0.1800 
    102 C          0.0561  -22.1336  -55.2971 C.2       18 UNK         0.5000 
    103 O         -0.6239  -21.9716  -56.3121 O.2       18 UNK        -0.5000 
    104 N          0.7551  -21.1404  -54.7302 N.am      19 UNK        -0.5000 
    105 CA         0.8310  -19.7818  -55.2702 C.3       19 UNK         0.1400 
    106 CB         2.1261  -19.1133  -54.7859 C.3       19 UNK        -0.1800 
    107 C         -0.3815  -18.9000  -54.9145 C.2       19 UNK         0.5000 
    108 O         -0.6377  -17.9327  -55.6332 O.2       19 UNK        -0.5000 
    109 N         -1.0911  -19.2087  -53.8178 N.am      20 UNK        -0.5000 
    110 CA        -2.1915  -18.3839  -53.3057 C.3       20 UNK         0.1400 
    111 CB        -2.4777  -18.7403  -51.8385 C.3       20 UNK        -0.1800 
    112 C         -3.4843  -18.4907  -54.1323 C.2       20 UNK         0.5000 
    113 O         -4.2851  -17.5565  -54.1071 O.2       20 UNK        -0.5000 
    114 N         -3.6878  -19.6319  -54.8085 N.am      21 UNK        -0.5000 
    115 CA        -4.8225  -20.0081  -55.6725 C.3       21 UNK         0.1400 
    116 CB        -4.9204  -19.0637  -56.8859 C.3       21 UNK        -0.1800 
    117 C         -6.1959  -20.1500  -54.9721 C.2       21 UNK         0.5000 
    118 O         -7.0499  -20.8775  -55.4812 O.2       21 UNK        -0.5000 
    119 N         -6.3709  -19.4890  -53.8228 N.am      22 UNK        -0.5000 
    120 CA        -7.5667  -19.4446  -52.9649 C.3       22 UNK         0.1400 
    121 C         -8.7151  -18.5691  -53.5531 C.2       22 UNK         0.5000 
    122 N         -9.8168  -18.4075  -52.8312 N.am      22 UNK        -0.7600 
    123 O         -8.6223  -18.0078  -54.6430 O.2       22 UNK        -0.5000 
    124 C124       -8.0741  -20.8458  -52.5033 C.3       23 UNK        -0.0398 
    125 S125       -6.8285  -22.0373  -51.8855 S.3       23 UNK        -0.2404 
    126 C126       -5.6435  -21.0351  -50.9309 C.3       23 UNK        -0.0205 
    127 H127        0.8000  -15.6427  -48.2297 H         1 UNK         0.0600 
    128 H128       -0.2312  -16.2963  -49.5076 H         1 UNK         0.0600 
    129 H129       -0.0729  -17.1579  -47.9780 H         1 UNK         0.0600 
    130 H130       -1.6602  -16.8079  -46.4826 H         1 UNK         0.3000 
    131 H131       -3.5003  -16.1640  -45.5182 H         1 UNK         0.0600 
    132 H132       -4.2269  -14.2575  -47.7821 H         1 UNK         0.0800 
    133 H133       -5.2997  -14.9020  -46.5689 H         1 UNK         0.0800 
    134 H134       -6.2947  -17.1684  -46.5068 H         1 UNK         0.0800 
    135 H135       -7.1458  -16.7057  -47.9642 H         1 UNK         0.0800 
    136 H136       -5.7211  -18.4894  -49.9932 H         1 UNK         0.1150 
    137 H137       -6.7547  -22.4912  -48.9250 H         1 UNK         0.1150 
    138 H138       -7.2316  -19.3283  -46.0681 H         1 UNK         0.1150 
    139 H139       -8.3147  -21.5190  -45.7127 H         1 UNK         0.0800 
    140 H140       -8.1670  -22.8027  -46.8788 H         1 UNK         0.0800 
    141 H141       -6.0079  -23.9093  -47.4544 H         1 UNK         0.0800 
    142 H142       -5.5866  -24.9309  -46.1410 H         1 UNK         0.0800 
    143 H143       -3.7263  -24.0015  -47.7515 H         1 UNK         0.0600 
    144 H144       -4.4990  -21.5423  -46.6352 H         1 UNK         0.3000 
    145 H145       -1.4892  -19.8040  -46.5592 H         1 UNK         0.0600 
    146 H146       -2.3752  -18.2966  -48.3340 H         1 UNK         0.0600 
    147 H147       -1.6932  -19.7514  -49.0191 H         1 UNK         0.0600 
    148 H148       -3.4355  -19.5808  -48.9100 H         1 UNK         0.0600 
    149 H149       -4.0630  -18.7212  -46.5573 H         1 UNK         0.3000 
    150 H150       -5.0190  -18.0839  -44.6530 H         1 UNK         0.0600 
    151 H151       -6.3236  -20.1266  -44.0847 H         1 UNK         0.0600 
    152 H152       -6.2895  -19.0586  -42.6942 H         1 UNK         0.0600 
    153 H153       -5.2546  -20.4842  -42.7358 H         1 UNK         0.0600 
    154 H154       -2.9787  -18.8147  -42.6640 H         1 UNK         0.3000 
    155 H155       -2.2671  -15.4494  -42.1666 H         1 UNK         0.0600 
    156 H156       -3.7610  -15.7537  -40.1879 H         1 UNK         0.0600 
    157 H157       -2.0716  -15.9532  -39.7531 H         1 UNK         0.0600 
    158 H158       -3.1101  -17.3685  -39.9334 H         1 UNK         0.0600 
    159 H159       -0.9627  -17.7179  -41.1381 H         1 UNK         0.3000 
    160 H160        1.0854  -18.1205  -42.0313 H         1 UNK         0.0600 
    161 H161       -0.1959  -20.1003  -43.9904 H         1 UNK         0.0600 
    162 H162       -0.3307  -20.1099  -42.2408 H         1 UNK         0.0600 
    163 H163        1.2209  -20.4342  -42.9956 H         1 UNK         0.0600 
    164 H164        2.4694  -17.4457  -43.5834 H         1 UNK         0.3000 
    165 H165        3.8165  -17.9804  -45.4909 H         1 UNK         0.0600 
    166 H166        3.9954  -17.8726  -47.9413 H         1 UNK         0.0600 
    167 H167        2.2564  -17.6805  -48.1165 H         1 UNK         0.0600 
    168 H168        2.9273  -19.1994  -47.5400 H         1 UNK         0.0600 
    169 H169        2.0893  -15.7355  -45.5746 H         1 UNK         0.3000 
    170 H170        4.5211  -13.3364  -46.7391 H         1 UNK         0.0600 
    171 H171        2.4521  -13.7162  -48.0401 H         1 UNK         0.0600 
    172 H172        1.5069  -13.8593  -46.5655 H         1 UNK         0.0600 
    173 H173        2.2828  -12.3340  -46.9719 H         1 UNK         0.0600 
    174 H174        2.7132  -13.5303  -44.3975 H         1 UNK         0.3000 
    175 H175        5.2143  -12.9490  -42.0611 H         1 UNK         0.0600 
    176 H176        3.6383  -10.5623  -43.1677 H         1 UNK         0.0600 
    177 H177        4.3133  -10.6893  -41.5426 H         1 UNK         0.0600 
    178 H178        5.3812  -10.6210  -42.9346 H         1 UNK         0.0600 
    179 H179        2.3618  -12.3756  -42.1354 H         1 UNK         0.3000 
    180 H180        1.3070  -15.6619  -41.4454 H         1 UNK         0.0600 
    181 H181        1.3882  -13.2918  -39.5084 H         1 UNK         0.0600 
    182 H182        2.0221  -14.8990  -39.1751 H         1 UNK         0.0600 
    183 H183        0.2977  -14.6758  -39.4189 H         1 UNK         0.0600 
    184 H184       -0.2153  -13.3232  -41.4445 H         1 UNK         0.3000 
    185 H185       -1.6884  -13.0034  -43.0923 H         1 UNK         0.0600 
    186 H186        0.0626  -12.1694  -45.4892 H         1 UNK         0.0600 
    187 H187       -1.4762  -11.4428  -45.0385 H         1 UNK         0.0600 
    188 H188       -0.0807  -11.2613  -43.9885 H         1 UNK         0.0600 
    189 H189       -1.0497  -15.0412  -44.9387 H         1 UNK         0.3000 
    190 H190       -2.9319  -22.6337  -44.5847 H         1 UNK         0.3000 
    191 H191       -1.9416  -25.0947  -43.4277 H         1 UNK         0.0600 
    192 H192       -1.4087  -22.1668  -42.7160 H         1 UNK         0.0600 
    193 H193       -2.6915  -23.1697  -42.0444 H         1 UNK         0.0600 
    194 H194       -1.0087  -23.5530  -41.7108 H         1 UNK         0.0600 
    195 H195       -0.6953  -22.9661  -45.8448 H         1 UNK         0.3000 
    196 H196        2.0805  -24.0426  -45.6013 H         1 UNK         0.0600 
    197 H197        1.9130  -21.5603  -45.2860 H         1 UNK         0.0600 
    198 H198        1.0885  -21.4128  -46.8330 H         1 UNK         0.0600 
    199 H199        2.7612  -21.9600  -46.7690 H         1 UNK         0.0600 
    200 H200       -0.3953  -25.2540  -46.8394 H         1 UNK         0.3000 
    201 H201       -1.0530  -26.4140  -48.6110 H         1 UNK         0.0600 
    202 H202        0.6500  -27.4360  -50.0792 H         1 UNK         0.0600 
    203 H203        1.2125  -27.4515  -48.4157 H         1 UNK         0.0600 
    204 H204        1.8614  -26.2753  -49.5572 H         1 UNK         0.0600 
    205 H205       -1.7243  -23.8441  -48.7338 H         1 UNK         0.3000 
    206 H206       -2.6080  -22.2312  -49.9609 H         1 UNK         0.0600 
    207 H207       -3.6478  -23.9012  -51.4123 H         1 UNK         0.0600 
    208 H208       -2.1936  -24.0472  -52.3857 H         1 UNK         0.0600 
    209 H209       -3.1118  -22.5483  -52.3925 H         1 UNK         0.0600 
    210 H210       -0.0400  -22.0590  -49.1003 H         1 UNK         0.3000 
    211 H211        1.9341  -21.0416  -49.2159 H         1 UNK         0.0600 
    212 H212        0.5365  -19.0020  -49.6128 H         1 UNK         0.0600 
    213 H213        2.1001  -18.8825  -50.4011 H         1 UNK         0.0600 
    214 H214        0.6731  -19.2439  -51.3561 H         1 UNK         0.0600 
    215 H215        2.0561  -23.3751  -50.3449 H         1 UNK         0.3000 
    216 H216        2.8790  -24.8102  -51.8276 H         1 UNK         0.0600 
    217 H217        5.0531  -24.2937  -52.8883 H         1 UNK         0.0600 
    218 H218        4.8339  -22.5743  -52.5938 H         1 UNK         0.0600 
    219 H219        5.0320  -23.6866  -51.2403 H         1 UNK         0.0600 
    220 H220        0.5893  -23.8583  -52.6209 H         1 UNK         0.3000 
    221 H221       -0.9045  -23.6593  -54.2021 H         1 UNK         0.0600 
    222 H222        1.2093  -24.5639  -56.2170 H         1 UNK         0.0600 
    223 H223        0.2528  -25.6401  -55.1982 H         1 UNK         0.0600 
    224 H224       -0.5340  -24.6486  -56.4131 H         1 UNK         0.0600 
    225 H225        1.2607  -21.3216  -53.8718 H         1 UNK         0.3000 
    226 H226        0.8824  -19.8455  -56.3593 H         1 UNK         0.0600 
    227 H227        2.9966  -19.7383  -54.9865 H         1 UNK         0.0600 
    228 H228        2.2842  -18.1606  -55.2926 H         1 UNK         0.0600 
    229 H229        2.0964  -18.9089  -53.7153 H         1 UNK         0.0600 
    230 H230       -0.8375  -20.0312  -53.2728 H         1 UNK         0.3000 
    231 H231       -1.8741  -17.3392  -53.3349 H         1 UNK         0.0600 
    232 H232       -3.2660  -18.1083  -51.4268 H         1 UNK         0.0600 
    233 H233       -1.5954  -18.5926  -51.2179 H         1 UNK         0.0600 
    234 H234       -2.8010  -19.7752  -51.7304 H         1 UNK         0.0600 
    235 H235       -2.9642  -20.3327  -54.7303 H         1 UNK         0.3000 
    236 H236       -4.5766  -21.0008  -56.0528 H         1 UNK         0.0600 
    237 H237       -3.9737  -19.0131  -57.4239 H         1 UNK         0.0600 
    238 H238       -5.6766  -19.4125  -57.5902 H         1 UNK         0.0600 
    239 H239       -5.1950  -18.0505  -56.5915 H         1 UNK         0.0600 
    240 H240       -5.6441  -18.8230  -53.5870 H         1 UNK         0.3000 
    241 H241       -7.2424  -18.9042  -52.0759 H         1 UNK         0.0600 
    242 H242      -10.5595  -17.8348  -53.2021 H         1 UNK         0.3800 
    243 H243       -9.9266  -18.8234  -51.9197 H         1 UNK         0.3800 
    244 H244       -8.8100  -20.7283  -51.7071 H         1 UNK         0.0800 
    245 H245       -8.6042  -21.3355  -53.3215 H         1 UNK         0.0800 
    246 H246       -5.2608  -20.2134  -51.5337 H         1 UNK         0.0800 
    247 H247       -4.7814  -21.6630  -50.7161 H         1 UNK         0.0800 
@<TRIPOS>BOND
     1    1    2 1    
     2    1  127 1    
     3    1  128 1    
     4    1  129 1    
     5    2    3 2    
     6    2    4 am   BACKBONE|DICT|INTERRES
     7    4    5 1    
     8    4  130 1    
     9    5    6 1    
    10    5   65 1    
    11    5  131 1    
    12    6    7 1    
    13    6  132 1    
    14    6  133 1    
    15    7    8 1    
    16    8    9 1    
    17    8  134 1    
    18    8  135 1    
    19    9   10 ar   
    20    9   14 ar   
    21   10   11 ar   
    22   10  136 1    
    23   11   12 ar   
    24   11  126 1    
    25   12   13 ar   
    26   12  137 1    
    27   13   14 ar   
    28   13   15 1    
    29   14  138 1    
    30   15   16 1    
    31   15  139 1    
    32   15  140 1    
    33   16   17 1    
    34   17   18 1    
    35   17  141 1    
    36   17  142 1    
    37   18   19 1    
    38   18   67 1    
    39   18  143 1    
    40   19   20 am   BACKBONE|DICT|INTERRES
    41   19  144 1    
    42   20   21 2    
    43   20   22 1    
    44   22   23 1    
    45   22   24 1    
    46   22  145 1    
    47   23  146 1    
    48   23  147 1    
    49   23  148 1    
    50   24   25 am   BACKBONE|DICT|INTERRES
    51   24  149 1    
    52   25   26 2    
    53   25   27 1    
    54   27   28 1    
    55   27   29 1    
    56   27  150 1    
    57   28  151 1    
    58   28  152 1    
    59   28  153 1    
    60   29   30 am   BACKBONE|DICT|INTERRES
    61   29  154 1    
    62   30   31 2    
    63   30   32 1    
    64   32   33 1    
    65   32   34 1    
    66   32  155 1    
    67   33  156 1    
    68   33  157 1    
    69   33  158 1    
    70   34   35 am   BACKBONE|DICT|INTERRES
    71   34  159 1    
    72   35   36 2    
    73   35   37 1    
    74   37   38 1    
    75   37   39 1    
    76   37  160 1    
    77   38  161 1    
    78   38  162 1    
    79   38  163 1    
    80   39   40 am   BACKBONE|DICT|INTERRES
    81   39  164 1    
    82   40   41 2    
    83   40   42 1    
    84   42   43 1    
    85   42   44 1    
    86   42  165 1    
    87   43  166 1    
    88   43  167 1    
    89   43  168 1    
    90   44   45 am   BACKBONE|DICT|INTERRES
    91   44  169 1    
    92   45   46 2    
    93   45   47 1    
    94   47   48 1    
    95   47   49 1    
    96   47  170 1    
    97   48  171 1    
    98   48  172 1    
    99   48  173 1    
   100   49   50 am   BACKBONE|DICT|INTERRES
   101   49  174 1    
   102   50   51 2    
   103   50   52 1    
   104   52   53 1    
   105   52   54 1    
   106   52  175 1    
   107   53  176 1    
   108   53  177 1    
   109   53  178 1    
   110   54   55 am   BACKBONE|DICT|INTERRES
   111   54  179 1    
   112   55   56 2    
   113   55   57 1    
   114   57   58 1    
   115   57   59 1    
   116   57  180 1    
   117   58  181 1    
   118   58  182 1    
   119   58  183 1    
   120   59   60 am   BACKBONE|DICT|INTERRES
   121   59  184 1    
   122   60   61 2    
   123   60   62 1    
   124   62   63 1    
   125   62   64 1    
   126   62  185 1    
   127   63  186 1    
   128   63  187 1    
   129   63  188 1    
   130   64   65 am   BACKBONE|DICT|INTERRES
   131   64  189 1    
   132   65   66 2    
   133   67   68 2    
   134   67   69 am   BACKBONE|DICT|INTERRES
   135   69   70 1    
   136   69  190 1    
   137   70   71 1    
   138   70   72 1    
   139   70  191 1    
   140   71  192 1    
   141   71  193 1    
   142   71  194 1    
   143   72   73 2    
   144   72   74 am   BACKBONE|DICT|INTERRES
   145   74   75 1    
   146   74  195 1    
   147   75   76 1    
   148   75   77 1    
   149   75  196 1    
   150   76  197 1    
   151   76  198 1    
   152   76  199 1    
   153   77   78 2    
   154   77   79 am   BACKBONE|DICT|INTERRES
   155   79   80 1    
   156   79  200 1    
   157   80   81 1    
   158   80   82 1    
   159   80  201 1    
   160   81  202 1    
   161   81  203 1    
   162   81  204 1    
   163   82   83 2    
   164   82   84 am   BACKBONE|DICT|INTERRES
   165   84   85 1    
   166   84  205 1    
   167   85   86 1    
   168   85   87 1    
   169   85  206 1    
   170   86  207 1    
   171   86  208 1    
   172   86  209 1    
   173   87   88 2    
   174   87   89 am   BACKBONE|DICT|INTERRES
   175   89   90 1    
   176   89  210 1    
   177   90   91 1    
   178   90   92 1    
   179   90  211 1    
   180   91  212 1    
   181   91  213 1    
   182   91  214 1    
   183   92   93 2    
   184   92   94 am   BACKBONE|DICT|INTERRES
   185   94   95 1    
   186   94  215 1    
   187   95   96 1    
   188   95   97 1    
   189   95  216 1    
   190   96  217 1    
   191   96  218 1    
   192   96  219 1    
   193   97   98 2    
   194   97   99 am   BACKBONE|DICT|INTERRES
   195   99  100 1    
   196   99  220 1    
   197  100  101 1    
   198  100  102 1    
   199  100  221 1    
   200  101  222 1    
   201  101  223 1    
   202  101  224 1    
   203  102  103 2    
   204  102  104 am   BACKBONE|DICT|INTERRES
   205  104  105 1    
   206  104  225 1    
   207  105  106 1    
   208  105  107 1    
   209  105  226 1    
   210  106  227 1    
   211  106  228 1    
   212  106  229 1    
   213  107  108 2    
   214  107  109 am   BACKBONE|DICT|INTERRES
   215  109  110 1    
   216  109  230 1    
   217  110  111 1    
   218  110  112 1    
   219  110  231 1    
   220  111  232 1    
   221  111  233 1    
   222  111  234 1    
   223  112  113 2    
   224  112  114 am   BACKBONE|DICT|INTERRES
   225  114  115 1    
   226  114  235 1    
   227  115  116 1    
   228  115  117 1    
   229  115  236 1    
   230  116  237 1    
   231  116  238 1    
   232  116  239 1    
   233  117  118 2    
   234  117  119 am   BACKBONE|DICT|INTERRES
   235  119  120 1    
   236  119  240 1    
   237  120  121 1    
   238  120  124 1    
   239  120  241 1    
   240  121  122 am   BACKBONE|DICT|INTERRES
   241  121  123 2    
   242  122  242 1    
   243  122  243 1    
   244  124  125 1    
   245  124  244 1    
   246  124  245 1    
   247  125  126 1    
   248  126  246 1    
   249  126  247 1    
@<TRIPOS>SUBSTRUCTURE
     1 UNK         1 GROUP             0       ****    0 ROOT    
