@<TRIPOS>MOLECULE
3R540
247   249    1
SMALL
USER_CHARGES


@<TRIPOS>ATOM
      1 CA          2.5121  -12.1231  -51.2544 C.3       0 UNK        -0.1800 
      2 C           2.0017  -13.2105  -50.3202 C.2       0 UNK         0.5000 
      3 O           1.4712  -12.9049  -49.2523 O.2       0 UNK        -0.5000 
      4 N           2.1441  -14.4791  -50.7214 N.am      1 UNK        -0.5000 
      5 CA          1.7295  -15.6810  -49.9859 C.3       1 UNK         0.1400 
      6 C6          2.5779  -16.9200  -50.3797 C.3       23 UNK        -0.0398 
      7 S7          2.6786  -17.2165  -52.1810 S.3       23 UNK        -0.2404 
      8 C8          4.2244  -18.1706  -52.2936 C.3       23 UNK        -0.0205 
      9 C9          4.0491  -19.5726  -51.7335 C.ar      23 UNK        -0.0193 
     10 C10         3.4331  -20.5574  -52.5097 C.ar      23 UNK        -0.1150 
     11 C11         3.2291  -21.8395  -51.9945 C.ar      23 UNK        -0.0193 
     12 C12         3.6634  -22.1402  -50.7021 C.ar      23 UNK        -0.1150 
     13 C13         4.2818  -21.1648  -49.9162 C.ar      23 UNK        -0.0193 
     14 C14         4.4803  -19.8833  -50.4397 C.ar      23 UNK        -0.1150 
     15 C15         4.7151  -21.4981  -48.4963 C.3       23 UNK        -0.0205 
     16 S16         3.7083  -20.6451  -47.2409 S.3       23 UNK        -0.2404 
     17 C17         2.0235  -21.2601  -47.5830 C.3       23 UNK        -0.0398 
     18 CA          1.6046  -22.4778  -46.7233 C.3       11 UNK         0.1400 
     19 N           1.7962  -22.2550  -45.2880 N.am      11 UNK        -0.5000 
     20 C           1.7502  -23.1991  -44.3396 C.2       10 UNK         0.5000 
     21 O           1.6151  -24.3987  -44.5854 O.2       10 UNK        -0.5000 
     22 CA          1.8102  -22.7109  -42.8757 C.3       10 UNK         0.1400 
     23 CB          2.4490  -23.7412  -41.9217 C.3       10 UNK        -0.1800 
     24 N           2.4177  -21.3831  -42.7219 N.am      10 UNK        -0.5000 
     25 C           3.6964  -21.0291  -42.9213 C.2       9 UNK         0.5000 
     26 O           4.5864  -21.8172  -43.2413 O.2       9 UNK        -0.5000 
     27 CA          4.0440  -19.5352  -42.7479 C.3       9 UNK         0.1400 
     28 CB          4.3379  -18.8854  -44.1081 C.3       9 UNK        -0.1800 
     29 N           2.9941  -18.7594  -42.0844 N.am      9 UNK        -0.5000 
     30 C           2.7313  -18.7845  -40.7710 C.2       8 UNK         0.5000 
     31 O           3.3622  -19.4597  -39.9573 O.2       8 UNK        -0.5000 
     32 CA          1.5446  -17.9285  -40.2970 C.3       8 UNK         0.1400 
     33 CB          1.9569  -16.4563  -40.1412 C.3       8 UNK        -0.1800 
     34 N           0.4102  -18.0212  -41.2165 N.am      8 UNK        -0.5000 
     35 C          -0.4423  -19.0543  -41.2680 C.2       7 UNK         0.5000 
     36 O          -0.3760  -20.0338  -40.5254 O.2       7 UNK        -0.5000 
     37 CA         -1.5414  -18.9935  -42.3448 C.3       7 UNK         0.1400 
     38 CB         -2.7793  -18.2581  -41.8123 C.3       7 UNK        -0.1800 
     39 N          -1.0763  -18.3550  -43.5782 N.am      7 UNK        -0.5000 
     40 C          -0.2252  -18.9434  -44.4299 C.2       6 UNK         0.5000 
     41 O           0.1750  -20.0988  -44.2964 O.2       6 UNK        -0.5000 
     42 CA          0.2772  -18.1312  -45.6325 C.3       6 UNK         0.1400 
     43 CB         -0.6041  -18.4051  -46.8542 C.3       6 UNK        -0.1800 
     44 N           0.3481  -16.6892  -45.4082 N.am      6 UNK        -0.5000 
     45 C           1.1474  -16.0797  -44.5233 C.2       5 UNK         0.5000 
     46 O           1.8395  -16.6822  -43.7030 O.2       5 UNK        -0.5000 
     47 CA          1.1668  -14.5443  -44.5572 C.3       5 UNK         0.1400 
     48 CB          2.0273  -14.0485  -45.7300 C.3       5 UNK        -0.1800 
     49 N          -0.1873  -14.0144  -44.7000 N.am      5 UNK        -0.5000 
     50 C          -0.9043  -13.4698  -43.7093 C.2       4 UNK         0.5000 
     51 O          -0.4684  -13.2736  -42.5742 O.2       4 UNK        -0.5000 
     52 CA         -2.3657  -13.0902  -44.0298 C.3       4 UNK         0.1400 
     53 CB         -2.4515  -11.6235  -44.4785 C.3       4 UNK        -0.1800 
     54 N          -3.0018  -13.9350  -45.0451 N.am      4 UNK        -0.5000 
     55 C          -3.1729  -15.2604  -44.9476 C.2       3 UNK         0.5000 
     56 O          -2.7984  -15.9321  -43.9872 O.2       3 UNK        -0.5000 
     57 CA         -3.8320  -15.9704  -46.1446 C.3       3 UNK         0.1400 
     58 CB         -5.3615  -15.8753  -46.0298 C.3       3 UNK        -0.1800 
     59 N          -3.4149  -15.5298  -47.4862 N.am      3 UNK        -0.5000 
     60 C          -2.1759  -15.2367  -47.9079 C.2       2 UNK         0.5000 
     61 O          -1.1953  -15.1629  -47.1620 O.2       2 UNK        -0.5000 
     62 CA         -2.0041  -14.9730  -49.4163 C.3       2 UNK         0.1400 
     63 CB         -2.6703  -13.6486  -49.8194 C.3       2 UNK        -0.1800 
     64 N          -0.5801  -14.8913  -49.7347 N.am      2 UNK        -0.5000 
     65 C           0.2023  -15.9285  -50.0490 C.2       1 UNK         0.5000 
     66 O          -0.2359  -17.0360  -50.3600 O.2       1 UNK        -0.5000 
     67 C           0.1389  -22.8445  -47.0328 C.2       11 UNK         0.5000 
     68 O          -0.1077  -23.6624  -47.9179 O.2       11 UNK        -0.5000 
     69 N          -0.8006  -22.2652  -46.2657 N.am      12 UNK        -0.5000 
     70 CA         -2.2539  -22.3764  -46.4419 C.3       12 UNK         0.1400 
     71 CB         -2.9428  -21.4069  -45.4671 C.3       12 UNK        -0.1800 
     72 C          -2.8321  -23.8012  -46.2985 C.2       12 UNK         0.5000 
     73 O          -4.0014  -24.0160  -46.6174 O.2       12 UNK        -0.5000 
     74 N          -2.0160  -24.7554  -45.8345 N.am      13 UNK        -0.5000 
     75 CA         -2.3248  -26.1828  -45.8429 C.3       13 UNK         0.1400 
     76 CB         -1.3436  -26.9026  -44.9050 C.3       13 UNK        -0.1800 
     77 C          -2.2716  -26.8008  -47.2570 C.2       13 UNK         0.5000 
     78 O          -2.9225  -27.8212  -47.4856 O.2       13 UNK        -0.5000 
     79 N          -1.4935  -26.2011  -48.1715 N.am      14 UNK        -0.5000 
     80 CA         -1.2766  -26.7107  -49.5260 C.3       14 UNK         0.1400 
     81 CB          0.0770  -26.2055  -50.0490 C.3       14 UNK        -0.1800 
     82 C          -2.4025  -26.3323  -50.5038 C.2       14 UNK         0.5000 
     83 O          -2.7149  -27.1274  -51.3916 O.2       14 UNK        -0.5000 
     84 N          -2.9883  -25.1403  -50.3393 N.am      15 UNK        -0.5000 
     85 CA         -4.0271  -24.5881  -51.2056 C.3       15 UNK         0.1400 
     86 CB         -3.4098  -24.1145  -52.5365 C.3       15 UNK        -0.1800 
     87 C          -4.7434  -23.4360  -50.4872 C.2       15 UNK         0.5000 
     88 O          -4.1941  -22.8706  -49.5385 O.2       15 UNK        -0.5000 
     89 N          -5.9479  -23.0992  -50.9675 N.am      16 UNK        -0.5000 
     90 CA         -6.8349  -22.0607  -50.4384 C.3       16 UNK         0.1400 
     91 CB         -8.2012  -22.1732  -51.1375 C.3       16 UNK        -0.1800 
     92 C          -6.2459  -20.6412  -50.5688 C.2       16 UNK         0.5000 
     93 O          -6.5208  -19.9370  -51.5425 O.2       16 UNK        -0.5000 
     94 N          -5.4596  -20.2394  -49.5638 N.am      17 UNK        -0.5000 
     95 CA         -4.7402  -18.9642  -49.4964 C.3       17 UNK         0.1400 
     96 CB         -3.7585  -19.0218  -48.3225 C.3       17 UNK        -0.1800 
     97 C          -5.6391  -17.7136  -49.3899 C.2       17 UNK         0.5000 
     98 O          -5.1451  -16.5931  -49.5244 O.2       17 UNK        -0.5000 
     99 N          -6.9344  -17.9130  -49.1199 N.am      18 UNK        -0.5000 
    100 CA        -7.9513  -16.8640  -49.1393 C.3       18 UNK         0.1400 
    101 CB        -9.0932  -17.2684  -48.1943 C.3       18 UNK        -0.1800 
    102 C         -8.4946  -16.5985  -50.5580 C.2       18 UNK         0.5000 
    103 O         -9.0306  -15.5158  -50.7975 O.2       18 UNK        -0.5000 
    104 N         -8.3741  -17.5817  -51.4625 N.am      19 UNK        -0.5000 
    105 CA        -8.9060  -17.5227  -52.8250 C.3       19 UNK         0.1400 
    106 CB        -9.4695  -18.9035  -53.1975 C.3       19 UNK        -0.1800 
    107 C         -7.8460  -17.0876  -53.8511 C.2       19 UNK         0.5000 
    108 O         -8.1993  -16.4732  -54.8587 O.2       19 UNK        -0.5000 
    109 N         -6.5760  -17.4120  -53.5898 N.am      20 UNK        -0.5000 
    110 CA        -5.4259  -17.1333  -54.4458 C.3       20 UNK         0.1400 
    111 CB        -5.3804  -18.1568  -55.5997 C.3       20 UNK        -0.1800 
    112 C         -4.1486  -17.1753  -53.5912 C.2       20 UNK         0.5000 
    113 O         -4.2338  -17.3213  -52.3726 O.2       20 UNK        -0.5000 
    114 N         -2.9807  -17.0618  -54.2343 N.am      21 UNK        -0.5000 
    115 CA        -1.6780  -17.3025  -53.6082 C.3       21 UNK         0.1400 
    116 CB        -0.5792  -16.7986  -54.5570 C.3       21 UNK        -0.1800 
    117 C         -1.4720  -18.7967  -53.2758 C.2       21 UNK         0.5000 
    118 O         -2.1727  -19.6513  -53.8258 O.2       21 UNK        -0.5000 
    119 N         -0.5059  -19.0819  -52.3951 N.am      22 UNK        -0.5000 
    120 CA        -0.1764  -20.4039  -51.8367 C.3       22 UNK         0.1400 
    121 C         -1.1926  -20.8314  -50.7468 C.2       22 UNK         0.5000 
    122 N         -2.4611  -20.9990  -51.0908 N.am      22 UNK        -0.7600 
    123 O         -0.8311  -20.9951  -49.5873 O.2       22 UNK        -0.5000 
    124 C124        0.0502  -21.5000  -52.9218 C.3       23 UNK        -0.0398 
    125 S125        0.7754  -23.0548  -52.2953 S.3       23 UNK        -0.2404 
    126 C126        2.5107  -22.8954  -52.8153 C.3       23 UNK        -0.0205 
    127 H127        1.6936  -11.4648  -51.5456 H         1 UNK         0.0600 
    128 H128        2.9522  -12.5406  -52.1603 H         1 UNK         0.0600 
    129 H129        3.2713  -11.5238  -50.7521 H         1 UNK         0.0600 
    130 H130        2.5576  -14.6656  -51.6245 H         1 UNK         0.3000 
    131 H131        1.9373  -15.5013  -48.9289 H         1 UNK         0.0600 
    132 H132        3.5917  -16.7761  -50.0040 H         1 UNK         0.0800 
    133 H133        2.2141  -17.8245  -49.8878 H         1 UNK         0.0800 
    134 H134        5.0280  -17.6422  -51.7784 H         1 UNK         0.0800 
    135 H135        4.5243  -18.2332  -53.3406 H         1 UNK         0.0800 
    136 H136        3.0893  -20.3151  -53.5054 H         1 UNK         0.1150 
    137 H137        3.4937  -23.1297  -50.3007 H         1 UNK         0.1150 
    138 H138        4.9503  -19.1246  -49.8300 H         1 UNK         0.1150 
    139 H139        4.6690  -22.5733  -48.3167 H         1 UNK         0.0800 
    140 H140        5.7592  -21.2110  -48.3650 H         1 UNK         0.0800 
    141 H141        1.9189  -21.4942  -48.6427 H         1 UNK         0.0800 
    142 H142        1.3473  -20.4247  -47.4102 H         1 UNK         0.0800 
    143 H143        2.2265  -23.3265  -47.0156 H         1 UNK         0.0600 
    144 H144        1.8400  -21.2919  -44.9833 H         1 UNK         0.3000 
    145 H145        0.7706  -22.5891  -42.5680 H         1 UNK         0.0600 
    146 H146        2.4771  -23.3665  -40.8985 H         1 UNK         0.0600 
    147 H147        1.8768  -24.6695  -41.9103 H         1 UNK         0.0600 
    148 H148        3.4679  -23.9926  -42.2167 H         1 UNK         0.0600 
    149 H149        1.7672  -20.6412  -42.5028 H         1 UNK         0.3000 
    150 H150        4.9508  -19.4809  -42.1422 H         1 UNK         0.0600 
    151 H151        5.1311  -19.4163  -44.6360 H         1 UNK         0.0600 
    152 H152        4.6619  -17.8513  -43.9896 H         1 UNK         0.0600 
    153 H153        3.4565  -18.8862  -44.7494 H         1 UNK         0.0600 
    154 H154        2.4662  -18.1186  -42.6725 H         1 UNK         0.3000 
    155 H155        1.2339  -18.2968  -39.3167 H         1 UNK         0.0600 
    156 H156        2.7863  -16.3567  -39.4400 H         1 UNK         0.0600 
    157 H157        1.1325  -15.8554  -39.7569 H         1 UNK         0.0600 
    158 H158        2.2749  -16.0202  -41.0887 H         1 UNK         0.0600 
    159 H159        0.3166  -17.2813  -41.8977 H         1 UNK         0.3000 
    160 H160       -1.8364  -20.0192  -42.5769 H         1 UNK         0.0600 
    161 H161       -2.5540  -17.2213  -41.5594 H         1 UNK         0.0600 
    162 H162       -3.1632  -18.7401  -40.9124 H         1 UNK         0.0600 
    163 H163       -3.5831  -18.2568  -42.5487 H         1 UNK         0.0600 
    164 H164       -1.4156  -17.4170  -43.7665 H         1 UNK         0.3000 
    165 H165        1.2874  -18.4779  -45.8571 H         1 UNK         0.0600 
    166 H166       -0.1896  -17.9527  -47.7542 H         1 UNK         0.0600 
    167 H167       -0.7146  -19.4717  -47.0487 H         1 UNK         0.0600 
    168 H168       -1.6008  -18.0015  -46.6997 H         1 UNK         0.0600 
    169 H169       -0.2014  -16.1130  -46.0424 H         1 UNK         0.3000 
    170 H170        1.6245  -14.1950  -43.6293 H         1 UNK         0.0600 
    171 H171        3.0410  -14.4463  -45.6687 H         1 UNK         0.0600 
    172 H172        1.6119  -14.3490  -46.6928 H         1 UNK         0.0600 
    173 H173        2.1034  -12.9611  -45.7280 H         1 UNK         0.0600 
    174 H174       -0.6436  -14.1811  -45.5920 H         1 UNK         0.3000 
    175 H175       -2.9389  -13.1999  -43.1070 H         1 UNK         0.0600 
    176 H176       -2.0097  -10.9600  -43.7338 H         1 UNK         0.0600 
    177 H177       -1.9232  -11.4600  -45.4187 H         1 UNK         0.0600 
    178 H178       -3.4871  -11.3117  -44.6153 H         1 UNK         0.0600 
    179 H179       -3.3158  -13.4748  -45.8866 H         1 UNK         0.3000 
    180 H180       -3.5661  -17.0240  -46.0607 H         1 UNK         0.0600 
    181 H181       -5.7173  -14.8639  -46.2291 H         1 UNK         0.0600 
    182 H182       -5.7004  -16.1522  -45.0304 H         1 UNK         0.0600 
    183 H183       -5.8559  -16.5482  -46.7280 H         1 UNK         0.0600 
    184 H184       -4.1322  -15.6100  -48.2024 H         1 UNK         0.3000 
    185 H185       -2.4677  -15.7912  -49.9722 H         1 UNK         0.0600 
    186 H186       -3.7463  -13.6800  -49.6437 H         1 UNK         0.0600 
    187 H187       -2.2667  -12.8060  -49.2563 H         1 UNK         0.0600 
    188 H188       -2.5237  -13.4438  -50.8801 H         1 UNK         0.0600 
    189 H189       -0.1086  -14.0386  -49.4484 H         1 UNK         0.3000 
    190 H190       -0.4890  -21.6349  -45.5355 H         1 UNK         0.3000 
    191 H191       -2.4790  -22.0542  -47.4602 H         1 UNK         0.0600 
    192 H192       -2.7054  -21.6460  -44.4300 H         1 UNK         0.0600 
    193 H193       -4.0276  -21.4445  -45.5745 H         1 UNK         0.0600 
    194 H194       -2.6405  -20.3768  -45.6523 H         1 UNK         0.0600 
    195 H195       -1.0698  -24.4973  -45.5939 H         1 UNK         0.3000 
    196 H196       -3.3358  -26.3244  -45.4550 H         1 UNK         0.0600 
    197 H197       -1.5522  -27.9726  -44.8666 H         1 UNK         0.0600 
    198 H198       -1.4187  -26.5206  -43.8867 H         1 UNK         0.0600 
    199 H199       -0.3104  -26.7800  -45.2332 H         1 UNK         0.0600 
    200 H200       -1.0074  -25.3400  -47.9331 H         1 UNK         0.3000 
    201 H201       -1.2268  -27.8010  -49.4851 H         1 UNK         0.0600 
    202 H202        0.8923  -26.4990  -49.3877 H         1 UNK         0.0600 
    203 H203        0.0926  -25.1190  -50.1384 H         1 UNK         0.0600 
    204 H204        0.2927  -26.6160  -51.0362 H         1 UNK         0.0600 
    205 H205       -2.7185  -24.5417  -49.5684 H         1 UNK         0.3000 
    206 H206       -4.7680  -25.3648  -51.4058 H         1 UNK         0.0600 
    207 H207       -3.0377  -24.9551  -53.1218 H         1 UNK         0.0600 
    208 H208       -4.1412  -23.5927  -53.1548 H         1 UNK         0.0600 
    209 H209       -2.5738  -23.4357  -52.3700 H         1 UNK         0.0600 
    210 H210       -6.2960  -23.5964  -51.7742 H         1 UNK         0.3000 
    211 H211       -6.9909  -22.2619  -49.3764 H         1 UNK         0.0600 
    212 H212       -8.8904  -21.4081  -50.7772 H         1 UNK         0.0600 
    213 H213       -8.6640  -23.1413  -50.9455 H         1 UNK         0.0600 
    214 H214       -8.1138  -22.0523  -52.2181 H         1 UNK         0.0600 
    215 H215       -5.2501  -20.9094  -48.8355 H         1 UNK         0.3000 
    216 H216       -4.1553  -18.8720  -50.4108 H         1 UNK         0.0600 
    217 H217       -3.1058  -18.1517  -48.3482 H         1 UNK         0.0600 
    218 H218       -3.1165  -19.8998  -48.3798 H         1 UNK         0.0600 
    219 H219       -4.2719  -19.0382  -47.3606 H         1 UNK         0.0600 
    220 H220       -7.2532  -18.8594  -48.9779 H         1 UNK         0.3000 
    221 H221       -7.5201  -15.9316  -48.7682 H         1 UNK         0.0600 
    222 H222       -9.5706  -18.1963  -48.5119 H         1 UNK         0.0600 
    223 H223       -8.7302  -17.4079  -47.1758 H         1 UNK         0.0600 
    224 H224       -9.8639  -16.4973  -48.1607 H         1 UNK         0.0600 
    225 H225       -7.8600  -18.4212  -51.2217 H         1 UNK         0.3000 
    226 H226       -9.7282  -16.8054  -52.8731 H         1 UNK         0.0600 
    227 H227      -10.2460  -19.2148  -52.4986 H         1 UNK         0.0600 
    228 H228       -9.9151  -18.8872  -54.1929 H         1 UNK         0.0600 
    229 H229       -8.6934  -19.6696  -53.1993 H         1 UNK         0.0600 
    230 H230       -6.3452  -17.8884  -52.7249 H         1 UNK         0.3000 
    231 H231       -5.5180  -16.1246  -54.8532 H         1 UNK         0.0600 
    232 H232       -6.3035  -18.1473  -56.1792 H         1 UNK         0.0600 
    233 H233       -5.2328  -19.1706  -55.2248 H         1 UNK         0.0600 
    234 H234       -4.5690  -17.9413  -56.2951 H         1 UNK         0.0600 
    235 H235       -2.9837  -16.9731  -55.2392 H         1 UNK         0.3000 
    236 H236       -1.6295  -16.7309  -52.6790 H         1 UNK         0.0600 
    237 H237        0.4096  -16.9274  -54.1171 H         1 UNK         0.0600 
    238 H238       -0.5878  -17.3382  -55.5048 H         1 UNK         0.0600 
    239 H239       -0.6998  -15.7368  -54.7721 H         1 UNK         0.0600 
    240 H240       -0.0701  -18.3048  -51.9082 H         1 UNK         0.3000 
    241 H241        0.7758  -20.2554  -51.3256 H         1 UNK         0.0600 
    242 H242       -3.1154  -21.3362  -50.3978 H         1 UNK         0.3800 
    243 H243       -2.7562  -20.7944  -52.0358 H         1 UNK         0.3800 
    244 H244       -0.8888  -21.7686  -53.4053 H         1 UNK         0.0800 
    245 H245        0.6850  -21.1056  -53.7154 H         1 UNK         0.0800 
    246 H246        3.0081  -23.8577  -52.6852 H         1 UNK         0.0800 
    247 H247        2.5618  -22.6668  -53.8809 H         1 UNK         0.0800 
@<TRIPOS>BOND
     1    1    2 1    
     2    1  127 1    
     3    1  128 1    
     4    1  129 1    
     5    2    3 2    
     6    2    4 am   BACKBONE|DICT|INTERRES
     7    4    5 1    
     8    4  130 1    
     9    5    6 1    
    10    5   65 1    
    11    5  131 1    
    12    6    7 1    
    13    6  132 1    
    14    6  133 1    
    15    7    8 1    
    16    8    9 1    
    17    8  134 1    
    18    8  135 1    
    19    9   10 ar   
    20    9   14 ar   
    21   10   11 ar   
    22   10  136 1    
    23   11   12 ar   
    24   11  126 1    
    25   12   13 ar   
    26   12  137 1    
    27   13   14 ar   
    28   13   15 1    
    29   14  138 1    
    30   15   16 1    
    31   15  139 1    
    32   15  140 1    
    33   16   17 1    
    34   17   18 1    
    35   17  141 1    
    36   17  142 1    
    37   18   19 1    
    38   18   67 1    
    39   18  143 1    
    40   19   20 am   BACKBONE|DICT|INTERRES
    41   19  144 1    
    42   20   21 2    
    43   20   22 1    
    44   22   23 1    
    45   22   24 1    
    46   22  145 1    
    47   23  146 1    
    48   23  147 1    
    49   23  148 1    
    50   24   25 am   BACKBONE|DICT|INTERRES
    51   24  149 1    
    52   25   26 2    
    53   25   27 1    
    54   27   28 1    
    55   27   29 1    
    56   27  150 1    
    57   28  151 1    
    58   28  152 1    
    59   28  153 1    
    60   29   30 am   BACKBONE|DICT|INTERRES
    61   29  154 1    
    62   30   31 2    
    63   30   32 1    
    64   32   33 1    
    65   32   34 1    
    66   32  155 1    
    67   33  156 1    
    68   33  157 1    
    69   33  158 1    
    70   34   35 am   BACKBONE|DICT|INTERRES
    71   34  159 1    
    72   35   36 2    
    73   35   37 1    
    74   37   38 1    
    75   37   39 1    
    76   37  160 1    
    77   38  161 1    
    78   38  162 1    
    79   38  163 1    
    80   39   40 am   BACKBONE|DICT|INTERRES
    81   39  164 1    
    82   40   41 2    
    83   40   42 1    
    84   42   43 1    
    85   42   44 1    
    86   42  165 1    
    87   43  166 1    
    88   43  167 1    
    89   43  168 1    
    90   44   45 am   BACKBONE|DICT|INTERRES
    91   44  169 1    
    92   45   46 2    
    93   45   47 1    
    94   47   48 1    
    95   47   49 1    
    96   47  170 1    
    97   48  171 1    
    98   48  172 1    
    99   48  173 1    
   100   49   50 am   BACKBONE|DICT|INTERRES
   101   49  174 1    
   102   50   51 2    
   103   50   52 1    
   104   52   53 1    
   105   52   54 1    
   106   52  175 1    
   107   53  176 1    
   108   53  177 1    
   109   53  178 1    
   110   54   55 am   BACKBONE|DICT|INTERRES
   111   54  179 1    
   112   55   56 2    
   113   55   57 1    
   114   57   58 1    
   115   57   59 1    
   116   57  180 1    
   117   58  181 1    
   118   58  182 1    
   119   58  183 1    
   120   59   60 am   BACKBONE|DICT|INTERRES
   121   59  184 1    
   122   60   61 2    
   123   60   62 1    
   124   62   63 1    
   125   62   64 1    
   126   62  185 1    
   127   63  186 1    
   128   63  187 1    
   129   63  188 1    
   130   64   65 am   BACKBONE|DICT|INTERRES
   131   64  189 1    
   132   65   66 2    
   133   67   68 2    
   134   67   69 am   BACKBONE|DICT|INTERRES
   135   69   70 1    
   136   69  190 1    
   137   70   71 1    
   138   70   72 1    
   139   70  191 1    
   140   71  192 1    
   141   71  193 1    
   142   71  194 1    
   143   72   73 2    
   144   72   74 am   BACKBONE|DICT|INTERRES
   145   74   75 1    
   146   74  195 1    
   147   75   76 1    
   148   75   77 1    
   149   75  196 1    
   150   76  197 1    
   151   76  198 1    
   152   76  199 1    
   153   77   78 2    
   154   77   79 am   BACKBONE|DICT|INTERRES
   155   79   80 1    
   156   79  200 1    
   157   80   81 1    
   158   80   82 1    
   159   80  201 1    
   160   81  202 1    
   161   81  203 1    
   162   81  204 1    
   163   82   83 2    
   164   82   84 am   BACKBONE|DICT|INTERRES
   165   84   85 1    
   166   84  205 1    
   167   85   86 1    
   168   85   87 1    
   169   85  206 1    
   170   86  207 1    
   171   86  208 1    
   172   86  209 1    
   173   87   88 2    
   174   87   89 am   BACKBONE|DICT|INTERRES
   175   89   90 1    
   176   89  210 1    
   177   90   91 1    
   178   90   92 1    
   179   90  211 1    
   180   91  212 1    
   181   91  213 1    
   182   91  214 1    
   183   92   93 2    
   184   92   94 am   BACKBONE|DICT|INTERRES
   185   94   95 1    
   186   94  215 1    
   187   95   96 1    
   188   95   97 1    
   189   95  216 1    
   190   96  217 1    
   191   96  218 1    
   192   96  219 1    
   193   97   98 2    
   194   97   99 am   BACKBONE|DICT|INTERRES
   195   99  100 1    
   196   99  220 1    
   197  100  101 1    
   198  100  102 1    
   199  100  221 1    
   200  101  222 1    
   201  101  223 1    
   202  101  224 1    
   203  102  103 2    
   204  102  104 am   BACKBONE|DICT|INTERRES
   205  104  105 1    
   206  104  225 1    
   207  105  106 1    
   208  105  107 1    
   209  105  226 1    
   210  106  227 1    
   211  106  228 1    
   212  106  229 1    
   213  107  108 2    
   214  107  109 am   BACKBONE|DICT|INTERRES
   215  109  110 1    
   216  109  230 1    
   217  110  111 1    
   218  110  112 1    
   219  110  231 1    
   220  111  232 1    
   221  111  233 1    
   222  111  234 1    
   223  112  113 2    
   224  112  114 am   BACKBONE|DICT|INTERRES
   225  114  115 1    
   226  114  235 1    
   227  115  116 1    
   228  115  117 1    
   229  115  236 1    
   230  116  237 1    
   231  116  238 1    
   232  116  239 1    
   233  117  118 2    
   234  117  119 am   BACKBONE|DICT|INTERRES
   235  119  120 1    
   236  119  240 1    
   237  120  121 1    
   238  120  124 1    
   239  120  241 1    
   240  121  122 am   BACKBONE|DICT|INTERRES
   241  121  123 2    
   242  122  242 1    
   243  122  243 1    
   244  124  125 1    
   245  124  244 1    
   246  124  245 1    
   247  125  126 1    
   248  126  246 1    
   249  126  247 1    
@<TRIPOS>SUBSTRUCTURE
     1 UNK         1 GROUP             0       ****    0 ROOT    
