@<TRIPOS>MOLECULE
3R540
247   249    1
SMALL
USER_CHARGES


@<TRIPOS>ATOM
      1 CA         -4.8227  -14.6516  -45.8511 C.3       0 UNK        -0.1800 
      2 C          -3.3568  -14.7325  -45.4519 C.2       0 UNK         0.5000 
      3 O          -2.9157  -13.9894  -44.5760 O.2       0 UNK        -0.5000 
      4 N          -2.6013  -15.6501  -46.0699 N.am      1 UNK        -0.5000 
      5 CA         -1.1526  -15.8342  -45.8782 C.3       1 UNK         0.1400 
      6 C6         -0.5203  -16.6725  -47.0163 C.3       23 UNK        -0.0398 
      7 S7         -0.7113  -15.8287  -48.6221 S.3       23 UNK        -0.2404 
      8 C8          0.9465  -15.9992  -49.3517 C.3       23 UNK        -0.0205 
      9 C9          1.0743  -17.2859  -50.1520 C.ar      23 UNK        -0.0193 
     10 C10         0.4108  -17.4005  -51.3770 C.ar      23 UNK        -0.1150 
     11 C11         0.5462  -18.5513  -52.1556 C.ar      23 UNK        -0.0193 
     12 C12         1.3584  -19.5931  -51.7026 C.ar      23 UNK        -0.1150 
     13 C13         2.0241  -19.4957  -50.4769 C.ar      23 UNK        -0.0193 
     14 C14         1.8731  -18.3417  -49.6993 C.ar      23 UNK        -0.1150 
     15 C15         2.9378  -20.6260  -50.0276 C.3       23 UNK        -0.0205 
     16 S16         2.0050  -22.1218  -49.5776 S.3       23 UNK        -0.2404 
     17 C17         1.5684  -21.7543  -47.8492 C.3       23 UNK        -0.0398 
     18 CA          0.4800  -22.7144  -47.3082 C.3       11 UNK         0.1400 
     19 N           0.6730  -23.0186  -45.8898 N.am      11 UNK        -0.5000 
     20 C           0.0871  -24.0330  -45.2387 C.2       10 UNK         0.5000 
     21 O          -0.6592  -24.8514  -45.7739 O.2       10 UNK        -0.5000 
     22 CA          0.3461  -24.1150  -43.7231 C.3       10 UNK         0.1400 
     23 CB          1.6535  -24.8677  -43.4357 C.3       10 UNK        -0.1800 
     24 N           0.3979  -22.7922  -43.0974 N.am      10 UNK        -0.5000 
     25 C          -0.6531  -21.9657  -43.0100 C.2       9 UNK         0.5000 
     26 O          -1.7850  -22.2590  -43.3924 O.2       9 UNK        -0.5000 
     27 CA         -0.3870  -20.5567  -42.4548 C.3       9 UNK         0.1400 
     28 CB         -0.5301  -20.5404  -40.9257 C.3       9 UNK        -0.1800 
     29 N           0.9178  -20.0030  -42.8298 N.am      9 UNK        -0.5000 
     30 C           1.3218  -19.7651  -44.0857 C.2       8 UNK         0.5000 
     31 O           0.6425  -20.0288  -45.0798 O.2       8 UNK        -0.5000 
     32 CA          2.7067  -19.1165  -44.2358 C.3       8 UNK         0.1400 
     33 CB          3.0714  -18.8051  -45.6986 C.3       8 UNK        -0.1800 
     34 N           2.7363  -17.8737  -43.4721 N.am      8 UNK        -0.5000 
     35 C           3.6041  -17.5710  -42.5010 C.2       7 UNK         0.5000 
     36 O           4.4603  -18.3540  -42.0850 O.2       7 UNK        -0.5000 
     37 CA          3.4906  -16.1505  -41.9048 C.3       7 UNK         0.1400 
     38 CB          4.7030  -15.7623  -41.0337 C.3       7 UNK        -0.1800 
     39 N           3.2375  -15.1150  -42.9124 N.am      7 UNK        -0.5000 
     40 C           3.9795  -14.8182  -43.9914 C.2       6 UNK         0.5000 
     41 O           5.0188  -15.4025  -44.2995 O.2       6 UNK        -0.5000 
     42 CA          3.4935  -13.6479  -44.8618 C.3       6 UNK         0.1400 
     43 CB          2.3170  -14.0744  -45.7520 C.3       6 UNK        -0.1800 
     44 N           3.0815  -12.5175  -44.0302 N.am      6 UNK        -0.5000 
     45 C           3.6901  -11.3245  -43.9943 C.2       5 UNK         0.5000 
     46 O           4.6407  -11.0163  -44.7146 O.2       5 UNK        -0.5000 
     47 CA          3.1543  -10.2929  -42.9784 C.3       5 UNK         0.1400 
     48 CB          2.1487   -9.3480  -43.6540 C.3       5 UNK        -0.1800 
     49 N           2.5174  -10.9035  -41.8103 N.am      5 UNK        -0.5000 
     50 C           3.1504  -11.6395  -40.8867 C.2       4 UNK         0.5000 
     51 O           4.3716  -11.7940  -40.8601 O.2       4 UNK        -0.5000 
     52 CA          2.2797  -12.3416  -39.8236 C.3       4 UNK         0.1400 
     53 CB          2.3889  -11.6106  -38.4765 C.3       4 UNK        -0.1800 
     54 N           0.8580  -12.4960  -40.1614 N.am      4 UNK        -0.5000 
     55 C           0.3646  -13.1495  -41.2214 C.2       3 UNK         0.5000 
     56 O           1.0565  -13.5803  -42.1473 O.2       3 UNK        -0.5000 
     57 CA         -1.1643  -13.3165  -41.2722 C.3       3 UNK         0.1400 
     58 CB         -1.7957  -12.1608  -42.0617 C.3       3 UNK        -0.1800 
     59 N          -1.5438  -14.5868  -41.8914 N.am      3 UNK        -0.5000 
     60 C          -1.2662  -15.7968  -41.3793 C.2       2 UNK         0.5000 
     61 O          -0.7595  -15.9646  -40.2693 O.2       2 UNK        -0.5000 
     62 CA         -1.5990  -17.0344  -42.2376 C.3       2 UNK         0.1400 
     63 CB         -2.8766  -17.7204  -41.7293 C.3       2 UNK        -0.1800 
     64 N          -1.7597  -16.7308  -43.6580 N.am      2 UNK        -0.5000 
     65 C          -0.7651  -16.3779  -44.4832 C.2       1 UNK         0.5000 
     66 O           0.4227  -16.4335  -44.1658 O.2       1 UNK        -0.5000 
     67 C          -0.9414  -22.1800  -47.5676 C.2       11 UNK         0.5000 
     68 O          -1.5949  -22.6264  -48.5095 O.2       11 UNK        -0.5000 
     69 N          -1.4144  -21.2836  -46.6874 N.am      12 UNK        -0.5000 
     70 CA         -2.7753  -20.7445  -46.6898 C.3       12 UNK         0.1400 
     71 CB         -2.9193  -19.6911  -45.5787 C.3       12 UNK        -0.1800 
     72 C          -3.8415  -21.8444  -46.5354 C.2       12 UNK         0.5000 
     73 O          -4.8109  -21.8583  -47.2931 O.2       12 UNK        -0.5000 
     74 N          -3.6195  -22.7658  -45.5873 N.am      13 UNK        -0.5000 
     75 CA         -4.4722  -23.9277  -45.3374 C.3       13 UNK         0.1400 
     76 CB         -4.0259  -24.6192  -44.0404 C.3       13 UNK        -0.1800 
     77 C          -4.4905  -24.9285  -46.5074 C.2       13 UNK         0.5000 
     78 O          -5.5524  -25.4676  -46.8204 O.2       13 UNK        -0.5000 
     79 N          -3.3270  -25.1527  -47.1351 N.am      14 UNK        -0.5000 
     80 CA         -3.1751  -26.0195  -48.3040 C.3       14 UNK         0.1400 
     81 CB         -1.6844  -26.2889  -48.5610 C.3       14 UNK        -0.1800 
     82 C          -3.8499  -25.4438  -49.5618 C.2       14 UNK         0.5000 
     83 O          -4.5020  -26.1910  -50.2923 O.2       14 UNK        -0.5000 
     84 N          -3.6840  -24.1338  -49.7900 N.am      15 UNK        -0.5000 
     85 CA         -4.2848  -23.4076  -50.9076 C.3       15 UNK         0.1400 
     86 CB         -3.5941  -22.0435  -51.0603 C.3       15 UNK        -0.1800 
     87 C          -5.8081  -23.2513  -50.7552 C.2       15 UNK         0.5000 
     88 O          -6.5450  -23.5031  -51.7100 O.2       15 UNK        -0.5000 
     89 N          -6.2498  -22.8727  -49.5467 N.am      16 UNK        -0.5000 
     90 CA         -7.6381  -22.6392  -49.1501 C.3       16 UNK         0.1400 
     91 CB         -8.4087  -23.9769  -49.0748 C.3       16 UNK        -0.1800 
     92 C          -8.3038  -21.5623  -50.0341 C.2       16 UNK         0.5000 
     93 O          -7.8422  -20.4199  -50.0388 O.2       16 UNK        -0.5000 
     94 N          -9.3674  -21.9327  -50.7576 N.am      17 UNK        -0.5000 
     95 CA        -10.1015  -21.0550  -51.6696 C.3       17 UNK         0.1400 
     96 CB        -11.5302  -21.6001  -51.8268 C.3       17 UNK        -0.1800 
     97 C          -9.4314  -20.9004  -53.0505 C.2       17 UNK         0.5000 
     98 O          -9.7886  -19.9769  -53.7840 O.2       17 UNK        -0.5000 
     99 N          -8.5034  -21.8011  -53.4000 N.am      18 UNK        -0.5000 
    100 CA        -7.7807  -21.7923  -54.6710 C.3       18 UNK         0.1400 
    101 CB        -7.4728  -23.2449  -55.0725 C.3       18 UNK        -0.1800 
    102 C         -6.4798  -20.9790  -54.5635 C.2       18 UNK         0.5000 
    103 O         -5.9880  -20.7317  -53.4608 O.2       18 UNK        -0.5000 
    104 N         -5.9214  -20.6071  -55.7227 N.am      19 UNK        -0.5000 
    105 CA        -4.5993  -19.9829  -55.8260 C.3       19 UNK         0.1400 
    106 CB        -4.4660  -19.2968  -57.1936 C.3       19 UNK        -0.1800 
    107 C         -3.4583  -20.9976  -55.6173 C.2       19 UNK         0.5000 
    108 O         -2.3981  -20.6187  -55.1191 O.2       19 UNK        -0.5000 
    109 N         -3.7028  -22.2631  -55.9969 N.am      20 UNK        -0.5000 
    110 CA        -2.8088  -23.4191  -55.8814 C.3       20 UNK         0.1400 
    111 CB        -2.7388  -23.8850  -54.4118 C.3       20 UNK        -0.1800 
    112 C         -1.4347  -23.1504  -56.5280 C.2       20 UNK         0.5000 
    113 O         -1.3674  -23.0002  -57.7494 O.2       20 UNK        -0.5000 
    114 N         -0.3801  -23.0443  -55.7077 N.am      21 UNK        -0.5000 
    115 CA         0.9912  -22.7228  -56.1137 C.3       21 UNK         0.1400 
    116 CB         1.9019  -22.7964  -54.8783 C.3       21 UNK        -0.1800 
    117 C          1.1419  -21.3539  -56.8103 C.2       21 UNK         0.5000 
    118 O          2.0772  -21.1783  -57.5924 O.2       21 UNK        -0.5000 
    119 N          0.2177  -20.4258  -56.5343 N.am      22 UNK        -0.5000 
    120 CA         0.1162  -19.1166  -57.1951 C.3       22 UNK         0.1400 
    121 C         -0.7257  -19.1451  -58.5062 C.2       22 UNK         0.5000 
    122 N         -1.2935  -20.2710  -58.9256 N.am      22 UNK        -0.7600 
    123 O         -0.8583  -18.1211  -59.1706 O.2       22 UNK        -0.5000 
    124 C124       -0.3934  -18.0241  -56.2200 C.3       23 UNK        -0.0398 
    125 S125        0.7228  -17.7778  -54.7967 S.3       23 UNK        -0.2404 
    126 C126       -0.1783  -18.6607  -53.4865 C.3       23 UNK        -0.0205 
    127 H127       -5.0742  -15.3812  -46.6212 H         1 UNK         0.0600 
    128 H128       -5.4579  -14.8374  -44.9851 H         1 UNK         0.0600 
    129 H129       -5.0510  -13.6578  -46.2359 H         1 UNK         0.0600 
    130 H130       -3.0181  -16.2253  -46.7880 H         1 UNK         0.3000 
    131 H131       -0.7075  -14.8386  -45.9268 H         1 UNK         0.0600 
    132 H132        0.5403  -16.8354  -46.8256 H         1 UNK         0.0800 
    133 H133       -0.9719  -17.6619  -47.0852 H         1 UNK         0.0800 
    134 H134        1.7168  -15.9310  -48.5825 H         1 UNK         0.0800 
    135 H135        1.1175  -15.1538  -50.0197 H         1 UNK         0.0800 
    136 H136       -0.2060  -16.5857  -51.7302 H         1 UNK         0.1150 
    137 H137        1.4781  -20.4821  -52.3051 H         1 UNK         0.1150 
    138 H138        2.3942  -18.2558  -48.7563 H         1 UNK         0.1150 
    139 H139        3.5676  -20.3157  -49.1922 H         1 UNK         0.0800 
    140 H140        3.6180  -20.8727  -50.8441 H         1 UNK         0.0800 
    141 H141        1.2759  -20.7069  -47.7497 H         1 UNK         0.0800 
    142 H142        2.4872  -21.8649  -47.2720 H         1 UNK         0.0800 
    143 H143        0.5671  -23.6666  -47.8368 H         1 UNK         0.0600 
    144 H144        1.2112  -22.3519  -45.3570 H         1 UNK         0.3000 
    145 H145       -0.4773  -24.6741  -43.2735 H         1 UNK         0.0600 
    146 H146        1.6340  -25.8647  -43.8779 H         1 UNK         0.0600 
    147 H147        1.8092  -24.9921  -42.3639 H         1 UNK         0.0600 
    148 H148        2.5197  -24.3447  -43.8430 H         1 UNK         0.0600 
    149 H149        1.2932  -22.4783  -42.7533 H         1 UNK         0.3000 
    150 H150       -1.1507  -19.9054  -42.8803 H         1 UNK         0.0600 
    151 H151        0.2167  -21.1735  -40.4452 H         1 UNK         0.0600 
    152 H152       -1.5130  -20.9040  -40.6228 H         1 UNK         0.0600 
    153 H153       -0.4215  -19.5327  -40.5248 H         1 UNK         0.0600 
    154 H154        1.5378  -19.7523  -42.0732 H         1 UNK         0.3000 
    155 H155        3.4360  -19.8307  -43.8492 H         1 UNK         0.0600 
    156 H156        2.3473  -18.1344  -46.1597 H         1 UNK         0.0600 
    157 H157        3.1111  -19.7146  -46.2967 H         1 UNK         0.0600 
    158 H158        4.0510  -18.3315  -45.7654 H         1 UNK         0.0600 
    159 H159        2.0111  -17.1984  -43.7133 H         1 UNK         0.3000 
    160 H160        2.6109  -16.1627  -41.2593 H         1 UNK         0.0600 
    161 H161        5.6315  -15.7775  -41.6052 H         1 UNK         0.0600 
    162 H162        4.8212  -16.4510  -40.1965 H         1 UNK         0.0600 
    163 H163        4.5853  -14.7624  -40.6163 H         1 UNK         0.0600 
    164 H164        2.3797  -14.5869  -42.7613 H         1 UNK         0.3000 
    165 H165        4.3221  -13.3674  -45.5154 H         1 UNK         0.0600 
    166 H166        2.5315  -15.0056  -46.2779 H         1 UNK         0.0600 
    167 H167        1.4149  -14.2239  -45.1614 H         1 UNK         0.0600 
    168 H168        2.0983  -13.3154  -46.5030 H         1 UNK         0.0600 
    169 H169        2.3278  -12.6957  -43.3745 H         1 UNK         0.3000 
    170 H170        4.0030   -9.7002  -42.6306 H         1 UNK         0.0600 
    171 H171        1.8180   -8.5674  -42.9686 H         1 UNK         0.0600 
    172 H172        1.2661   -9.8844  -44.0050 H         1 UNK         0.0600 
    173 H173        2.5966   -8.8528  -44.5166 H         1 UNK         0.0600 
    174 H174        1.5131  -10.8278  -41.7490 H         1 UNK         0.3000 
    175 H175        2.6884  -13.3461  -39.6979 H         1 UNK         0.0600 
    176 H176        3.4305  -11.5061  -38.1693 H         1 UNK         0.0600 
    177 H177        1.9598  -10.6092  -38.5278 H         1 UNK         0.0600 
    178 H178        1.8743  -12.1579  -37.6864 H         1 UNK         0.0600 
    179 H179        0.2082  -12.1478  -39.4711 H         1 UNK         0.3000 
    180 H180       -1.5582  -13.3046  -40.2539 H         1 UNK         0.0600 
    181 H181       -1.4228  -12.1241  -43.0864 H         1 UNK         0.0600 
    182 H182       -1.5743  -11.1994  -41.5967 H         1 UNK         0.0600 
    183 H183       -2.8806  -12.2587  -42.1052 H         1 UNK         0.0600 
    184 H184       -1.9485  -14.5256  -42.8192 H         1 UNK         0.3000 
    185 H185       -0.7612  -17.7232  -42.1304 H         1 UNK         0.0600 
    186 H186       -2.7687  -18.0229  -40.6868 H         1 UNK         0.0600 
    187 H187       -3.7395  -17.0561  -41.7908 H         1 UNK         0.0600 
    188 H188       -3.1049  -18.6173  -42.3049 H         1 UNK         0.0600 
    189 H189       -2.7058  -16.6413  -43.9976 H         1 UNK         0.3000 
    190 H190       -0.7868  -20.9404  -45.9657 H         1 UNK         0.3000 
    191 H191       -2.9298  -20.2534  -47.6527 H         1 UNK         0.0600 
    192 H192       -2.1138  -18.9609  -45.6121 H         1 UNK         0.0600 
    193 H193       -3.8600  -19.1488  -45.6784 H         1 UNK         0.0600 
    194 H194       -2.9092  -20.1419  -44.5869 H         1 UNK         0.0600 
    195 H195       -2.8225  -22.6479  -44.9677 H         1 UNK         0.3000 
    196 H196       -5.4929  -23.5665  -45.1956 H         1 UNK         0.0600 
    197 H197       -4.6548  -25.4826  -43.8203 H         1 UNK         0.0600 
    198 H198       -4.0942  -23.9414  -43.1893 H         1 UNK         0.0600 
    199 H199       -2.9954  -24.9700  -44.1061 H         1 UNK         0.0600 
    200 H200       -2.4838  -24.7152  -46.7807 H         1 UNK         0.3000 
    201 H201       -3.6539  -26.9748  -48.0789 H         1 UNK         0.0600 
    202 H202       -1.5480  -26.9384  -49.4265 H         1 UNK         0.0600 
    203 H203       -1.2211  -26.7840  -47.7076 H         1 UNK         0.0600 
    204 H204       -1.1345  -25.3670  -48.7521 H         1 UNK         0.0600 
    205 H205       -3.0802  -23.5982  -49.1709 H         1 UNK         0.3000 
    206 H206       -4.1019  -23.9832  -51.8149 H         1 UNK         0.0600 
    207 H207       -2.5215  -22.1600  -51.2170 H         1 UNK         0.0600 
    208 H208       -3.9877  -21.4993  -51.9185 H         1 UNK         0.0600 
    209 H209       -3.7363  -21.4184  -50.1778 H         1 UNK         0.0600 
    210 H210       -5.5643  -22.6440  -48.8309 H         1 UNK         0.3000 
    211 H211       -7.6013  -22.2247  -48.1417 H         1 UNK         0.0600 
    212 H212       -9.4230  -23.8281  -48.7025 H         1 UNK         0.0600 
    213 H213       -7.9159  -24.6662  -48.3886 H         1 UNK         0.0600 
    214 H214       -8.4751  -24.4739  -50.0432 H         1 UNK         0.0600 
    215 H215       -9.6733  -22.8937  -50.7091 H         1 UNK         0.3000 
    216 H216      -10.1676  -20.0593  -51.2258 H         1 UNK         0.0600 
    217 H217      -12.0401  -21.6543  -50.8647 H         1 UNK         0.0600 
    218 H218      -11.5341  -22.5982  -52.2667 H         1 UNK         0.0600 
    219 H219      -12.1270  -20.9546  -52.4726 H         1 UNK         0.0600 
    220 H220       -8.1694  -22.4608  -52.7068 H         1 UNK         0.3000 
    221 H221       -8.4062  -21.3474  -55.4479 H         1 UNK         0.0600 
    222 H222       -6.7905  -23.7237  -54.3693 H         1 UNK         0.0600 
    223 H223       -8.3829  -23.8434  -55.1153 H         1 UNK         0.0600 
    224 H224       -7.0101  -23.2917  -56.0587 H         1 UNK         0.0600 
    225 H225       -6.3921  -20.8210  -56.5904 H         1 UNK         0.3000 
    226 H226       -4.5095  -19.2171  -55.0523 H         1 UNK         0.0600 
    227 H227       -5.2512  -18.5553  -57.3417 H         1 UNK         0.0600 
    228 H228       -3.5116  -18.7762  -57.2761 H         1 UNK         0.0600 
    229 H229       -4.5199  -20.0137  -58.0138 H         1 UNK         0.0600 
    230 H230       -4.5948  -22.4514  -56.4288 H         1 UNK         0.3000 
    231 H231       -3.2619  -24.2253  -56.4602 H         1 UNK         0.0600 
    232 H232       -2.3767  -23.1019  -53.7447 H         1 UNK         0.0600 
    233 H233       -2.0886  -24.7535  -54.2991 H         1 UNK         0.0600 
    234 H234       -3.7285  -24.1824  -54.0668 H         1 UNK         0.0600 
    235 H235       -0.5394  -23.1491  -54.7166 H         1 UNK         0.3000 
    236 H236        1.3127  -23.4866  -56.8245 H         1 UNK         0.0600 
    237 H237        2.9393  -22.5879  -55.1432 H         1 UNK         0.0600 
    238 H238        1.6056  -22.0721  -54.1191 H         1 UNK         0.0600 
    239 H239        1.8766  -23.7880  -54.4259 H         1 UNK         0.0600 
    240 H240       -0.5442  -20.6580  -55.9054 H         1 UNK         0.3000 
    241 H241        1.1169  -18.8145  -57.5094 H         1 UNK         0.0600 
    242 H242       -1.1877  -21.1431  -58.4184 H         1 UNK         0.3800 
    243 H243       -1.8212  -20.2613  -59.7836 H         1 UNK         0.3800 
    244 H244       -0.4688  -17.0632  -56.7318 H         1 UNK         0.0800 
    245 H245       -1.3999  -18.2549  -55.8694 H         1 UNK         0.0800 
    246 H246       -0.2910  -19.7088  -53.7658 H         1 UNK         0.0800 
    247 H247       -1.1864  -18.2542  -53.3924 H         1 UNK         0.0800 
@<TRIPOS>BOND
     1    1    2 1    
     2    1  127 1    
     3    1  128 1    
     4    1  129 1    
     5    2    3 2    
     6    2    4 am   BACKBONE|DICT|INTERRES
     7    4    5 1    
     8    4  130 1    
     9    5    6 1    
    10    5   65 1    
    11    5  131 1    
    12    6    7 1    
    13    6  132 1    
    14    6  133 1    
    15    7    8 1    
    16    8    9 1    
    17    8  134 1    
    18    8  135 1    
    19    9   10 ar   
    20    9   14 ar   
    21   10   11 ar   
    22   10  136 1    
    23   11   12 ar   
    24   11  126 1    
    25   12   13 ar   
    26   12  137 1    
    27   13   14 ar   
    28   13   15 1    
    29   14  138 1    
    30   15   16 1    
    31   15  139 1    
    32   15  140 1    
    33   16   17 1    
    34   17   18 1    
    35   17  141 1    
    36   17  142 1    
    37   18   19 1    
    38   18   67 1    
    39   18  143 1    
    40   19   20 am   BACKBONE|DICT|INTERRES
    41   19  144 1    
    42   20   21 2    
    43   20   22 1    
    44   22   23 1    
    45   22   24 1    
    46   22  145 1    
    47   23  146 1    
    48   23  147 1    
    49   23  148 1    
    50   24   25 am   BACKBONE|DICT|INTERRES
    51   24  149 1    
    52   25   26 2    
    53   25   27 1    
    54   27   28 1    
    55   27   29 1    
    56   27  150 1    
    57   28  151 1    
    58   28  152 1    
    59   28  153 1    
    60   29   30 am   BACKBONE|DICT|INTERRES
    61   29  154 1    
    62   30   31 2    
    63   30   32 1    
    64   32   33 1    
    65   32   34 1    
    66   32  155 1    
    67   33  156 1    
    68   33  157 1    
    69   33  158 1    
    70   34   35 am   BACKBONE|DICT|INTERRES
    71   34  159 1    
    72   35   36 2    
    73   35   37 1    
    74   37   38 1    
    75   37   39 1    
    76   37  160 1    
    77   38  161 1    
    78   38  162 1    
    79   38  163 1    
    80   39   40 am   BACKBONE|DICT|INTERRES
    81   39  164 1    
    82   40   41 2    
    83   40   42 1    
    84   42   43 1    
    85   42   44 1    
    86   42  165 1    
    87   43  166 1    
    88   43  167 1    
    89   43  168 1    
    90   44   45 am   BACKBONE|DICT|INTERRES
    91   44  169 1    
    92   45   46 2    
    93   45   47 1    
    94   47   48 1    
    95   47   49 1    
    96   47  170 1    
    97   48  171 1    
    98   48  172 1    
    99   48  173 1    
   100   49   50 am   BACKBONE|DICT|INTERRES
   101   49  174 1    
   102   50   51 2    
   103   50   52 1    
   104   52   53 1    
   105   52   54 1    
   106   52  175 1    
   107   53  176 1    
   108   53  177 1    
   109   53  178 1    
   110   54   55 am   BACKBONE|DICT|INTERRES
   111   54  179 1    
   112   55   56 2    
   113   55   57 1    
   114   57   58 1    
   115   57   59 1    
   116   57  180 1    
   117   58  181 1    
   118   58  182 1    
   119   58  183 1    
   120   59   60 am   BACKBONE|DICT|INTERRES
   121   59  184 1    
   122   60   61 2    
   123   60   62 1    
   124   62   63 1    
   125   62   64 1    
   126   62  185 1    
   127   63  186 1    
   128   63  187 1    
   129   63  188 1    
   130   64   65 am   BACKBONE|DICT|INTERRES
   131   64  189 1    
   132   65   66 2    
   133   67   68 2    
   134   67   69 am   BACKBONE|DICT|INTERRES
   135   69   70 1    
   136   69  190 1    
   137   70   71 1    
   138   70   72 1    
   139   70  191 1    
   140   71  192 1    
   141   71  193 1    
   142   71  194 1    
   143   72   73 2    
   144   72   74 am   BACKBONE|DICT|INTERRES
   145   74   75 1    
   146   74  195 1    
   147   75   76 1    
   148   75   77 1    
   149   75  196 1    
   150   76  197 1    
   151   76  198 1    
   152   76  199 1    
   153   77   78 2    
   154   77   79 am   BACKBONE|DICT|INTERRES
   155   79   80 1    
   156   79  200 1    
   157   80   81 1    
   158   80   82 1    
   159   80  201 1    
   160   81  202 1    
   161   81  203 1    
   162   81  204 1    
   163   82   83 2    
   164   82   84 am   BACKBONE|DICT|INTERRES
   165   84   85 1    
   166   84  205 1    
   167   85   86 1    
   168   85   87 1    
   169   85  206 1    
   170   86  207 1    
   171   86  208 1    
   172   86  209 1    
   173   87   88 2    
   174   87   89 am   BACKBONE|DICT|INTERRES
   175   89   90 1    
   176   89  210 1    
   177   90   91 1    
   178   90   92 1    
   179   90  211 1    
   180   91  212 1    
   181   91  213 1    
   182   91  214 1    
   183   92   93 2    
   184   92   94 am   BACKBONE|DICT|INTERRES
   185   94   95 1    
   186   94  215 1    
   187   95   96 1    
   188   95   97 1    
   189   95  216 1    
   190   96  217 1    
   191   96  218 1    
   192   96  219 1    
   193   97   98 2    
   194   97   99 am   BACKBONE|DICT|INTERRES
   195   99  100 1    
   196   99  220 1    
   197  100  101 1    
   198  100  102 1    
   199  100  221 1    
   200  101  222 1    
   201  101  223 1    
   202  101  224 1    
   203  102  103 2    
   204  102  104 am   BACKBONE|DICT|INTERRES
   205  104  105 1    
   206  104  225 1    
   207  105  106 1    
   208  105  107 1    
   209  105  226 1    
   210  106  227 1    
   211  106  228 1    
   212  106  229 1    
   213  107  108 2    
   214  107  109 am   BACKBONE|DICT|INTERRES
   215  109  110 1    
   216  109  230 1    
   217  110  111 1    
   218  110  112 1    
   219  110  231 1    
   220  111  232 1    
   221  111  233 1    
   222  111  234 1    
   223  112  113 2    
   224  112  114 am   BACKBONE|DICT|INTERRES
   225  114  115 1    
   226  114  235 1    
   227  115  116 1    
   228  115  117 1    
   229  115  236 1    
   230  116  237 1    
   231  116  238 1    
   232  116  239 1    
   233  117  118 2    
   234  117  119 am   BACKBONE|DICT|INTERRES
   235  119  120 1    
   236  119  240 1    
   237  120  121 1    
   238  120  124 1    
   239  120  241 1    
   240  121  122 am   BACKBONE|DICT|INTERRES
   241  121  123 2    
   242  122  242 1    
   243  122  243 1    
   244  124  125 1    
   245  124  244 1    
   246  124  245 1    
   247  125  126 1    
   248  126  246 1    
   249  126  247 1    
@<TRIPOS>SUBSTRUCTURE
     1 UNK         1 GROUP             0       ****    0 ROOT    
