@<TRIPOS>MOLECULE
3R540
247   249    1
SMALL
USER_CHARGES


@<TRIPOS>ATOM
      1 CA          5.0246  -17.9111  -45.7404 C.3       0 UNK        -0.1800 
      2 C           4.2291  -16.6224  -45.6047 C.2       0 UNK         0.5000 
      3 O           4.2603  -15.9915  -44.5506 O.2       0 UNK        -0.5000 
      4 N           3.5373  -16.2119  -46.6749 N.am      1 UNK        -0.5000 
      5 CA          2.6379  -15.0482  -46.7360 C.3       1 UNK         0.1400 
      6 C6          1.8684  -14.9932  -48.0797 C.3       23 UNK        -0.0398 
      7 S7          2.9652  -14.9608  -49.5404 S.3       23 UNK        -0.2404 
      8 C8          1.8198  -15.4597  -50.8695 C.3       23 UNK        -0.0205 
      9 C9          1.3125  -16.8967  -50.7657 C.ar      23 UNK        -0.0193 
     10 C10        -0.0162  -17.1799  -51.0968 C.ar      23 UNK        -0.1150 
     11 C11        -0.4945  -18.4933  -51.0772 C.ar      23 UNK        -0.0193 
     12 C12         0.3587  -19.5290  -50.6882 C.ar      23 UNK        -0.1150 
     13 C13         1.6885  -19.2631  -50.3489 C.ar      23 UNK        -0.0193 
     14 C14         2.1624  -17.9485  -50.4033 C.ar      23 UNK        -0.1150 
     15 C15         2.6193  -20.4053  -49.9641 C.3       23 UNK        -0.0205 
     16 S16         3.3360  -20.2320  -48.2953 S.3       23 UNK        -0.2404 
     17 C17         1.8722  -20.0447  -47.2231 C.3       23 UNK        -0.0398 
     18 CA          1.2937  -21.3940  -46.7237 C.3       11 UNK         0.1400 
     19 N           0.7094  -21.2781  -45.3845 N.am      11 UNK        -0.5000 
     20 C           0.2284  -22.2934  -44.6531 C.2       10 UNK         0.5000 
     21 O           0.2815  -23.4725  -45.0007 O.2       10 UNK        -0.5000 
     22 CA         -0.4826  -21.9229  -43.3376 C.3       10 UNK         0.1400 
     23 CB          0.5275  -21.6928  -42.2037 C.3       10 UNK        -0.1800 
     24 N          -1.3419  -20.7465  -43.4865 N.am      10 UNK        -0.5000 
     25 C          -2.4522  -20.7196  -44.2383 C.2       9 UNK         0.5000 
     26 O          -2.8970  -21.7021  -44.8310 O.2       9 UNK        -0.5000 
     27 CA         -3.1557  -19.3588  -44.3968 C.3       9 UNK         0.1400 
     28 CB         -4.0687  -19.0715  -43.1961 C.3       9 UNK        -0.1800 
     29 N          -2.2140  -18.2529  -44.5713 N.am      9 UNK        -0.5000 
     30 C          -1.3662  -18.1296  -45.6026 C.2       8 UNK         0.5000 
     31 O          -1.3239  -18.9086  -46.5520 O.2       8 UNK        -0.5000 
     32 CA         -0.3521  -16.9762  -45.5332 C.3       8 UNK         0.1400 
     33 CB         -1.0024  -15.6661  -46.0053 C.3       8 UNK        -0.1800 
     34 N           0.2128  -16.8146  -44.1906 N.am      8 UNK        -0.5000 
     35 C           0.9286  -17.7542  -43.5534 C.2       7 UNK         0.5000 
     36 O           1.2512  -18.8219  -44.0699 O.2       7 UNK        -0.5000 
     37 CA          1.2972  -17.4998  -42.0829 C.3       7 UNK         0.1400 
     38 CB          2.6453  -16.7906  -41.9640 C.3       7 UNK        -0.1800 
     39 N           0.2787  -16.7128  -41.3971 N.am      7 UNK        -0.5000 
     40 C          -0.8598  -17.2246  -40.9142 C.2       6 UNK         0.5000 
     41 O          -1.1469  -18.4213  -40.9615 O.2       6 UNK        -0.5000 
     42 CA         -1.8588  -16.2180  -40.3150 C.3       6 UNK         0.1400 
     43 CB         -1.4936  -15.8897  -38.8596 C.3       6 UNK        -0.1800 
     44 N          -1.9363  -14.9763  -41.0882 N.am      6 UNK        -0.5000 
     45 C          -2.3954  -14.9031  -42.3446 C.2       5 UNK         0.5000 
     46 O          -2.8188  -15.8734  -42.9727 O.2       5 UNK        -0.5000 
     47 CA         -2.3500  -13.5250  -43.0281 C.3       5 UNK         0.1400 
     48 CB         -3.6408  -12.7449  -42.7380 C.3       5 UNK        -0.1800 
     49 N          -1.1966  -12.6916  -42.6752 N.am      5 UNK        -0.5000 
     50 C           0.0960  -13.0140  -42.8295 C.2       4 UNK         0.5000 
     51 O           0.4837  -14.1308  -43.1795 O.2       4 UNK        -0.5000 
     52 CA          1.0977  -11.8635  -42.5983 C.3       4 UNK         0.1400 
     53 CB          0.8401  -11.1059  -41.2762 C.3       4 UNK        -0.1800 
     54 N           2.5046  -12.2620  -42.7157 N.am      4 UNK        -0.5000 
     55 C           3.2345  -13.0039  -41.8701 C.2       3 UNK         0.5000 
     56 O           2.7859  -13.5101  -40.8400 O.2       3 UNK        -0.5000 
     57 CA          4.7291  -13.1742  -42.2266 C.3       3 UNK         0.1400 
     58 CB          5.3799  -14.4036  -41.5679 C.3       3 UNK        -0.1800 
     59 N           4.9465  -13.2398  -43.6734 N.am      3 UNK        -0.5000 
     60 C           5.3006  -12.2086  -44.4547 C.2       2 UNK         0.5000 
     61 O           5.5074  -11.0729  -44.0269 O.2       2 UNK        -0.5000 
     62 CA          5.4172  -12.4709  -45.9720 C.3       2 UNK         0.1400 
     63 CB          6.8841  -12.7000  -46.3659 C.3       2 UNK        -0.1800 
     64 N           4.6219  -13.6101  -46.4313 N.am      2 UNK        -0.5000 
     65 C           3.2843  -13.6856  -46.3916 C.2       1 UNK         0.5000 
     66 O           2.5639  -12.7422  -46.0612 O.2       1 UNK        -0.5000 
     67 C           0.2815  -21.9779  -47.7301 C.2       11 UNK         0.5000 
     68 O           0.6068  -22.9273  -48.4404 O.2       11 UNK        -0.5000 
     69 N          -0.9409  -21.4304  -47.7360 N.am      12 UNK        -0.5000 
     70 CA         -2.0639  -21.8774  -48.5573 C.3       12 UNK         0.1400 
     71 CB         -3.2387  -20.9083  -48.3673 C.3       12 UNK        -0.1800 
     72 C          -2.4913  -23.3255  -48.2586 C.2       12 UNK         0.5000 
     73 O          -2.7542  -24.0861  -49.1905 O.2       12 UNK        -0.5000 
     74 N          -2.5140  -23.6966  -46.9706 N.am      13 UNK        -0.5000 
     75 CA         -2.7800  -25.0590  -46.5096 C.3       13 UNK         0.1400 
     76 CB         -2.9617  -25.0666  -44.9845 C.3       13 UNK        -0.1800 
     77 C          -1.6860  -26.0536  -46.9406 C.2       13 UNK         0.5000 
     78 O          -2.0152  -27.1506  -47.3918 O.2       13 UNK        -0.5000 
     79 N          -0.4136  -25.6447  -46.8308 N.am      14 UNK        -0.5000 
     80 CA          0.7517  -26.4191  -47.2655 C.3       14 UNK         0.1400 
     81 CB          2.0348  -25.7579  -46.7394 C.3       14 UNK        -0.1800 
     82 C           0.8136  -26.5985  -48.7944 C.2       14 UNK         0.5000 
     83 O           1.1343  -27.6900  -49.2663 O.2       14 UNK        -0.5000 
     84 N           0.4773  -25.5358  -49.5381 N.am      15 UNK        -0.5000 
     85 CA          0.3596  -25.5316  -50.9982 C.3       15 UNK         0.1400 
     86 CB          0.3011  -24.0751  -51.4879 C.3       15 UNK        -0.1800 
     87 C          -0.8661  -26.3116  -51.5148 C.2       15 UNK         0.5000 
     88 O          -0.8786  -26.7053  -52.6816 O.2       15 UNK        -0.5000 
     89 N          -1.8687  -26.4998  -50.6440 N.am      16 UNK        -0.5000 
     90 CA         -3.1862  -27.0881  -50.8971 C.3       16 UNK         0.1400 
     91 CB         -3.0666  -28.5812  -51.2664 C.3       16 UNK        -0.1800 
     92 C          -4.0039  -26.2649  -51.9146 C.2       16 UNK         0.5000 
     93 O          -4.6905  -26.8317  -52.7674 O.2       16 UNK        -0.5000 
     94 N          -3.9077  -24.9352  -51.8066 N.am      17 UNK        -0.5000 
     95 CA         -4.5578  -23.9665  -52.6782 C.3       17 UNK         0.1400 
     96 CB         -3.7307  -23.7748  -53.9617 C.3       17 UNK        -0.1800 
     97 C          -4.6955  -22.6544  -51.9017 C.2       17 UNK         0.5000 
     98 O          -3.6814  -22.0928  -51.4874 O.2       17 UNK        -0.5000 
     99 N          -5.9356  -22.1954  -51.7140 N.am      18 UNK        -0.5000 
    100 CA        -6.2825  -20.9697  -51.0011 C.3       18 UNK         0.1400 
    101 CB        -6.9377  -21.3448  -49.6610 C.3       18 UNK        -0.1800 
    102 C         -7.2532  -20.1432  -51.8535 C.2       18 UNK         0.5000 
    103 O         -7.9573  -20.7045  -52.6977 O.2       18 UNK        -0.5000 
    104 N         -7.2850  -18.8276  -51.6000 N.am      19 UNK        -0.5000 
    105 CA        -8.1677  -17.8349  -52.2221 C.3       19 UNK         0.1400 
    106 CB        -9.6020  -17.9857  -51.6660 C.3       19 UNK        -0.1800 
    107 C         -8.0803  -17.8694  -53.7629 C.2       19 UNK         0.5000 
    108 O         -6.9949  -17.6552  -54.3062 O.2       19 UNK        -0.5000 
    109 N         -9.1969  -18.1764  -54.4354 N.am      20 UNK        -0.5000 
    110 CA        -9.3140  -18.2810  -55.8907 C.3       20 UNK         0.1400 
    111 CB       -10.7942  -18.4696  -56.2569 C.3       20 UNK        -0.1800 
    112 C         -8.4571  -19.3971  -56.5218 C.2       20 UNK         0.5000 
    113 O         -8.1103  -19.2845  -57.6982 O.2       20 UNK        -0.5000 
    114 N         -8.1191  -20.4409  -55.7486 N.am      21 UNK        -0.5000 
    115 CA        -7.2174  -21.5085  -56.1875 C.3       21 UNK         0.1400 
    116 CB        -7.4474  -22.7697  -55.3407 C.3       21 UNK        -0.1800 
    117 C         -5.7404  -21.0774  -56.1320 C.2       21 UNK         0.5000 
    118 O         -4.9428  -21.5647  -56.9337 O.2       21 UNK        -0.5000 
    119 N         -5.4037  -20.1788  -55.1966 N.am      22 UNK        -0.5000 
    120 CA        -4.0784  -19.5539  -55.0911 C.3       22 UNK         0.1400 
    121 C         -3.9145  -18.3805  -56.0972 C.2       22 UNK         0.5000 
    122 N         -4.8900  -17.4864  -56.2045 N.am      22 UNK        -0.7600 
    123 O         -2.9101  -18.2904  -56.7977 O.2       22 UNK        -0.5000 
    124 C124       -3.7698  -19.1160  -53.6358 C.3       23 UNK        -0.0398 
    125 S125       -1.9810  -18.9283  -53.3399 S.3       23 UNK        -0.2404 
    126 C126       -1.9159  -18.7933  -51.5275 C.3       23 UNK        -0.0205 
    127 H127        6.0314  -17.7758  -45.3455 H         1 UNK         0.0600 
    128 H128        5.1087  -18.2253  -46.7807 H         1 UNK         0.0600 
    129 H129        4.5393  -18.7088  -45.1780 H         1 UNK         0.0600 
    130 H130        3.5936  -16.7491  -47.5286 H         1 UNK         0.3000 
    131 H131        1.9058  -15.2064  -45.9443 H         1 UNK         0.0600 
    132 H132        1.2006  -14.1304  -48.1157 H         1 UNK         0.0800 
    133 H133        1.2221  -15.8680  -48.1548 H         1 UNK         0.0800 
    134 H134        0.9840  -14.7583  -50.8842 H         1 UNK         0.0800 
    135 H135        2.3312  -15.3475  -51.8262 H         1 UNK         0.0800 
    136 H136       -0.6747  -16.3812  -51.4086 H         1 UNK         0.1150 
    137 H137       -0.0063  -20.5463  -50.6779 H         1 UNK         0.1150 
    138 H138        3.1981  -17.7494  -50.1674 H         1 UNK         0.1150 
    139 H139        2.1073  -21.3653  -50.0339 H         1 UNK         0.0800 
    140 H140        3.4341  -20.4486  -50.6879 H         1 UNK         0.0800 
    141 H141        2.2225  -19.4598  -46.3732 H         1 UNK         0.0800 
    142 H142        1.1163  -19.4197  -47.7009 H         1 UNK         0.0800 
    143 H143        2.1131  -22.1101  -46.6319 H         1 UNK         0.0600 
    144 H144        0.6810  -20.3439  -44.9840 H         1 UNK         0.3000 
    145 H145       -1.1169  -22.7656  -43.0546 H         1 UNK         0.0600 
    146 H146        1.1232  -22.5895  -42.0287 H         1 UNK         0.0600 
    147 H147        1.2193  -20.8825  -42.4309 H         1 UNK         0.0600 
    148 H148        0.0226  -21.4493  -41.2686 H         1 UNK         0.0600 
    149 H149       -1.0445  -19.8973  -43.0262 H         1 UNK         0.3000 
    150 H150       -3.7782  -19.4092  -45.2923 H         1 UNK         0.0600 
    151 H151       -4.7946  -19.8735  -43.0562 H         1 UNK         0.0600 
    152 H152       -4.6283  -18.1470  -43.3398 H         1 UNK         0.0600 
    153 H153       -3.5004  -18.9763  -42.2705 H         1 UNK         0.0600 
    154 H154       -2.2284  -17.5253  -43.8625 H         1 UNK         0.3000 
    155 H155        0.4730  -17.2159  -46.2063 H         1 UNK         0.0600 
    156 H156       -1.9527  -15.4866  -45.5046 H         1 UNK         0.0600 
    157 H157       -0.3645  -14.8012  -45.8264 H         1 UNK         0.0600 
    158 H158       -1.2092  -15.7056  -47.0753 H         1 UNK         0.0600 
    159 H159        0.0589  -15.9249  -43.7250 H         1 UNK         0.3000 
    160 H160        1.3881  -18.4692  -41.5883 H         1 UNK         0.0600 
    161 H161        2.6291  -15.8309  -42.4798 H         1 UNK         0.0600 
    162 H162        3.4412  -17.3929  -42.4033 H         1 UNK         0.0600 
    163 H163        2.9099  -16.6082  -40.9224 H         1 UNK         0.0600 
    164 H164        0.4188  -15.7116  -41.3756 H         1 UNK         0.3000 
    165 H165       -2.8461  -16.6851  -40.3234 H         1 UNK         0.0600 
    166 H166       -2.2395  -15.2387  -38.4032 H         1 UNK         0.0600 
    167 H167       -1.4427  -16.7971  -38.2563 H         1 UNK         0.0600 
    168 H168       -0.5251  -15.3930  -38.7884 H         1 UNK         0.0600 
    169 H169       -1.5981  -14.1341  -40.6464 H         1 UNK         0.3000 
    170 H170       -2.3004  -13.6956  -44.1039 H         1 UNK         0.0600 
    171 H171       -4.5208  -13.3283  -43.0129 H         1 UNK         0.0600 
    172 H172       -3.7306  -12.4940  -41.6803 H         1 UNK         0.0600 
    173 H173       -3.6789  -11.8166  -43.3084 H         1 UNK         0.0600 
    174 H174       -1.4157  -11.7524  -42.3767 H         1 UNK         0.3000 
    175 H175        0.9347  -11.1596  -43.4156 H         1 UNK         0.0600 
    176 H176        0.8349  -11.7766  -40.4164 H         1 UNK         0.0600 
    177 H177        1.6029  -10.3467  -41.1023 H         1 UNK         0.0600 
    178 H178       -0.1202  -10.5901  -41.2916 H         1 UNK         0.0600 
    179 H179        2.9611  -11.9569  -43.5639 H         1 UNK         0.3000 
    180 H180        5.2332  -12.2956  -41.8196 H         1 UNK         0.0600 
    181 H181        4.9757  -15.3347  -41.9608 H         1 UNK         0.0600 
    182 H182        5.2317  -14.4051  -40.4875 H         1 UNK         0.0600 
    183 H183        6.4555  -14.4138  -41.7439 H         1 UNK         0.0600 
    184 H184        4.7528  -14.1406  -44.1037 H         1 UNK         0.3000 
    185 H185        5.0570  -11.5790  -46.4889 H         1 UNK         0.0600 
    186 H186        7.5060  -11.8557  -46.0654 H         1 UNK         0.0600 
    187 H187        7.2924  -13.5937  -45.8922 H         1 UNK         0.0600 
    188 H188        6.9905  -12.8122  -47.4450 H         1 UNK         0.0600 
    189 H189        5.1310  -14.4363  -46.7088 H         1 UNK         0.3000 
    190 H190       -1.1117  -20.6141  -47.1517 H         1 UNK         0.3000 
    191 H191       -1.7489  -21.8355  -49.6009 H         1 UNK         0.0600 
    192 H192       -3.5795  -20.8825  -47.3328 H         1 UNK         0.0600 
    193 H193       -4.0851  -21.2052  -48.9821 H         1 UNK         0.0600 
    194 H194       -2.9654  -19.8935  -48.6559 H         1 UNK         0.0600 
    195 H195       -2.3455  -22.9963  -46.2553 H         1 UNK         0.3000 
    196 H196       -3.7195  -25.3845  -46.9614 H         1 UNK         0.0600 
    197 H197       -3.1871  -26.0707  -44.6233 H         1 UNK         0.0600 
    198 H198       -3.7860  -24.4198  -44.6833 H         1 UNK         0.0600 
    199 H199       -2.0645  -24.7257  -44.4682 H         1 UNK         0.0600 
    200 H200       -0.2246  -24.7423  -46.4034 H         1 UNK         0.3000 
    201 H201        0.6772  -27.4127  -46.8188 H         1 UNK         0.0600 
    202 H202        2.0294  -25.6995  -45.6509 H         1 UNK         0.0600 
    203 H203        2.1561  -24.7460  -47.1266 H         1 UNK         0.0600 
    204 H204        2.9168  -26.3294  -47.0307 H         1 UNK         0.0600 
    205 H205        0.3097  -24.6478  -49.0692 H         1 UNK         0.3000 
    206 H206        1.2524  -26.0006  -51.4164 H         1 UNK         0.0600 
    207 H207        1.1900  -23.5209  -51.1865 H         1 UNK         0.0600 
    208 H208        0.2421  -24.0284  -52.5760 H         1 UNK         0.0600 
    209 H209       -0.5703  -23.5529  -51.0903 H         1 UNK         0.0600 
    210 H210       -1.7598  -26.0828  -49.7286 H         1 UNK         0.3000 
    211 H211       -3.7282  -27.0263  -49.9524 H         1 UNK         0.0600 
    212 H212       -2.5892  -28.7244  -52.2361 H         1 UNK         0.0600 
    213 H213       -4.0498  -29.0505  -51.3146 H         1 UNK         0.0600 
    214 H214       -2.4845  -29.1243  -50.5217 H         1 UNK         0.0600 
    215 H215       -3.3691  -24.5386  -51.0390 H         1 UNK         0.3000 
    216 H216       -5.5527  -24.3280  -52.9468 H         1 UNK         0.0600 
    217 H217       -4.1730  -23.0121  -54.6009 H         1 UNK         0.0600 
    218 H218       -3.6793  -24.6961  -54.5419 H         1 UNK         0.0600 
    219 H219       -2.7094  -23.4634  -53.7380 H         1 UNK         0.0600 
    220 H220       -6.7207  -22.6740  -52.1340 H         1 UNK         0.3000 
    221 H221       -5.3923  -20.3661  -50.8139 H         1 UNK         0.0600 
    222 H222       -7.8819  -21.8706  -49.8093 H         1 UNK         0.0600 
    223 H223       -6.2917  -21.9917  -49.0679 H         1 UNK         0.0600 
    224 H224       -7.1465  -20.4563  -49.0640 H         1 UNK         0.0600 
    225 H225       -6.6536  -18.4585  -50.9033 H         1 UNK         0.3000 
    226 H226       -7.7975  -16.8538  -51.9213 H         1 UNK         0.0600 
    227 H227       -9.6080  -17.8830  -50.5808 H         1 UNK         0.0600 
    228 H228      -10.2639  -17.2137  -52.0606 H         1 UNK         0.0600 
    229 H229      -10.0372  -18.9573  -51.9034 H         1 UNK         0.0600 
    230 H230      -10.0333  -18.3707  -53.9044 H         1 UNK         0.3000 
    231 H231       -8.9751  -17.3345  -56.3170 H         1 UNK         0.0600 
    232 H232      -10.9266  -18.5205  -57.3386 H         1 UNK         0.0600 
    233 H233      -11.3998  -17.6378  -55.8965 H         1 UNK         0.0600 
    234 H234      -11.1987  -19.3896  -55.8331 H         1 UNK         0.0600 
    235 H235       -8.4160  -20.4620  -54.7791 H         1 UNK         0.3000 
    236 H236       -7.4507  -21.7609  -57.2243 H         1 UNK         0.0600 
    237 H237       -8.4888  -23.0888  -55.3814 H         1 UNK         0.0600 
    238 H238       -6.8383  -23.5979  -55.7052 H         1 UNK         0.0600 
    239 H239       -7.1852  -22.6105  -54.2965 H         1 UNK         0.0600 
    240 H240       -6.1385  -19.7722  -54.6351 H         1 UNK         0.3000 
    241 H241       -3.3411  -20.3134  -55.3608 H         1 UNK         0.0600 
    242 H242       -5.7030  -17.5321  -55.5936 H         1 UNK         0.3800 
    243 H243       -4.7997  -16.7275  -56.8606 H         1 UNK         0.3800 
    244 H244       -4.2865  -18.1898  -53.3774 H         1 UNK         0.0800 
    245 H245       -4.1339  -19.8710  -52.9409 H         1 UNK         0.0800 
    246 H246       -2.5892  -18.0041  -51.1900 H         1 UNK         0.0800 
    247 H247       -2.2713  -19.7235  -51.0818 H         1 UNK         0.0800 
@<TRIPOS>BOND
     1    1    2 1    
     2    1  127 1    
     3    1  128 1    
     4    1  129 1    
     5    2    3 2    
     6    2    4 am   BACKBONE|DICT|INTERRES
     7    4    5 1    
     8    4  130 1    
     9    5    6 1    
    10    5   65 1    
    11    5  131 1    
    12    6    7 1    
    13    6  132 1    
    14    6  133 1    
    15    7    8 1    
    16    8    9 1    
    17    8  134 1    
    18    8  135 1    
    19    9   10 ar   
    20    9   14 ar   
    21   10   11 ar   
    22   10  136 1    
    23   11   12 ar   
    24   11  126 1    
    25   12   13 ar   
    26   12  137 1    
    27   13   14 ar   
    28   13   15 1    
    29   14  138 1    
    30   15   16 1    
    31   15  139 1    
    32   15  140 1    
    33   16   17 1    
    34   17   18 1    
    35   17  141 1    
    36   17  142 1    
    37   18   19 1    
    38   18   67 1    
    39   18  143 1    
    40   19   20 am   BACKBONE|DICT|INTERRES
    41   19  144 1    
    42   20   21 2    
    43   20   22 1    
    44   22   23 1    
    45   22   24 1    
    46   22  145 1    
    47   23  146 1    
    48   23  147 1    
    49   23  148 1    
    50   24   25 am   BACKBONE|DICT|INTERRES
    51   24  149 1    
    52   25   26 2    
    53   25   27 1    
    54   27   28 1    
    55   27   29 1    
    56   27  150 1    
    57   28  151 1    
    58   28  152 1    
    59   28  153 1    
    60   29   30 am   BACKBONE|DICT|INTERRES
    61   29  154 1    
    62   30   31 2    
    63   30   32 1    
    64   32   33 1    
    65   32   34 1    
    66   32  155 1    
    67   33  156 1    
    68   33  157 1    
    69   33  158 1    
    70   34   35 am   BACKBONE|DICT|INTERRES
    71   34  159 1    
    72   35   36 2    
    73   35   37 1    
    74   37   38 1    
    75   37   39 1    
    76   37  160 1    
    77   38  161 1    
    78   38  162 1    
    79   38  163 1    
    80   39   40 am   BACKBONE|DICT|INTERRES
    81   39  164 1    
    82   40   41 2    
    83   40   42 1    
    84   42   43 1    
    85   42   44 1    
    86   42  165 1    
    87   43  166 1    
    88   43  167 1    
    89   43  168 1    
    90   44   45 am   BACKBONE|DICT|INTERRES
    91   44  169 1    
    92   45   46 2    
    93   45   47 1    
    94   47   48 1    
    95   47   49 1    
    96   47  170 1    
    97   48  171 1    
    98   48  172 1    
    99   48  173 1    
   100   49   50 am   BACKBONE|DICT|INTERRES
   101   49  174 1    
   102   50   51 2    
   103   50   52 1    
   104   52   53 1    
   105   52   54 1    
   106   52  175 1    
   107   53  176 1    
   108   53  177 1    
   109   53  178 1    
   110   54   55 am   BACKBONE|DICT|INTERRES
   111   54  179 1    
   112   55   56 2    
   113   55   57 1    
   114   57   58 1    
   115   57   59 1    
   116   57  180 1    
   117   58  181 1    
   118   58  182 1    
   119   58  183 1    
   120   59   60 am   BACKBONE|DICT|INTERRES
   121   59  184 1    
   122   60   61 2    
   123   60   62 1    
   124   62   63 1    
   125   62   64 1    
   126   62  185 1    
   127   63  186 1    
   128   63  187 1    
   129   63  188 1    
   130   64   65 am   BACKBONE|DICT|INTERRES
   131   64  189 1    
   132   65   66 2    
   133   67   68 2    
   134   67   69 am   BACKBONE|DICT|INTERRES
   135   69   70 1    
   136   69  190 1    
   137   70   71 1    
   138   70   72 1    
   139   70  191 1    
   140   71  192 1    
   141   71  193 1    
   142   71  194 1    
   143   72   73 2    
   144   72   74 am   BACKBONE|DICT|INTERRES
   145   74   75 1    
   146   74  195 1    
   147   75   76 1    
   148   75   77 1    
   149   75  196 1    
   150   76  197 1    
   151   76  198 1    
   152   76  199 1    
   153   77   78 2    
   154   77   79 am   BACKBONE|DICT|INTERRES
   155   79   80 1    
   156   79  200 1    
   157   80   81 1    
   158   80   82 1    
   159   80  201 1    
   160   81  202 1    
   161   81  203 1    
   162   81  204 1    
   163   82   83 2    
   164   82   84 am   BACKBONE|DICT|INTERRES
   165   84   85 1    
   166   84  205 1    
   167   85   86 1    
   168   85   87 1    
   169   85  206 1    
   170   86  207 1    
   171   86  208 1    
   172   86  209 1    
   173   87   88 2    
   174   87   89 am   BACKBONE|DICT|INTERRES
   175   89   90 1    
   176   89  210 1    
   177   90   91 1    
   178   90   92 1    
   179   90  211 1    
   180   91  212 1    
   181   91  213 1    
   182   91  214 1    
   183   92   93 2    
   184   92   94 am   BACKBONE|DICT|INTERRES
   185   94   95 1    
   186   94  215 1    
   187   95   96 1    
   188   95   97 1    
   189   95  216 1    
   190   96  217 1    
   191   96  218 1    
   192   96  219 1    
   193   97   98 2    
   194   97   99 am   BACKBONE|DICT|INTERRES
   195   99  100 1    
   196   99  220 1    
   197  100  101 1    
   198  100  102 1    
   199  100  221 1    
   200  101  222 1    
   201  101  223 1    
   202  101  224 1    
   203  102  103 2    
   204  102  104 am   BACKBONE|DICT|INTERRES
   205  104  105 1    
   206  104  225 1    
   207  105  106 1    
   208  105  107 1    
   209  105  226 1    
   210  106  227 1    
   211  106  228 1    
   212  106  229 1    
   213  107  108 2    
   214  107  109 am   BACKBONE|DICT|INTERRES
   215  109  110 1    
   216  109  230 1    
   217  110  111 1    
   218  110  112 1    
   219  110  231 1    
   220  111  232 1    
   221  111  233 1    
   222  111  234 1    
   223  112  113 2    
   224  112  114 am   BACKBONE|DICT|INTERRES
   225  114  115 1    
   226  114  235 1    
   227  115  116 1    
   228  115  117 1    
   229  115  236 1    
   230  116  237 1    
   231  116  238 1    
   232  116  239 1    
   233  117  118 2    
   234  117  119 am   BACKBONE|DICT|INTERRES
   235  119  120 1    
   236  119  240 1    
   237  120  121 1    
   238  120  124 1    
   239  120  241 1    
   240  121  122 am   BACKBONE|DICT|INTERRES
   241  121  123 2    
   242  122  242 1    
   243  122  243 1    
   244  124  125 1    
   245  124  244 1    
   246  124  245 1    
   247  125  126 1    
   248  126  246 1    
   249  126  247 1    
@<TRIPOS>SUBSTRUCTURE
     1 UNK         1 GROUP             0       ****    0 ROOT    
