@<TRIPOS>MOLECULE
3R540
247   249    1
SMALL
USER_CHARGES


@<TRIPOS>ATOM
      1 CA          0.5433  -10.2930  -48.7693 C.3       0 UNK        -0.1800 
      2 C           0.2686  -11.7109  -48.2898 C.2       0 UNK         0.5000 
      3 O           0.4932  -12.0175  -47.1185 O.2       0 UNK        -0.5000 
      4 N          -0.2281  -12.5762  -49.1831 N.am      1 UNK        -0.5000 
      5 CA         -0.5671  -13.9800  -48.9198 C.3       1 UNK         0.1400 
      6 C6         -0.4710  -14.8275  -50.2153 C.3       23 UNK        -0.0398 
      7 S7         -0.2659  -16.6131  -49.8859 S.3       23 UNK        -0.2404 
      8 C8          1.0401  -17.0399  -51.0764 C.3       23 UNK        -0.0205 
      9 C9          1.2854  -18.5387  -51.1201 C.ar      23 UNK        -0.0193 
     10 C10         0.4493  -19.3672  -51.8742 C.ar      23 UNK        -0.1150 
     11 C11         0.6517  -20.7515  -51.9078 C.ar      23 UNK        -0.0193 
     12 C12         1.7109  -21.2982  -51.1731 C.ar      23 UNK        -0.1150 
     13 C13         2.5591  -20.4807  -50.4164 C.ar      23 UNK        -0.0193 
     14 C14         2.3438  -19.0998  -50.4024 C.ar      23 UNK        -0.1150 
     15 C15         3.7048  -21.0922  -49.6138 C.3       23 UNK        -0.0205 
     16 S16         3.6626  -20.6582  -47.8385 S.3       23 UNK        -0.2404 
     17 C17         2.0608  -21.3541  -47.3192 C.3       23 UNK        -0.0398 
     18 CA          2.2009  -22.6643  -46.5067 C.3       11 UNK         0.1400 
     19 N           2.7974  -22.4288  -45.1947 N.am      11 UNK        -0.5000 
     20 C           3.4448  -23.3402  -44.4608 C.2       10 UNK         0.5000 
     21 O           3.7181  -24.4711  -44.8683 O.2       10 UNK        -0.5000 
     22 CA          3.8270  -22.9151  -43.0257 C.3       10 UNK         0.1400 
     23 CB          4.9594  -23.7671  -42.4152 C.3       10 UNK        -0.1800 
     24 N           4.1146  -21.4817  -42.9129 N.am      10 UNK        -0.5000 
     25 C           5.1193  -20.7956  -43.4780 C.2       9 UNK         0.5000 
     26 O           6.0302  -21.3169  -44.1225 O.2       9 UNK        -0.5000 
     27 CA          5.1015  -19.2603  -43.3166 C.3       9 UNK         0.1400 
     28 CB          4.8007  -18.5874  -44.6657 C.3       9 UNK        -0.1800 
     29 N           4.1317  -18.7816  -42.3277 N.am      9 UNK        -0.5000 
     30 C           4.2797  -18.8619  -40.9986 C.2       8 UNK         0.5000 
     31 O           5.2890  -19.3048  -40.4496 O.2       8 UNK        -0.5000 
     32 CA          3.0854  -18.4019  -40.1386 C.3       8 UNK         0.1400 
     33 CB          3.1355  -16.8851  -39.9016 C.3       8 UNK        -0.1800 
     34 N           1.7880  -18.7653  -40.7155 N.am      8 UNK        -0.5000 
     35 C           1.3505  -20.0238  -40.8709 C.2       7 UNK         0.5000 
     36 O           1.9833  -21.0163  -40.5103 O.2       7 UNK        -0.5000 
     37 CA          0.0060  -20.2128  -41.5984 C.3       7 UNK         0.1400 
     38 CB         -1.1737  -19.9820  -40.6425 C.3       7 UNK        -0.1800 
     39 N          -0.1305  -19.3495  -42.7718 N.am      7 UNK        -0.5000 
     40 C           0.6720  -19.4013  -43.8446 C.2       6 UNK         0.5000 
     41 O           1.5954  -20.2027  -43.9720 O.2       6 UNK        -0.5000 
     42 CA          0.4419  -18.3491  -44.9397 C.3       6 UNK         0.1400 
     43 CB         -0.7782  -18.7172  -45.7931 C.3       6 UNK        -0.1800 
     44 N           0.2769  -17.0051  -44.3948 N.am      6 UNK        -0.5000 
     45 C           1.1941  -16.3476  -43.6727 C.2       5 UNK         0.5000 
     46 O           2.3206  -16.7802  -43.4348 O.2       5 UNK        -0.5000 
     47 CA          0.7519  -15.0080  -43.0619 C.3       5 UNK         0.1400 
     48 CB          0.8218  -13.8762  -44.0985 C.3       5 UNK        -0.1800 
     49 N          -0.5983  -15.0889  -42.5033 N.am      5 UNK        -0.5000 
     50 C          -0.9272  -15.8087  -41.4208 C.2       4 UNK         0.5000 
     51 O          -0.1159  -16.4516  -40.7544 O.2       4 UNK        -0.5000 
     52 CA         -2.4194  -15.8418  -41.0417 C.3       4 UNK         0.1400 
     53 CB         -2.7955  -14.6049  -40.2126 C.3       4 UNK        -0.1800 
     54 N          -3.2939  -15.9259  -42.2128 N.am      4 UNK        -0.5000 
     55 C          -3.3860  -17.0015  -43.0074 C.2       3 UNK         0.5000 
     56 O          -2.7701  -18.0486  -42.8136 O.2       3 UNK        -0.5000 
     57 CA         -4.2719  -16.8628  -44.2608 C.3       3 UNK         0.1400 
     58 CB         -5.7362  -17.1885  -43.9335 C.3       3 UNK        -0.1800 
     59 N          -4.1862  -15.5449  -44.9005 N.am      3 UNK        -0.5000 
     60 C          -3.0546  -15.0388  -45.4071 C.2       2 UNK         0.5000 
     61 O          -1.9647  -15.6073  -45.3219 O.2       2 UNK        -0.5000 
     62 CA         -3.1349  -13.6544  -46.0737 C.3       2 UNK         0.1400 
     63 CB         -3.0499  -12.5459  -45.0131 C.3       2 UNK        -0.1800 
     64 N          -2.0327  -13.4817  -47.0182 N.am      2 UNK        -0.5000 
     65 C          -1.9347  -14.0970  -48.2026 C.2       1 UNK         0.5000 
     66 O          -2.8692  -14.7094  -48.7226 O.2       1 UNK        -0.5000 
     67 C           0.8104  -23.3015  -46.3302 C.2       11 UNK         0.5000 
     68 O           0.1239  -23.0376  -45.3396 O.2       11 UNK        -0.5000 
     69 N           0.3827  -24.0673  -47.3423 N.am      12 UNK        -0.5000 
     70 CA         -0.9639  -24.6389  -47.4329 C.3       12 UNK         0.1400 
     71 CB         -0.9862  -25.6893  -48.5532 C.3       12 UNK        -0.1800 
     72 C          -2.0608  -23.5827  -47.6754 C.2       12 UNK         0.5000 
     73 O          -3.2316  -23.8626  -47.4190 O.2       12 UNK        -0.5000 
     74 N          -1.6714  -22.3924  -48.1591 N.am      13 UNK        -0.5000 
     75 CA         -2.5237  -21.2629  -48.5507 C.3       13 UNK         0.1400 
     76 CB         -1.6360  -20.1196  -49.0592 C.3       13 UNK        -0.1800 
     77 C          -3.5186  -20.7496  -47.4930 C.2       13 UNK         0.5000 
     78 O          -4.4927  -20.0920  -47.8595 O.2       13 UNK        -0.5000 
     79 N          -3.3008  -21.1023  -46.2187 N.am      14 UNK        -0.5000 
     80 CA         -4.2499  -20.9024  -45.1227 C.3       14 UNK         0.1400 
     81 CB         -3.5817  -21.3231  -43.8056 C.3       14 UNK        -0.1800 
     82 C          -5.5882  -21.6472  -45.3287 C.2       14 UNK         0.5000 
     83 O          -6.6107  -21.1940  -44.8136 O.2       14 UNK        -0.5000 
     84 N          -5.5611  -22.7473  -46.0950 N.am      15 UNK        -0.5000 
     85 CA         -6.7346  -23.4995  -46.5386 C.3       15 UNK         0.1400 
     86 CB         -6.6782  -24.9134  -45.9395 C.3       15 UNK        -0.1800 
     87 C          -6.8173  -23.5718  -48.0754 C.2       15 UNK         0.5000 
     88 O          -7.9210  -23.5443  -48.6199 O.2       15 UNK        -0.5000 
     89 N          -5.6635  -23.6688  -48.7524 N.am      16 UNK        -0.5000 
     90 CA         -5.5501  -23.8848  -50.1986 C.3       16 UNK         0.1400 
     91 CB         -4.2041  -24.5681  -50.4961 C.3       16 UNK        -0.1800 
     92 C          -5.7069  -22.6146  -51.0586 C.2       16 UNK         0.5000 
     93 O          -5.6919  -22.7421  -52.2819 O.2       16 UNK        -0.5000 
     94 N          -5.8502  -21.4426  -50.4234 N.am      17 UNK        -0.5000 
     95 CA         -5.9533  -20.0967  -51.0035 C.3       17 UNK         0.1400 
     96 CB         -7.0492  -20.0134  -52.0888 C.3       17 UNK        -0.1800 
     97 C          -4.6064  -19.5249  -51.4953 C.2       17 UNK         0.5000 
     98 O          -3.6056  -20.2381  -51.5783 O.2       17 UNK        -0.5000 
     99 N          -4.6205  -18.2103  -51.7539 N.am      18 UNK        -0.5000 
    100 CA        -3.4767  -17.3636  -52.1006 C.3       18 UNK         0.1400 
    101 CB        -3.9528  -15.9003  -52.0491 C.3       18 UNK        -0.1800 
    102 C         -2.8234  -17.6789  -53.4631 C.2       18 UNK         0.5000 
    103 O         -3.3131  -18.5233  -54.2133 O.2       18 UNK        -0.5000 
    104 N         -1.7274  -16.9628  -53.7633 N.am      19 UNK        -0.5000 
    105 CA        -0.9207  -17.0691  -54.9847 C.3       19 UNK         0.1400 
    106 CB         0.1152  -15.9336  -55.0150 C.3       19 UNK        -0.1800 
    107 C         -1.7558  -17.0490  -56.2792 C.2       19 UNK         0.5000 
    108 O         -2.6235  -16.1874  -56.4334 O.2       19 UNK        -0.5000 
    109 N         -1.4818  -18.0215  -57.1587 N.am      20 UNK        -0.5000 
    110 CA        -2.1662  -18.3305  -58.4223 C.3       20 UNK         0.1400 
    111 CB        -2.1865  -17.1185  -59.3762 C.3       20 UNK        -0.1800 
    112 C         -3.5683  -18.9598  -58.2621 C.2       20 UNK         0.5000 
    113 O         -4.1106  -19.4489  -59.2541 O.2       20 UNK        -0.5000 
    114 N         -4.1158  -18.9877  -57.0397 N.am      21 UNK        -0.5000 
    115 CA        -5.3632  -19.6671  -56.6856 C.3       21 UNK         0.1400 
    116 CB        -6.2539  -18.6955  -55.8903 C.3       21 UNK        -0.1800 
    117 C         -5.1033  -20.9615  -55.8875 C.2       21 UNK         0.5000 
    118 O         -6.0714  -21.6427  -55.5508 O.2       21 UNK        -0.5000 
    119 N         -3.8243  -21.2658  -55.6085 N.am      22 UNK        -0.5000 
    120 CA        -3.3076  -22.4079  -54.8364 C.3       22 UNK         0.1400 
    121 C         -3.9366  -23.7714  -55.2461 C.2       22 UNK         0.5000 
    122 N         -4.7877  -24.3463  -54.4100 N.am      22 UNK        -0.7600 
    123 O         -3.6327  -24.3203  -56.3032 O.2       22 UNK        -0.5000 
    124 C124       -1.7582  -22.4996  -54.9274 C.3       23 UNK        -0.0398 
    125 S125       -0.8624  -21.0439  -54.2798 S.3       23 UNK        -0.2404 
    126 C126       -0.3054  -21.6785  -52.6590 C.3       23 UNK        -0.0205 
    127 H127        0.2973  -10.1662  -49.8238 H         1 UNK         0.0600 
    128 H128        1.5971  -10.0495  -48.6341 H         1 UNK         0.0600 
    129 H129       -0.0486   -9.5815  -48.1935 H         1 UNK         0.0600 
    130 H130       -0.4259  -12.2492  -50.1182 H         1 UNK         0.3000 
    131 H131        0.1801  -14.3711  -48.2251 H         1 UNK         0.0600 
    132 H132       -1.3372  -14.6718  -50.8583 H         1 UNK         0.0800 
    133 H133        0.3895  -14.4946  -50.7975 H         1 UNK         0.0800 
    134 H134        1.9576  -16.5096  -50.8161 H         1 UNK         0.0800 
    135 H135        0.7510  -16.6936  -52.0663 H         1 UNK         0.0800 
    136 H136       -0.3824  -18.9374  -52.4103 H         1 UNK         0.1150 
    137 H137        1.8676  -22.3677  -51.1794 H         1 UNK         0.1150 
    138 H138        2.9922  -18.4638  -49.8160 H         1 UNK         0.1150 
    139 H139        3.7082  -22.1791  -49.7080 H         1 UNK         0.0800 
    140 H140        4.6491  -20.7459  -50.0356 H         1 UNK         0.0800 
    141 H141        1.4459  -21.5101  -48.2056 H         1 UNK         0.0800 
    142 H142        1.5420  -20.5950  -46.7337 H         1 UNK         0.0800 
    143 H143        2.8308  -23.3591  -47.0667 H         1 UNK         0.0600 
    144 H144        2.5290  -21.5566  -44.7429 H         1 UNK         0.3000 
    145 H145        2.9343  -23.0826  -42.4214 H         1 UNK         0.0600 
    146 H146        5.2022  -23.4344  -41.4060 H         1 UNK         0.0600 
    147 H147        4.6654  -24.8151  -42.3484 H         1 UNK         0.0600 
    148 H148        5.8702  -23.7231  -43.0127 H         1 UNK         0.0600 
    149 H149        3.4067  -20.9416  -42.4322 H         1 UNK         0.3000 
    150 H150        6.0999  -18.9541  -42.9983 H         1 UNK         0.0600 
    151 H151        5.5223  -18.8883  -45.4262 H         1 UNK         0.0600 
    152 H152        4.8476  -17.5013  -44.5849 H         1 UNK         0.0600 
    153 H153        3.8092  -18.8531  -45.0338 H         1 UNK         0.0600 
    154 H154        3.2968  -18.3361  -42.6973 H         1 UNK         0.3000 
    155 H155        3.1680  -18.8973  -39.1690 H         1 UNK         0.0600 
    156 H156        4.0825  -16.5915  -39.4471 H         1 UNK         0.0600 
    157 H157        2.3389  -16.5650  -39.2298 H         1 UNK         0.0600 
    158 H158        3.0310  -16.3276  -40.8325 H         1 UNK         0.0600 
    159 H159        1.1870  -17.9990  -41.0020 H         1 UNK         0.3000 
    160 H160       -0.0387  -21.2471  -41.9460 H         1 UNK         0.0600 
    161 H161       -1.2134  -18.9504  -40.2925 H         1 UNK         0.0600 
    162 H162       -1.0974  -20.6249  -39.7649 H         1 UNK         0.0600 
    163 H163       -2.1236  -20.2066  -41.1277 H         1 UNK         0.0600 
    164 H164       -0.9028  -18.6900  -42.7637 H         1 UNK         0.3000 
    165 H165        1.3223  -18.3412  -45.5854 H         1 UNK         0.0600 
    166 H166       -0.8575  -18.0726  -46.6690 H         1 UNK         0.0600 
    167 H167       -0.7075  -19.7477  -46.1393 H         1 UNK         0.0600 
    168 H168       -1.7068  -18.6309  -45.2303 H         1 UNK         0.0600 
    169 H169       -0.6089  -16.5423  -44.5909 H         1 UNK         0.3000 
    170 H170        1.4411  -14.7665  -42.2499 H         1 UNK         0.0600 
    171 H171        1.8347  -13.7693  -44.4887 H         1 UNK         0.0600 
    172 H172        0.1658  -14.0597  -44.9492 H         1 UNK         0.0600 
    173 H173        0.5411  -12.9189  -43.6595 H         1 UNK         0.0600 
    174 H174       -1.3336  -14.6403  -43.0275 H         1 UNK         0.3000 
    175 H175       -2.5866  -16.7283  -40.4261 H         1 UNK         0.0600 
    176 H176       -2.1683  -14.5265  -39.3235 H         1 UNK         0.0600 
    177 H177       -2.6737  -13.6830  -40.7828 H         1 UNK         0.0600 
    178 H178       -3.8307  -14.6569  -39.8749 H         1 UNK         0.0600 
    179 H179       -3.8332  -15.1051  -42.4449 H         1 UNK         0.3000 
    180 H180       -3.9177  -17.5938  -44.9893 H         1 UNK         0.0600 
    181 H181       -5.8235  -18.1734  -43.4722 H         1 UNK         0.0600 
    182 H182       -6.1666  -16.4625  -43.2428 H         1 UNK         0.0600 
    183 H183       -6.3485  -17.2002  -44.8354 H         1 UNK         0.0600 
    184 H184       -5.0468  -15.0236  -44.9876 H         1 UNK         0.3000 
    185 H185       -4.0826  -13.5697  -46.6091 H         1 UNK         0.0600 
    186 H186       -3.8689  -12.6220  -44.2968 H         1 UNK         0.0600 
    187 H187       -2.1157  -12.5942  -44.4520 H         1 UNK         0.0600 
    188 H188       -3.1123  -11.5586  -45.4714 H         1 UNK         0.0600 
    189 H189       -1.2120  -12.9894  -46.6817 H         1 UNK         0.3000 
    190 H190        1.0017  -24.2575  -48.1178 H         1 UNK         0.3000 
    191 H191       -1.1918  -25.1377  -46.4885 H         1 UNK         0.0600 
    192 H192       -0.7756  -25.2459  -49.5274 H         1 UNK         0.0600 
    193 H193       -1.9626  -26.1716  -48.6166 H         1 UNK         0.0600 
    194 H194       -0.2511  -26.4740  -48.3740 H         1 UNK         0.0600 
    195 H195       -0.6887  -22.2782  -48.3476 H         1 UNK         0.3000 
    196 H196       -3.1324  -21.6098  -49.3857 H         1 UNK         0.0600 
    197 H197       -1.2359  -20.3744  -50.0348 H         1 UNK         0.0600 
    198 H198       -0.7938  -19.9121  -48.4022 H         1 UNK         0.0600 
    199 H199       -2.1976  -19.1926  -49.1856 H         1 UNK         0.0600 
    200 H200       -2.4829  -21.6570  -46.0112 H         1 UNK         0.3000 
    201 H201       -4.4764  -19.8376  -45.0681 H         1 UNK         0.0600 
    202 H202       -4.2405  -21.1369  -42.9566 H         1 UNK         0.0600 
    203 H203       -3.3291  -22.3841  -43.8029 H         1 UNK         0.0600 
    204 H204       -2.6647  -20.7597  -43.6321 H         1 UNK         0.0600 
    205 H205       -4.6661  -23.0564  -46.4619 H         1 UNK         0.3000 
    206 H206       -7.6511  -23.0184  -46.1909 H         1 UNK         0.0600 
    207 H207       -6.6887  -24.8783  -44.8500 H         1 UNK         0.0600 
    208 H208       -7.5371  -25.5073  -46.2546 H         1 UNK         0.0600 
    209 H209       -5.7773  -25.4455  -46.2484 H         1 UNK         0.0600 
    210 H210       -4.7914  -23.7263  -48.2317 H         1 UNK         0.3000 
    211 H211       -6.3423  -24.5723  -50.5023 H         1 UNK         0.0600 
    212 H212       -4.1478  -24.8868  -51.5373 H         1 UNK         0.0600 
    213 H213       -4.0655  -25.4569  -49.8806 H         1 UNK         0.0600 
    214 H214       -3.3633  -23.8979  -50.3189 H         1 UNK         0.0600 
    215 H215       -5.8077  -21.4608  -49.4141 H         1 UNK         0.3000 
    216 H216       -6.2693  -19.4637  -50.1727 H         1 UNK         0.0600 
    217 H217       -7.2820  -18.9771  -52.3348 H         1 UNK         0.0600 
    218 H218       -7.9754  -20.4808  -51.7546 H         1 UNK         0.0600 
    219 H219       -6.7419  -20.4984  -53.0157 H         1 UNK         0.0600 
    220 H220       -5.5019  -17.7260  -51.6790 H         1 UNK         0.3000 
    221 H221       -2.7154  -17.5142  -51.3335 H         1 UNK         0.0600 
    222 H222       -4.7498  -15.7148  -52.7704 H         1 UNK         0.0600 
    223 H223       -4.3298  -15.6447  -51.0583 H         1 UNK         0.0600 
    224 H224       -3.1482  -15.2000  -52.2709 H         1 UNK         0.0600 
    225 H225       -1.4251  -16.2628  -53.1043 H         1 UNK         0.3000 
    226 H226       -0.3843  -18.0182  -54.9292 H         1 UNK         0.0600 
    227 H227       -0.3610  -14.9544  -54.9512 H         1 UNK         0.0600 
    228 H228        0.8296  -16.0156  -54.1984 H         1 UNK         0.0600 
    229 H229        0.6918  -15.9556  -55.9409 H         1 UNK         0.0600 
    230 H230       -0.7514  -18.6759  -56.9131 H         1 UNK         0.3000 
    231 H231       -1.5539  -19.0989  -58.8966 H         1 UNK         0.0600 
    232 H232       -1.1914  -16.6890  -59.4921 H         1 UNK         0.0600 
    233 H233       -2.8554  -16.3323  -59.0260 H         1 UNK         0.0600 
    234 H234       -2.5297  -17.4126  -60.3687 H         1 UNK         0.0600 
    235 H235       -3.6229  -18.5632  -56.2606 H         1 UNK         0.3000 
    236 H236       -5.9083  -19.9548  -57.5865 H         1 UNK         0.0600 
    237 H237       -6.4329  -17.7772  -56.4496 H         1 UNK         0.0600 
    238 H238       -7.2265  -19.1415  -55.6792 H         1 UNK         0.0600 
    239 H239       -5.8084  -18.4238  -54.9335 H         1 UNK         0.0600 
    240 H240       -3.1250  -20.5989  -55.8950 H         1 UNK         0.3000 
    241 H241       -3.5631  -22.2121  -53.7938 H         1 UNK         0.0600 
    242 H242       -5.1254  -23.8259  -53.6002 H         1 UNK         0.3800 
    243 H243       -5.2077  -25.2288  -54.6526 H         1 UNK         0.3800 
    244 H244       -1.4031  -23.3883  -54.4028 H         1 UNK         0.0800 
    245 H245       -1.4542  -22.6340  -55.9669 H         1 UNK         0.0800 
    246 H246       -1.1823  -21.8556  -52.0342 H         1 UNK         0.0800 
    247 H247        0.1715  -22.6476  -52.8119 H         1 UNK         0.0800 
@<TRIPOS>BOND
     1    1    2 1    
     2    1  127 1    
     3    1  128 1    
     4    1  129 1    
     5    2    3 2    
     6    2    4 am   BACKBONE|DICT|INTERRES
     7    4    5 1    
     8    4  130 1    
     9    5    6 1    
    10    5   65 1    
    11    5  131 1    
    12    6    7 1    
    13    6  132 1    
    14    6  133 1    
    15    7    8 1    
    16    8    9 1    
    17    8  134 1    
    18    8  135 1    
    19    9   10 ar   
    20    9   14 ar   
    21   10   11 ar   
    22   10  136 1    
    23   11   12 ar   
    24   11  126 1    
    25   12   13 ar   
    26   12  137 1    
    27   13   14 ar   
    28   13   15 1    
    29   14  138 1    
    30   15   16 1    
    31   15  139 1    
    32   15  140 1    
    33   16   17 1    
    34   17   18 1    
    35   17  141 1    
    36   17  142 1    
    37   18   19 1    
    38   18   67 1    
    39   18  143 1    
    40   19   20 am   BACKBONE|DICT|INTERRES
    41   19  144 1    
    42   20   21 2    
    43   20   22 1    
    44   22   23 1    
    45   22   24 1    
    46   22  145 1    
    47   23  146 1    
    48   23  147 1    
    49   23  148 1    
    50   24   25 am   BACKBONE|DICT|INTERRES
    51   24  149 1    
    52   25   26 2    
    53   25   27 1    
    54   27   28 1    
    55   27   29 1    
    56   27  150 1    
    57   28  151 1    
    58   28  152 1    
    59   28  153 1    
    60   29   30 am   BACKBONE|DICT|INTERRES
    61   29  154 1    
    62   30   31 2    
    63   30   32 1    
    64   32   33 1    
    65   32   34 1    
    66   32  155 1    
    67   33  156 1    
    68   33  157 1    
    69   33  158 1    
    70   34   35 am   BACKBONE|DICT|INTERRES
    71   34  159 1    
    72   35   36 2    
    73   35   37 1    
    74   37   38 1    
    75   37   39 1    
    76   37  160 1    
    77   38  161 1    
    78   38  162 1    
    79   38  163 1    
    80   39   40 am   BACKBONE|DICT|INTERRES
    81   39  164 1    
    82   40   41 2    
    83   40   42 1    
    84   42   43 1    
    85   42   44 1    
    86   42  165 1    
    87   43  166 1    
    88   43  167 1    
    89   43  168 1    
    90   44   45 am   BACKBONE|DICT|INTERRES
    91   44  169 1    
    92   45   46 2    
    93   45   47 1    
    94   47   48 1    
    95   47   49 1    
    96   47  170 1    
    97   48  171 1    
    98   48  172 1    
    99   48  173 1    
   100   49   50 am   BACKBONE|DICT|INTERRES
   101   49  174 1    
   102   50   51 2    
   103   50   52 1    
   104   52   53 1    
   105   52   54 1    
   106   52  175 1    
   107   53  176 1    
   108   53  177 1    
   109   53  178 1    
   110   54   55 am   BACKBONE|DICT|INTERRES
   111   54  179 1    
   112   55   56 2    
   113   55   57 1    
   114   57   58 1    
   115   57   59 1    
   116   57  180 1    
   117   58  181 1    
   118   58  182 1    
   119   58  183 1    
   120   59   60 am   BACKBONE|DICT|INTERRES
   121   59  184 1    
   122   60   61 2    
   123   60   62 1    
   124   62   63 1    
   125   62   64 1    
   126   62  185 1    
   127   63  186 1    
   128   63  187 1    
   129   63  188 1    
   130   64   65 am   BACKBONE|DICT|INTERRES
   131   64  189 1    
   132   65   66 2    
   133   67   68 2    
   134   67   69 am   BACKBONE|DICT|INTERRES
   135   69   70 1    
   136   69  190 1    
   137   70   71 1    
   138   70   72 1    
   139   70  191 1    
   140   71  192 1    
   141   71  193 1    
   142   71  194 1    
   143   72   73 2    
   144   72   74 am   BACKBONE|DICT|INTERRES
   145   74   75 1    
   146   74  195 1    
   147   75   76 1    
   148   75   77 1    
   149   75  196 1    
   150   76  197 1    
   151   76  198 1    
   152   76  199 1    
   153   77   78 2    
   154   77   79 am   BACKBONE|DICT|INTERRES
   155   79   80 1    
   156   79  200 1    
   157   80   81 1    
   158   80   82 1    
   159   80  201 1    
   160   81  202 1    
   161   81  203 1    
   162   81  204 1    
   163   82   83 2    
   164   82   84 am   BACKBONE|DICT|INTERRES
   165   84   85 1    
   166   84  205 1    
   167   85   86 1    
   168   85   87 1    
   169   85  206 1    
   170   86  207 1    
   171   86  208 1    
   172   86  209 1    
   173   87   88 2    
   174   87   89 am   BACKBONE|DICT|INTERRES
   175   89   90 1    
   176   89  210 1    
   177   90   91 1    
   178   90   92 1    
   179   90  211 1    
   180   91  212 1    
   181   91  213 1    
   182   91  214 1    
   183   92   93 2    
   184   92   94 am   BACKBONE|DICT|INTERRES
   185   94   95 1    
   186   94  215 1    
   187   95   96 1    
   188   95   97 1    
   189   95  216 1    
   190   96  217 1    
   191   96  218 1    
   192   96  219 1    
   193   97   98 2    
   194   97   99 am   BACKBONE|DICT|INTERRES
   195   99  100 1    
   196   99  220 1    
   197  100  101 1    
   198  100  102 1    
   199  100  221 1    
   200  101  222 1    
   201  101  223 1    
   202  101  224 1    
   203  102  103 2    
   204  102  104 am   BACKBONE|DICT|INTERRES
   205  104  105 1    
   206  104  225 1    
   207  105  106 1    
   208  105  107 1    
   209  105  226 1    
   210  106  227 1    
   211  106  228 1    
   212  106  229 1    
   213  107  108 2    
   214  107  109 am   BACKBONE|DICT|INTERRES
   215  109  110 1    
   216  109  230 1    
   217  110  111 1    
   218  110  112 1    
   219  110  231 1    
   220  111  232 1    
   221  111  233 1    
   222  111  234 1    
   223  112  113 2    
   224  112  114 am   BACKBONE|DICT|INTERRES
   225  114  115 1    
   226  114  235 1    
   227  115  116 1    
   228  115  117 1    
   229  115  236 1    
   230  116  237 1    
   231  116  238 1    
   232  116  239 1    
   233  117  118 2    
   234  117  119 am   BACKBONE|DICT|INTERRES
   235  119  120 1    
   236  119  240 1    
   237  120  121 1    
   238  120  124 1    
   239  120  241 1    
   240  121  122 am   BACKBONE|DICT|INTERRES
   241  121  123 2    
   242  122  242 1    
   243  122  243 1    
   244  124  125 1    
   245  124  244 1    
   246  124  245 1    
   247  125  126 1    
   248  126  246 1    
   249  126  247 1    
@<TRIPOS>SUBSTRUCTURE
     1 UNK         1 GROUP             0       ****    0 ROOT    
