@<TRIPOS>MOLECULE
3R540
247   249    1
SMALL
USER_CHARGES


@<TRIPOS>ATOM
      1 CA         -1.0264  -14.0259  -52.2303 C.3       0 UNK        -0.1800 
      2 C          -0.4431  -13.3078  -51.0250 C.2       0 UNK         0.5000 
      3 O          -0.2024  -12.1015  -51.0931 O.2       0 UNK        -0.5000 
      4 N          -0.2107  -14.0297  -49.9214 N.am      1 UNK        -0.5000 
      5 CA          0.4285  -13.5109  -48.7025 C.3       1 UNK         0.1400 
      6 C6          1.1846  -14.5986  -47.8915 C.3       23 UNK        -0.0398 
      7 S7          2.2992  -15.6235  -48.9103 S.3       23 UNK        -0.2404 
      8 C8          1.3469  -17.1675  -48.8674 C.3       23 UNK        -0.0205 
      9 C9          1.7606  -18.1686  -49.9293 C.ar      23 UNK        -0.0193 
     10 C10         1.6054  -17.8716  -51.2869 C.ar      23 UNK        -0.1150 
     11 C11         1.9022  -18.8322  -52.2578 C.ar      23 UNK        -0.0193 
     12 C12         2.3240  -20.1052  -51.8599 C.ar      23 UNK        -0.1150 
     13 C13         2.4701  -20.4157  -50.5047 C.ar      23 UNK        -0.0193 
     14 C14         2.2126  -19.4329  -49.5463 C.ar      23 UNK        -0.1150 
     15 C15         2.8887  -21.8148  -50.0759 C.3       23 UNK        -0.0205 
     16 S16         1.4433  -22.8751  -49.7393 S.3       23 UNK        -0.2404 
     17 C17         0.8556  -22.2127  -48.1410 C.3       23 UNK        -0.0398 
     18 CA          0.4201  -23.3053  -47.1413 C.3       11 UNK         0.1400 
     19 N           0.3774  -22.7859  -45.7717 N.am      11 UNK        -0.5000 
     20 C           0.2592  -23.5470  -44.6758 C.2       10 UNK         0.5000 
     21 O           0.1878  -24.7749  -44.7028 O.2       10 UNK        -0.5000 
     22 CA          0.1615  -22.8133  -43.3270 C.3       10 UNK         0.1400 
     23 CB          1.5430  -22.3190  -42.8731 C.3       10 UNK        -0.1800 
     24 N          -0.7805  -21.6938  -43.3614 N.am      10 UNK        -0.5000 
     25 C          -2.0969  -21.8213  -43.5838 C.2       9 UNK         0.5000 
     26 O          -2.6601  -22.9031  -43.7491 O.2       9 UNK        -0.5000 
     27 CA         -2.9180  -20.5229  -43.6833 C.3       9 UNK         0.1400 
     28 CB         -3.2302  -19.9653  -42.2868 C.3       9 UNK        -0.1800 
     29 N          -2.2616  -19.4924  -44.4879 N.am      9 UNK        -0.5000 
     30 C          -1.9373  -19.6237  -45.7817 C.2       8 UNK         0.5000 
     31 O          -2.1738  -20.6271  -46.4506 O.2       8 UNK        -0.5000 
     32 CA         -1.1544  -18.4656  -46.4194 C.3       8 UNK         0.1400 
     33 CB         -2.0762  -17.2828  -46.7528 C.3       8 UNK        -0.1800 
     34 N          -0.0488  -18.0284  -45.5688 N.am      8 UNK        -0.5000 
     35 C           1.0062  -18.7964  -45.2566 C.2       7 UNK         0.5000 
     36 O           1.1921  -19.9259  -45.7107 O.2       7 UNK        -0.5000 
     37 CA          1.9960  -18.2162  -44.2354 C.3       7 UNK         0.1400 
     38 CB          3.0160  -17.3018  -44.9316 C.3       7 UNK        -0.1800 
     39 N           1.3043  -17.4817  -43.1745 N.am      7 UNK        -0.5000 
     40 C           0.5750  -18.0688  -42.2126 C.2       6 UNK         0.5000 
     41 O           0.4455  -19.2883  -42.1076 O.2       6 UNK        -0.5000 
     42 CA         -0.1709  -17.1462  -41.2280 C.3       6 UNK         0.1400 
     43 CB          0.7390  -16.7672  -40.0505 C.3       6 UNK        -0.1800 
     44 N          -0.6796  -15.9268  -41.8565 N.am      6 UNK        -0.5000 
     45 C          -1.5897  -15.8981  -42.8397 C.2       5 UNK         0.5000 
     46 O          -2.1624  -16.9023  -43.2607 O.2       5 UNK        -0.5000 
     47 CA         -1.8747  -14.5348  -43.5014 C.3       5 UNK         0.1400 
     48 CB         -3.1597  -13.9177  -42.9311 C.3       5 UNK        -0.1800 
     49 N          -0.7864  -13.5561  -43.3984 N.am      5 UNK        -0.5000 
     50 C           0.4641  -13.7314  -43.8478 C.2       4 UNK         0.5000 
     51 O           0.8786  -14.7898  -44.3242 O.2       4 UNK        -0.5000 
     52 CA          1.3754  -12.5002  -43.7730 C.3       4 UNK         0.1400 
     53 CB          2.8244  -12.7882  -44.2114 C.3       4 UNK        -0.1800 
     54 N           0.8052  -11.4416  -44.6031 N.am      4 UNK        -0.5000 
     55 C           0.9098  -10.1294  -44.3542 C.2       3 UNK         0.5000 
     56 O           1.4606   -9.6774  -43.3492 O.2       3 UNK        -0.5000 
     57 CA          0.3346   -9.1437  -45.3942 C.3       3 UNK         0.1400 
     58 CB          1.4596   -8.2920  -46.0058 C.3       3 UNK        -0.1800 
     59 N          -0.3845   -9.8026  -46.4853 N.am      3 UNK        -0.5000 
     60 C          -1.6848  -10.1234  -46.4723 C.2       2 UNK         0.5000 
     61 O          -2.4426   -9.8739  -45.5347 O.2       2 UNK        -0.5000 
     62 CA         -2.2208  -10.8731  -47.7104 C.3       2 UNK         0.1400 
     63 CB         -2.8147   -9.8861  -48.7263 C.3       2 UNK        -0.1800 
     64 N          -1.2132  -11.7014  -48.3825 N.am      2 UNK        -0.5000 
     65 C          -0.5890  -12.7471  -47.8265 C.2       1 UNK         0.5000 
     66 O          -0.7982  -13.1036  -46.6683 O.2       1 UNK        -0.5000 
     67 C          -0.9116  -23.9742  -47.5447 C.2       11 UNK         0.5000 
     68 O          -0.8924  -25.0539  -48.1362 O.2       11 UNK        -0.5000 
     69 N          -2.0439  -23.3630  -47.1692 N.am      12 UNK        -0.5000 
     70 CA         -3.3833  -23.9145  -47.3710 C.3       12 UNK         0.1400 
     71 CB         -4.4418  -22.8649  -47.0033 C.3       12 UNK        -0.1800 
     72 C          -3.6161  -25.2241  -46.5982 C.2       12 UNK         0.5000 
     73 O          -4.2289  -26.1407  -47.1419 O.2       12 UNK        -0.5000 
     74 N          -3.0998  -25.3135  -45.3661 N.am      13 UNK        -0.5000 
     75 CA         -3.1371  -26.5309  -44.5569 C.3       13 UNK         0.1400 
     76 CB         -2.7491  -26.1984  -43.1079 C.3       13 UNK        -0.1800 
     77 C          -2.2380  -27.6467  -45.1233 C.2       13 UNK         0.5000 
     78 O          -2.6551  -28.8052  -45.1513 O.2       13 UNK        -0.5000 
     79 N          -1.0227  -27.2817  -45.5519 N.am      14 UNK        -0.5000 
     80 CA         -0.0036  -28.2132  -46.0297 C.3       14 UNK         0.1400 
     81 CB          1.3763  -27.5404  -45.9506 C.3       14 UNK        -0.1800 
     82 C          -0.2618  -28.7385  -47.4525 C.2       14 UNK         0.5000 
     83 O          -0.1778  -29.9480  -47.6715 O.2       14 UNK        -0.5000 
     84 N          -0.5218  -27.8265  -48.3976 N.am      15 UNK        -0.5000 
     85 CA         -0.5084  -28.1050  -49.8363 C.3       15 UNK         0.1400 
     86 CB          0.4382  -27.0964  -50.5119 C.3       15 UNK        -0.1800 
     87 C          -1.8993  -28.0456  -50.4902 C.2       15 UNK         0.5000 
     88 O          -2.0020  -28.3519  -51.6787 O.2       15 UNK        -0.5000 
     89 N          -2.9325  -27.6328  -49.7380 N.am      16 UNK        -0.5000 
     90 CA         -4.3113  -27.3938  -50.1985 C.3       16 UNK         0.1400 
     91 CB         -4.9670  -28.6950  -50.7088 C.3       16 UNK        -0.1800 
     92 C          -4.4281  -26.2269  -51.2066 C.2       16 UNK         0.5000 
     93 O          -5.3937  -26.1659  -51.9702 O.2       16 UNK        -0.5000 
     94 N          -3.4398  -25.3231  -51.1972 N.am      17 UNK        -0.5000 
     95 CA         -3.3540  -24.1586  -52.0725 C.3       17 UNK         0.1400 
     96 CB         -1.9030  -23.6498  -52.0559 C.3       17 UNK        -0.1800 
     97 C          -4.3073  -23.0380  -51.6265 C.2       17 UNK         0.5000 
     98 O          -4.5031  -22.8383  -50.4266 O.2       17 UNK        -0.5000 
     99 N          -4.8035  -22.2512  -52.5891 N.am      18 UNK        -0.5000 
    100 CA        -5.5641  -21.0163  -52.3594 C.3       18 UNK         0.1400 
    101 CB        -6.4769  -20.7610  -53.5720 C.3       18 UNK        -0.1800 
    102 C         -4.6173  -19.8285  -52.0759 C.2       18 UNK         0.5000 
    103 O         -4.7520  -18.7619  -52.6778 O.2       18 UNK        -0.5000 
    104 N         -3.6439  -20.0531  -51.1855 N.am      19 UNK        -0.5000 
    105 CA        -2.4496  -19.2400  -50.9434 C.3       19 UNK         0.1400 
    106 CB        -1.5476  -20.0116  -49.9754 C.3       19 UNK        -0.1800 
    107 C         -2.6926  -17.8029  -50.4436 C.2       19 UNK         0.5000 
    108 O         -1.7682  -16.9915  -50.4757 O.2       19 UNK        -0.5000 
    109 N         -3.9225  -17.4936  -50.0137 N.am      20 UNK        -0.5000 
    110 CA        -4.3633  -16.1342  -49.6927 C.3       20 UNK         0.1400 
    111 CB        -5.7248  -16.2023  -48.9861 C.3       20 UNK        -0.1800 
    112 C         -4.4362  -15.2208  -50.9348 C.2       20 UNK         0.5000 
    113 O         -4.2800  -14.0074  -50.7975 O.2       20 UNK        -0.5000 
    114 N         -4.6518  -15.8210  -52.1136 N.am      21 UNK        -0.5000 
    115 CA        -4.6143  -15.1617  -53.4184 C.3       21 UNK         0.1400 
    116 CB        -5.9598  -15.3743  -54.1302 C.3       21 UNK        -0.1800 
    117 C         -3.4592  -15.7154  -54.2696 C.2       21 UNK         0.5000 
    118 O         -2.7600  -14.9400  -54.9212 O.2       21 UNK        -0.5000 
    119 N         -3.2734  -17.0420  -54.2332 N.am      22 UNK        -0.5000 
    120 CA        -2.2387  -17.8098  -54.9420 C.3       22 UNK         0.1400 
    121 C         -2.3051  -17.7187  -56.5008 C.2       22 UNK         0.5000 
    122 N         -3.4669  -17.4540  -57.0867 N.am      22 UNK        -0.7600 
    123 O         -1.3100  -17.9056  -57.1955 O.2       22 UNK        -0.5000 
    124 C124       -0.8218  -17.5779  -54.3431 C.3       23 UNK        -0.0398 
    125 S125        0.2047  -19.0850  -54.4310 S.3       23 UNK        -0.2404 
    126 C126        1.7804  -18.5018  -53.7369 C.3       23 UNK        -0.0205 
    127 H127       -2.0089  -13.6174  -52.4636 H         1 UNK         0.0600 
    128 H128       -1.1310  -15.0954  -52.0594 H         1 UNK         0.0600 
    129 H129       -0.3846  -13.8862  -53.1001 H         1 UNK         0.0600 
    130 H130       -0.4637  -15.0094  -49.9119 H         1 UNK         0.3000 
    131 H131        1.1814  -12.7795  -49.0044 H         1 UNK         0.0600 
    132 H132        1.7901  -14.1272  -47.1166 H         1 UNK         0.0800 
    133 H133        0.4871  -15.2440  -47.3554 H         1 UNK         0.0800 
    134 H134        0.2881  -16.9519  -48.9969 H         1 UNK         0.0800 
    135 H135        1.4541  -17.5990  -47.8736 H         1 UNK         0.0800 
    136 H136        1.2461  -16.8960  -51.5832 H         1 UNK         0.1150 
    137 H137        2.5301  -20.8580  -52.6079 H         1 UNK         0.1150 
    138 H138        2.3239  -19.6625  -48.4966 H         1 UNK         0.1150 
    139 H139        3.4852  -22.2787  -50.8628 H         1 UNK         0.0800 
    140 H140        3.5334  -21.7686  -49.1970 H         1 UNK         0.0800 
    141 H141        0.0586  -21.4887  -48.3074 H         1 UNK         0.0800 
    142 H142        1.6773  -21.6545  -47.6944 H         1 UNK         0.0800 
    143 H143        1.1847  -24.0854  -47.1515 H         1 UNK         0.0600 
    144 H144        0.4509  -21.7785  -45.6653 H         1 UNK         0.3000 
    145 H145       -0.2009  -23.5299  -42.5870 H         1 UNK         0.0600 
    146 H146        1.4967  -21.8860  -41.8738 H         1 UNK         0.0600 
    147 H147        2.2601  -23.1401  -42.8383 H         1 UNK         0.0600 
    148 H148        1.9425  -21.5611  -43.5474 H         1 UNK         0.0600 
    149 H149       -0.3973  -20.7710  -43.1835 H         1 UNK         0.3000 
    150 H150       -3.8641  -20.7665  -44.1706 H         1 UNK         0.0600 
    151 H151       -3.7479  -20.7067  -41.6770 H         1 UNK         0.0600 
    152 H152       -3.8731  -19.0870  -42.3480 H         1 UNK         0.0600 
    153 H153       -2.3226  -19.6782  -41.7557 H         1 UNK         0.0600 
    154 H154       -2.0664  -18.6093  -44.0224 H         1 UNK         0.3000 
    155 H155       -0.7296  -18.8349  -47.3540 H         1 UNK         0.0600 
    156 H156       -2.4816  -16.8136  -45.8578 H         1 UNK         0.0600 
    157 H157       -1.5536  -16.5176  -47.3256 H         1 UNK         0.0600 
    158 H158       -2.9240  -17.6138  -47.3522 H         1 UNK         0.0600 
    159 H159       -0.1299  -17.1215  -45.1310 H         1 UNK         0.3000 
    160 H160        2.5397  -19.0473  -43.7813 H         1 UNK         0.0600 
    161 H161        3.5966  -17.8596  -45.6674 H         1 UNK         0.0600 
    162 H162        2.5339  -16.4780  -45.4587 H         1 UNK         0.0600 
    163 H163        3.7193  -16.8761  -44.2159 H         1 UNK         0.0600 
    164 H164        1.2996  -16.4707  -43.2562 H         1 UNK         0.3000 
    165 H165       -1.0250  -17.7017  -40.8354 H         1 UNK         0.0600 
    166 H166        0.1986  -16.1815  -39.3067 H         1 UNK         0.0600 
    167 H167        1.1179  -17.6583  -39.5482 H         1 UNK         0.0600 
    168 H168        1.6002  -16.1835  -40.3781 H         1 UNK         0.0600 
    169 H169       -0.2584  -15.0555  -41.5711 H         1 UNK         0.3000 
    170 H170       -2.0329  -14.7239  -44.5650 H         1 UNK         0.0600 
    171 H171       -3.9987  -14.6094  -43.0193 H         1 UNK         0.0600 
    172 H172       -3.0504  -13.6659  -41.8756 H         1 UNK         0.0600 
    173 H173       -3.4325  -13.0090  -43.4684 H         1 UNK         0.0600 
    174 H174       -1.0397  -12.6467  -43.0404 H         1 UNK         0.3000 
    175 H175        1.3900  -12.1871  -42.7270 H         1 UNK         0.0600 
    176 H176        2.8782  -13.0791  -45.2603 H         1 UNK         0.0600 
    177 H177        3.4584  -11.9120  -44.0757 H         1 UNK         0.0600 
    178 H178        3.2587  -13.5969  -43.6223 H         1 UNK         0.0600 
    179 H179        0.2727  -11.7579  -45.4061 H         1 UNK         0.3000 
    180 H180       -0.3462   -8.4740  -44.8646 H         1 UNK         0.0600 
    181 H181        2.1874   -8.9074  -46.5362 H         1 UNK         0.0600 
    182 H182        1.9976   -7.7384  -45.2352 H         1 UNK         0.0600 
    183 H183        1.0620   -7.5600  -46.7091 H         1 UNK         0.0600 
    184 H184        0.1575  -10.0451  -47.3017 H         1 UNK         0.3000 
    185 H185       -3.0199  -11.5349  -47.3698 H         1 UNK         0.0600 
    186 H186       -3.2742  -10.4121  -49.5636 H         1 UNK         0.0600 
    187 H187       -3.5882   -9.2693  -48.2668 H         1 UNK         0.0600 
    188 H188       -2.0538   -9.2156  -49.1275 H         1 UNK         0.0600 
    189 H189       -1.0040  -11.4888  -49.3530 H         1 UNK         0.3000 
    190 H190       -1.9954  -22.4492  -46.7240 H         1 UNK         0.3000 
    191 H191       -3.4862  -24.1448  -48.4319 H         1 UNK         0.0600 
    192 H192       -4.3668  -22.5653  -45.9579 H         1 UNK         0.0600 
    193 H193       -5.4482  -23.2521  -47.1664 H         1 UNK         0.0600 
    194 H194       -4.3361  -21.9707  -47.6180 H         1 UNK         0.0600 
    195 H195       -2.6626  -24.4966  -44.9508 H         1 UNK         0.3000 
    196 H196       -4.1639  -26.9027  -44.5512 H         1 UNK         0.0600 
    197 H197       -2.7825  -27.0894  -42.4798 H         1 UNK         0.0600 
    198 H198       -3.4343  -25.4692  -42.6752 H         1 UNK         0.0600 
    199 H199       -1.7414  -25.7874  -43.0429 H         1 UNK         0.0600 
    200 H200       -0.7366  -26.3126  -45.4431 H         1 UNK         0.3000 
    201 H201        0.0119  -29.0745  -45.3582 H         1 UNK         0.0600 
    202 H202        1.6170  -27.2568  -44.9259 H         1 UNK         0.0600 
    203 H203        1.4219  -26.6402  -46.5648 H         1 UNK         0.0600 
    204 H204        2.1620  -28.2142  -46.2945 H         1 UNK         0.0600 
    205 H205       -0.6021  -26.8439  -48.1393 H         1 UNK         0.3000 
    206 H206       -0.1148  -29.1053  -50.0276 H         1 UNK         0.0600 
    207 H207        1.4356  -27.1366  -50.0737 H         1 UNK         0.0600 
    208 H208        0.5446  -27.3086  -51.5764 H         1 UNK         0.0600 
    209 H209        0.0741  -26.0726  -50.4188 H         1 UNK         0.0600 
    210 H210       -2.7518  -27.4052  -48.7692 H         1 UNK         0.3000 
    211 H211       -4.8852  -27.0831  -49.3282 H         1 UNK         0.0600 
    212 H212       -4.5362  -29.0285  -51.6530 H         1 UNK         0.0600 
    213 H213       -6.0357  -28.5535  -50.8740 H         1 UNK         0.0600 
    214 H214       -4.8573  -29.5021  -49.9845 H         1 UNK         0.0600 
    215 H215       -2.7033  -25.4302  -50.5158 H         1 UNK         0.3000 
    216 H216       -3.6105  -24.4623  -53.0896 H         1 UNK         0.0600 
    217 H217       -1.7834  -22.7733  -52.6944 H         1 UNK         0.0600 
    218 H218       -1.2133  -24.4121  -52.4189 H         1 UNK         0.0600 
    219 H219       -1.5868  -23.3680  -51.0501 H         1 UNK         0.0600 
    220 H220       -4.5664  -22.4507  -53.5504 H         1 UNK         0.3000 
    221 H221       -6.2013  -21.1407  -51.4814 H         1 UNK         0.0600 
    222 H222       -5.9005  -20.6011  -54.4841 H         1 UNK         0.0600 
    223 H223       -7.1494  -21.6019  -53.7428 H         1 UNK         0.0600 
    224 H224       -7.0980  -19.8778  -53.4163 H         1 UNK         0.0600 
    225 H225       -3.6694  -20.9489  -50.7115 H         1 UNK         0.3000 
    226 H226       -1.9201  -19.1489  -51.8934 H         1 UNK         0.0600 
    227 H227       -1.1944  -20.9400  -50.4241 H         1 UNK         0.0600 
    228 H228       -0.6672  -19.4313  -49.7074 H         1 UNK         0.0600 
    229 H229       -2.0738  -20.2614  -49.0547 H         1 UNK         0.0600 
    230 H230       -4.6255  -18.2174  -50.0148 H         1 UNK         0.3000 
    231 H231       -3.6405  -15.6931  -49.0028 H         1 UNK         0.0600 
    232 H232       -6.0716  -15.2054  -48.7109 H         1 UNK         0.0600 
    233 H233       -5.6637  -16.7888  -48.0691 H         1 UNK         0.0600 
    234 H234       -6.4873  -16.6514  -49.6238 H         1 UNK         0.0600 
    235 H235       -4.7546  -16.8297  -52.1253 H         1 UNK         0.3000 
    236 H236       -4.4548  -14.0875  -53.3045 H         1 UNK         0.0600 
    237 H237       -6.7769  -14.9292  -53.5624 H         1 UNK         0.0600 
    238 H238       -5.9582  -14.9095  -55.1170 H         1 UNK         0.0600 
    239 H239       -6.1847  -16.4334  -54.2634 H         1 UNK         0.0600 
    240 H240       -3.9168  -17.6118  -53.6873 H         1 UNK         0.3000 
    241 H241       -2.5112  -18.8444  -54.7296 H         1 UNK         0.0600 
    242 H242       -3.5135  -17.3989  -58.0921 H         1 UNK         0.3800 
    243 H243       -4.2972  -17.3026  -56.5370 H         1 UNK         0.3800 
    244 H244       -0.3174  -16.7472  -54.8394 H         1 UNK         0.0800 
    245 H245       -0.8938  -17.3019  -53.2901 H         1 UNK         0.0800 
    246 H246        2.5972  -18.9795  -54.2800 H         1 UNK         0.0800 
    247 H247        1.8957  -17.4298  -53.9044 H         1 UNK         0.0800 
@<TRIPOS>BOND
     1    1    2 1    
     2    1  127 1    
     3    1  128 1    
     4    1  129 1    
     5    2    3 2    
     6    2    4 am   BACKBONE|DICT|INTERRES
     7    4    5 1    
     8    4  130 1    
     9    5    6 1    
    10    5   65 1    
    11    5  131 1    
    12    6    7 1    
    13    6  132 1    
    14    6  133 1    
    15    7    8 1    
    16    8    9 1    
    17    8  134 1    
    18    8  135 1    
    19    9   10 ar   
    20    9   14 ar   
    21   10   11 ar   
    22   10  136 1    
    23   11   12 ar   
    24   11  126 1    
    25   12   13 ar   
    26   12  137 1    
    27   13   14 ar   
    28   13   15 1    
    29   14  138 1    
    30   15   16 1    
    31   15  139 1    
    32   15  140 1    
    33   16   17 1    
    34   17   18 1    
    35   17  141 1    
    36   17  142 1    
    37   18   19 1    
    38   18   67 1    
    39   18  143 1    
    40   19   20 am   BACKBONE|DICT|INTERRES
    41   19  144 1    
    42   20   21 2    
    43   20   22 1    
    44   22   23 1    
    45   22   24 1    
    46   22  145 1    
    47   23  146 1    
    48   23  147 1    
    49   23  148 1    
    50   24   25 am   BACKBONE|DICT|INTERRES
    51   24  149 1    
    52   25   26 2    
    53   25   27 1    
    54   27   28 1    
    55   27   29 1    
    56   27  150 1    
    57   28  151 1    
    58   28  152 1    
    59   28  153 1    
    60   29   30 am   BACKBONE|DICT|INTERRES
    61   29  154 1    
    62   30   31 2    
    63   30   32 1    
    64   32   33 1    
    65   32   34 1    
    66   32  155 1    
    67   33  156 1    
    68   33  157 1    
    69   33  158 1    
    70   34   35 am   BACKBONE|DICT|INTERRES
    71   34  159 1    
    72   35   36 2    
    73   35   37 1    
    74   37   38 1    
    75   37   39 1    
    76   37  160 1    
    77   38  161 1    
    78   38  162 1    
    79   38  163 1    
    80   39   40 am   BACKBONE|DICT|INTERRES
    81   39  164 1    
    82   40   41 2    
    83   40   42 1    
    84   42   43 1    
    85   42   44 1    
    86   42  165 1    
    87   43  166 1    
    88   43  167 1    
    89   43  168 1    
    90   44   45 am   BACKBONE|DICT|INTERRES
    91   44  169 1    
    92   45   46 2    
    93   45   47 1    
    94   47   48 1    
    95   47   49 1    
    96   47  170 1    
    97   48  171 1    
    98   48  172 1    
    99   48  173 1    
   100   49   50 am   BACKBONE|DICT|INTERRES
   101   49  174 1    
   102   50   51 2    
   103   50   52 1    
   104   52   53 1    
   105   52   54 1    
   106   52  175 1    
   107   53  176 1    
   108   53  177 1    
   109   53  178 1    
   110   54   55 am   BACKBONE|DICT|INTERRES
   111   54  179 1    
   112   55   56 2    
   113   55   57 1    
   114   57   58 1    
   115   57   59 1    
   116   57  180 1    
   117   58  181 1    
   118   58  182 1    
   119   58  183 1    
   120   59   60 am   BACKBONE|DICT|INTERRES
   121   59  184 1    
   122   60   61 2    
   123   60   62 1    
   124   62   63 1    
   125   62   64 1    
   126   62  185 1    
   127   63  186 1    
   128   63  187 1    
   129   63  188 1    
   130   64   65 am   BACKBONE|DICT|INTERRES
   131   64  189 1    
   132   65   66 2    
   133   67   68 2    
   134   67   69 am   BACKBONE|DICT|INTERRES
   135   69   70 1    
   136   69  190 1    
   137   70   71 1    
   138   70   72 1    
   139   70  191 1    
   140   71  192 1    
   141   71  193 1    
   142   71  194 1    
   143   72   73 2    
   144   72   74 am   BACKBONE|DICT|INTERRES
   145   74   75 1    
   146   74  195 1    
   147   75   76 1    
   148   75   77 1    
   149   75  196 1    
   150   76  197 1    
   151   76  198 1    
   152   76  199 1    
   153   77   78 2    
   154   77   79 am   BACKBONE|DICT|INTERRES
   155   79   80 1    
   156   79  200 1    
   157   80   81 1    
   158   80   82 1    
   159   80  201 1    
   160   81  202 1    
   161   81  203 1    
   162   81  204 1    
   163   82   83 2    
   164   82   84 am   BACKBONE|DICT|INTERRES
   165   84   85 1    
   166   84  205 1    
   167   85   86 1    
   168   85   87 1    
   169   85  206 1    
   170   86  207 1    
   171   86  208 1    
   172   86  209 1    
   173   87   88 2    
   174   87   89 am   BACKBONE|DICT|INTERRES
   175   89   90 1    
   176   89  210 1    
   177   90   91 1    
   178   90   92 1    
   179   90  211 1    
   180   91  212 1    
   181   91  213 1    
   182   91  214 1    
   183   92   93 2    
   184   92   94 am   BACKBONE|DICT|INTERRES
   185   94   95 1    
   186   94  215 1    
   187   95   96 1    
   188   95   97 1    
   189   95  216 1    
   190   96  217 1    
   191   96  218 1    
   192   96  219 1    
   193   97   98 2    
   194   97   99 am   BACKBONE|DICT|INTERRES
   195   99  100 1    
   196   99  220 1    
   197  100  101 1    
   198  100  102 1    
   199  100  221 1    
   200  101  222 1    
   201  101  223 1    
   202  101  224 1    
   203  102  103 2    
   204  102  104 am   BACKBONE|DICT|INTERRES
   205  104  105 1    
   206  104  225 1    
   207  105  106 1    
   208  105  107 1    
   209  105  226 1    
   210  106  227 1    
   211  106  228 1    
   212  106  229 1    
   213  107  108 2    
   214  107  109 am   BACKBONE|DICT|INTERRES
   215  109  110 1    
   216  109  230 1    
   217  110  111 1    
   218  110  112 1    
   219  110  231 1    
   220  111  232 1    
   221  111  233 1    
   222  111  234 1    
   223  112  113 2    
   224  112  114 am   BACKBONE|DICT|INTERRES
   225  114  115 1    
   226  114  235 1    
   227  115  116 1    
   228  115  117 1    
   229  115  236 1    
   230  116  237 1    
   231  116  238 1    
   232  116  239 1    
   233  117  118 2    
   234  117  119 am   BACKBONE|DICT|INTERRES
   235  119  120 1    
   236  119  240 1    
   237  120  121 1    
   238  120  124 1    
   239  120  241 1    
   240  121  122 am   BACKBONE|DICT|INTERRES
   241  121  123 2    
   242  122  242 1    
   243  122  243 1    
   244  124  125 1    
   245  124  244 1    
   246  124  245 1    
   247  125  126 1    
   248  126  246 1    
   249  126  247 1    
@<TRIPOS>SUBSTRUCTURE
     1 UNK         1 GROUP             0       ****    0 ROOT    
