@<TRIPOS>MOLECULE
3R540
247   249    1
SMALL
USER_CHARGES


@<TRIPOS>ATOM
      1 CA         -0.6862   -8.8526  -49.7875 C.3       0 UNK        -0.1800 
      2 C           0.2319  -10.0233  -49.4659 C.2       0 UNK         0.5000 
      3 O           1.4211   -9.9745  -49.7803 O.2       0 UNK        -0.5000 
      4 N          -0.3139  -11.0733  -48.8391 N.am      1 UNK        -0.5000 
      5 CA          0.4073  -12.3015  -48.4742 C.3       1 UNK         0.1400 
      6 C6         -0.5536  -13.4638  -48.1173 C.3       23 UNK        -0.0398 
      7 S7         -1.8358  -13.7995  -49.3651 S.3       23 UNK        -0.2404 
      8 C8         -2.4434  -15.4056  -48.7621 C.3       23 UNK        -0.0205 
      9 C9         -2.0536  -16.5305  -49.7052 C.ar      23 UNK        -0.0193 
     10 C10        -2.9472  -16.9429  -50.6958 C.ar      23 UNK        -0.1150 
     11 C11        -2.5992  -17.9563  -51.5918 C.ar      23 UNK        -0.0193 
     12 C12        -1.3410  -18.5561  -51.4927 C.ar      23 UNK        -0.1150 
     13 C13        -0.4294  -18.1417  -50.5159 C.ar      23 UNK        -0.0193 
     14 C14        -0.7982  -17.1391  -49.6123 C.ar      23 UNK        -0.1150 
     15 C15         0.9788  -18.7209  -50.4925 C.3       23 UNK        -0.0205 
     16 S16         1.0411  -20.4201  -49.8485 S.3       23 UNK        -0.2404 
     17 C17         0.7796  -20.1504  -48.0637 C.3       23 UNK        -0.0398 
     18 CA         -0.2963  -21.0871  -47.4685 C.3       11 UNK         0.1400 
     19 N          -0.2100  -21.1553  -46.0073 N.am      11 UNK        -0.5000 
     20 C          -0.9075  -22.0036  -45.2385 C.2       10 UNK         0.5000 
     21 O          -1.6726  -22.8565  -45.6826 O.2       10 UNK        -0.5000 
     22 CA         -0.7732  -21.8420  -43.7155 C.3       10 UNK         0.1400 
     23 CB          0.5051  -22.5224  -43.2045 C.3       10 UNK        -0.1800 
     24 N          -0.7972  -20.4401  -43.2990 N.am      10 UNK        -0.5000 
     25 C          -1.8424  -19.6166  -43.4672 C.2       9 UNK         0.5000 
     26 O          -2.9215  -19.9725  -43.9418 O.2       9 UNK        -0.5000 
     27 CA         -1.6290  -18.1387  -43.0886 C.3       9 UNK         0.1400 
     28 CB         -1.7378  -17.9421  -41.5696 C.3       9 UNK        -0.1800 
     29 N          -0.3434  -17.6212  -43.5593 N.am      9 UNK        -0.5000 
     30 C           0.0113  -17.5263  -44.8491 C.2       8 UNK         0.5000 
     31 O          -0.7322  -17.8052  -45.7899 O.2       8 UNK        -0.5000 
     32 CA          1.4611  -17.1027  -45.1346 C.3       8 UNK         0.1400 
     33 CB          1.6192  -15.5799  -45.0541 C.3       8 UNK        -0.1800 
     34 N           2.4072  -17.7418  -44.2209 N.am      8 UNK        -0.5000 
     35 C           2.7076  -19.0473  -44.2407 C.2       7 UNK         0.5000 
     36 O           2.2342  -19.8437  -45.0503 O.2       7 UNK        -0.5000 
     37 CA          3.6674  -19.5526  -43.1486 C.3       7 UNK         0.1400 
     38 CB          5.1275  -19.2881  -43.5448 C.3       7 UNK        -0.1800 
     39 N           3.4009  -18.9496  -41.8418 N.am      7 UNK        -0.5000 
     40 C           2.2853  -19.1559  -41.1280 C.2       6 UNK         0.5000 
     41 O           1.3714  -19.8958  -41.4875 O.2       6 UNK        -0.5000 
     42 CA          2.1462  -18.3696  -39.8122 C.3       6 UNK         0.1400 
     43 CB          2.8067  -19.1332  -38.6549 C.3       6 UNK        -0.1800 
     44 N           2.6982  -17.0139  -39.8791 N.am      6 UNK        -0.5000 
     45 C           2.2606  -16.0547  -40.7047 C.2       5 UNK         0.5000 
     46 O           1.3822  -16.2285  -41.5539 O.2       5 UNK        -0.5000 
     47 CA          2.9549  -14.6876  -40.5919 C.3       5 UNK         0.1400 
     48 CB          3.9915  -14.5207  -41.7137 C.3       5 UNK        -0.1800 
     49 N           1.9741  -13.6092  -40.6741 N.am      5 UNK        -0.5000 
     50 C           1.1421  -13.2648  -39.6789 C.2       4 UNK         0.5000 
     51 O           1.2068  -13.7396  -38.5440 O.2       4 UNK        -0.5000 
     52 CA          0.0465  -12.2244  -39.9974 C.3       4 UNK         0.1400 
     53 CB          0.5125  -10.8136  -39.6068 C.3       4 UNK        -0.1800 
     54 N          -0.3377  -12.2241  -41.4085 N.am      4 UNK        -0.5000 
     55 C          -0.9671  -13.2317  -42.0268 C.2       3 UNK         0.5000 
     56 O          -1.4765  -14.1774  -41.4261 O.2       3 UNK        -0.5000 
     57 CA         -1.0304  -13.1982  -43.5695 C.3       3 UNK         0.1400 
     58 CB         -2.4861  -13.1004  -44.0538 C.3       3 UNK        -0.1800 
     59 N          -0.2465  -12.1443  -44.2304 N.am      3 UNK        -0.5000 
     60 C           1.0815  -11.9520  -44.1691 C.2       2 UNK         0.5000 
     61 O           1.8324  -12.5894  -43.4312 O.2       2 UNK        -0.5000 
     62 CA          1.6376  -10.8637  -45.1117 C.3       2 UNK         0.1400 
     63 CB          3.1760  -10.7440  -45.0765 C.3       2 UNK        -0.1800 
     64 N           1.1286  -11.0600  -46.4749 N.am      2 UNK        -0.5000 
     65 C           1.3720  -12.1042  -47.2850 C.2       1 UNK         0.5000 
     66 O           2.2579  -12.9370  -47.0953 O.2       1 UNK        -0.5000 
     67 C          -1.7178  -20.7247  -47.9483 C.2       11 UNK         0.5000 
     68 O          -2.2345  -21.3880  -48.8464 O.2       11 UNK        -0.5000 
     69 N          -2.3468  -19.7319  -47.3018 N.am      12 UNK        -0.5000 
     70 CA         -3.7264  -19.3184  -47.5661 C.3       12 UNK         0.1400 
     71 CB         -4.0570  -18.0733  -46.7291 C.3       12 UNK        -0.1800 
     72 C          -4.7531  -20.4327  -47.2864 C.2       12 UNK         0.5000 
     73 O          -5.7014  -20.5915  -48.0550 O.2       12 UNK        -0.5000 
     74 N          -4.5418  -21.1841  -46.1966 N.am      13 UNK        -0.5000 
     75 CA         -5.3678  -22.3256  -45.8062 C.3       13 UNK         0.1400 
     76 CB         -5.0566  -22.7052  -44.3501 C.3       13 UNK        -0.1800 
     77 C          -5.1867  -23.5363  -46.7412 C.2       13 UNK         0.5000 
     78 O          -6.1761  -24.1663  -47.1168 O.2       13 UNK        -0.5000 
     79 N          -3.9307  -23.8413  -47.0930 N.am      14 UNK        -0.5000 
     80 CA         -3.5494  -24.9426  -47.9768 C.3       14 UNK         0.1400 
     81 CB         -2.0350  -25.1684  -47.8661 C.3       14 UNK        -0.1800 
     82 C          -3.9517  -24.7104  -49.4431 C.2       14 UNK         0.5000 
     83 O          -4.3536  -25.6630  -50.1140 O.2       14 UNK        -0.5000 
     84 N          -3.8283  -23.4583  -49.9089 N.am      15 UNK        -0.5000 
     85 CA         -4.1233  -22.9738  -51.2576 C.3       15 UNK         0.1400 
     86 CB         -5.6488  -22.8792  -51.4688 C.3       15 UNK        -0.1800 
     87 C          -3.3872  -23.8068  -52.3241 C.2       15 UNK         0.5000 
     88 O          -2.1580  -23.7534  -52.3785 O.2       15 UNK        -0.5000 
     89 N          -4.1349  -24.5998  -53.1060 N.am      16 UNK        -0.5000 
     90 CA         -3.6480  -25.4703  -54.1803 C.3       16 UNK         0.1400 
     91 CB         -4.8486  -26.1993  -54.8050 C.3       16 UNK        -0.1800 
     92 C          -2.5871  -26.5008  -53.7436 C.2       16 UNK         0.5000 
     93 O          -1.7891  -26.9356  -54.5744 O.2       16 UNK        -0.5000 
     94 N          -2.5938  -26.8765  -52.4571 N.am      17 UNK        -0.5000 
     95 CA         -1.6176  -27.7882  -51.8632 C.3       17 UNK         0.1400 
     96 CB         -2.2282  -28.4202  -50.6025 C.3       17 UNK        -0.1800 
     97 C          -0.2625  -27.1201  -51.5483 C.2       17 UNK         0.5000 
     98 O           0.7057  -27.8432  -51.3089 O.2       17 UNK        -0.5000 
     99 N          -0.2046  -25.7799  -51.5418 N.am      18 UNK        -0.5000 
    100 CA         0.9994  -25.0026  -51.2412 C.3       18 UNK         0.1400 
    101 CB         0.7410  -24.1200  -50.0109 C.3       18 UNK        -0.1800 
    102 C          1.4550  -24.1458  -52.4331 C.2       18 UNK         0.5000 
    103 O          2.6563  -24.0849  -52.7003 O.2       18 UNK        -0.5000 
    104 N          0.5111  -23.4988  -53.1256 N.am      19 UNK        -0.5000 
    105 CA         0.7645  -22.5795  -54.2305 C.3       19 UNK         0.1400 
    106 CB         1.2257  -21.2102  -53.6829 C.3       19 UNK        -0.1800 
    107 C         -0.4764  -22.5212  -55.1404 C.2       19 UNK         0.5000 
    108 O         -0.9414  -23.5707  -55.5879 O.2       19 UNK        -0.5000 
    109 N         -0.9724  -21.3110  -55.4320 N.am      20 UNK        -0.5000 
    110 CA        -2.1423  -21.0598  -56.2738 C.3       20 UNK         0.1400 
    111 CB        -2.2147  -19.5578  -56.5893 C.3       20 UNK        -0.1800 
    112 C         -3.4497  -21.5312  -55.6130 C.2       20 UNK         0.5000 
    113 O         -3.5952  -21.4333  -54.3936 O.2       20 UNK        -0.5000 
    114 N         -4.3969  -21.9955  -56.4355 N.am      21 UNK        -0.5000 
    115 CA        -5.7006  -22.5192  -56.0244 C.3       21 UNK         0.1400 
    116 CB        -6.2328  -23.4357  -57.1411 C.3       21 UNK        -0.1800 
    117 C         -6.7003  -21.4076  -55.6374 C.2       21 UNK         0.5000 
    118 O         -7.7580  -21.2793  -56.2564 O.2       21 UNK        -0.5000 
    119 N         -6.3437  -20.6196  -54.6183 N.am      22 UNK        -0.5000 
    120 CA        -7.1583  -19.5332  -54.0500 C.3       22 UNK         0.1400 
    121 C         -8.3150  -19.9803  -53.1045 C.2       22 UNK         0.5000 
    122 N         -8.5112  -21.2667  -52.8431 N.am      22 UNK        -0.7600 
    123 O         -9.0692  -19.1428  -52.6163 O.2       22 UNK        -0.5000 
    124 C124       -6.2750  -18.4220  -53.4273 C.3       23 UNK        -0.0398 
    125 S125       -5.1388  -18.9863  -52.1062 S.3       23 UNK        -0.2404 
    126 C126       -3.5503  -18.3330  -52.7171 C.3       23 UNK        -0.0205 
    127 H127       -1.7079   -9.0346  -49.4533 H         1 UNK         0.0600 
    128 H128       -0.7070   -8.6769  -50.8631 H         1 UNK         0.0600 
    129 H129       -0.3250   -7.9472  -49.2999 H         1 UNK         0.0600 
    130 H130       -1.3039  -11.0718  -48.6373 H         1 UNK         0.3000 
    131 H131        1.0064  -12.6089  -49.3342 H         1 UNK         0.0600 
    132 H132        0.0199  -14.3816  -47.9718 H         1 UNK         0.0800 
    133 H133       -1.0628  -13.2678  -47.1717 H         1 UNK         0.0800 
    134 H134       -2.0575  -15.6094  -47.7624 H         1 UNK         0.0800 
    135 H135       -3.5289  -15.3570  -48.6627 H         1 UNK         0.0800 
    136 H136       -3.9113  -16.4618  -50.7838 H         1 UNK         0.1150 
    137 H137       -1.0583  -19.3233  -52.1975 H         1 UNK         0.1150 
    138 H138       -0.0992  -16.8077  -48.8576 H         1 UNK         0.1150 
    139 H139        1.3756  -18.7227  -51.5087 H         1 UNK         0.0800 
    140 H140        1.6505  -18.0881  -49.9104 H         1 UNK         0.0800 
    141 H141        1.7395  -20.3382  -47.5822 H         1 UNK         0.0800 
    142 H142        0.5423  -19.1057  -47.8601 H         1 UNK         0.0800 
    143 H143       -0.0873  -22.0972  -47.8274 H         1 UNK         0.0600 
    144 H144        0.4416  -20.5168  -45.5620 H         1 UNK         0.3000 
    145 H145       -1.6281  -22.3398  -43.2534 H         1 UNK         0.0600 
    146 H146        0.5580  -22.4932  -42.1162 H         1 UNK         0.0600 
    147 H147        0.5355  -23.5710  -43.5030 H         1 UNK         0.0600 
    148 H148        1.4024  -22.0429  -43.5960 H         1 UNK         0.0600 
    149 H149        0.0390  -20.0901  -42.8391 H         1 UNK         0.3000 
    150 H150       -2.4178  -17.5538  -43.5662 H         1 UNK         0.0600 
    151 H151       -2.7098  -18.2734  -41.2024 H         1 UNK         0.0600 
    152 H152       -1.6274  -16.8922  -41.2990 H         1 UNK         0.0600 
    153 H153       -0.9743  -18.5054  -41.0334 H         1 UNK         0.0600 
    154 H154        0.3186  -17.3252  -42.8482 H         1 UNK         0.3000 
    155 H155        1.7029  -17.4134  -46.1533 H         1 UNK         0.0600 
    156 H156        2.6147  -15.2678  -45.3698 H         1 UNK         0.0600 
    157 H157        1.4643  -15.2142  -44.0398 H         1 UNK         0.0600 
    158 H158        0.9015  -15.0750  -45.7010 H         1 UNK         0.0600 
    159 H159        2.7910  -17.1651  -43.4872 H         1 UNK         0.3000 
    160 H160        3.5289  -20.6321  -43.0582 H         1 UNK         0.0600 
    161 H161        5.3386  -18.2208  -43.6233 H         1 UNK         0.0600 
    162 H162        5.3573  -19.7404  -44.5105 H         1 UNK         0.0600 
    163 H163        5.8169  -19.7142  -42.8157 H         1 UNK         0.0600 
    164 H164        4.1014  -18.3243  -41.4721 H         1 UNK         0.3000 
    165 H165        1.0798  -18.2807  -39.5954 H         1 UNK         0.0600 
    166 H166        3.8844  -19.2255  -38.7950 H         1 UNK         0.0600 
    167 H167        2.6328  -18.6332  -37.7019 H         1 UNK         0.0600 
    168 H168        2.3991  -20.1416  -38.5699 H         1 UNK         0.0600 
    169 H169        3.4304  -16.7953  -39.2188 H         1 UNK         0.3000 
    170 H170        3.4711  -14.6203  -39.6320 H         1 UNK         0.0600 
    171 H171        4.7669  -15.2847  -41.6471 H         1 UNK         0.0600 
    172 H172        3.5356  -14.6012  -42.7012 H         1 UNK         0.0600 
    173 H173        4.4841  -13.5501  -41.6536 H         1 UNK         0.0600 
    174 H174        1.8369  -13.2048  -41.5964 H         1 UNK         0.3000 
    175 H175       -0.8338  -12.4742  -39.4016 H         1 UNK         0.0600 
    176 H176       -0.2759  -10.0783  -39.7688 H         1 UNK         0.0600 
    177 H177        0.7838  -10.7708  -38.5511 H         1 UNK         0.0600 
    178 H178        1.3855  -10.5043  -40.1831 H         1 UNK         0.0600 
    179 H179        0.0491  -11.4898  -41.9819 H         1 UNK         0.3000 
    180 H180       -0.6359  -14.1563  -43.9087 H         1 UNK         0.0600 
    181 H181       -2.5518  -13.1969  -45.1375 H         1 UNK         0.0600 
    182 H182       -3.0983  -13.8952  -43.6252 H         1 UNK         0.0600 
    183 H183       -2.9388  -12.1492  -43.7714 H         1 UNK         0.0600 
    184 H184       -0.7744  -11.5395  -44.8416 H         1 UNK         0.3000 
    185 H185        1.2298   -9.9140  -44.7624 H         1 UNK         0.0600 
    186 H186        3.5292   -9.9908  -45.7806 H         1 UNK         0.0600 
    187 H187        3.5164  -10.4473  -44.0838 H         1 UNK         0.0600 
    188 H188        3.6693  -11.6861  -45.3159 H         1 UNK         0.0600 
    189 H189        0.3979  -10.4243  -46.7619 H         1 UNK         0.3000 
    190 H190       -1.8404  -19.2053  -46.5959 H         1 UNK         0.3000 
    191 H191       -3.7924  -19.0529  -48.6236 H         1 UNK         0.0600 
    192 H192       -5.0222  -17.6562  -47.0181 H         1 UNK         0.0600 
    193 H193       -3.3095  -17.2952  -46.8624 H         1 UNK         0.0600 
    194 H194       -4.1033  -18.3009  -45.6642 H         1 UNK         0.0600 
    195 H195       -3.7656  -20.9490  -45.5871 H         1 UNK         0.3000 
    196 H196       -6.4148  -22.0193  -45.8569 H         1 UNK         0.0600 
    197 H197       -5.6787  -23.5389  -44.0223 H         1 UNK         0.0600 
    198 H198       -5.2487  -21.8700  -43.6761 H         1 UNK         0.0600 
    199 H199       -4.0152  -23.0021  -44.2232 H         1 UNK         0.0600 
    200 H200       -3.1661  -23.3045  -46.6895 H         1 UNK         0.3000 
    201 H201       -4.0552  -25.8476  -47.6342 H         1 UNK         0.0600 
    202 H202       -1.7563  -25.4798  -46.8594 H         1 UNK         0.0600 
    203 H203       -1.4865  -24.2548  -48.0947 H         1 UNK         0.0600 
    204 H204       -1.6903  -25.9400  -48.5538 H         1 UNK         0.0600 
    205 H205       -3.3969  -22.7630  -49.3034 H         1 UNK         0.3000 
    206 H206       -3.7157  -21.9635  -51.3243 H         1 UNK         0.0600 
    207 H207       -6.0923  -22.1825  -50.7567 H         1 UNK         0.0600 
    208 H208       -5.8786  -22.5042  -52.4655 H         1 UNK         0.0600 
    209 H209       -6.1479  -23.8405  -51.3428 H         1 UNK         0.0600 
    210 H210       -5.1275  -24.6264  -52.9285 H         1 UNK         0.3000 
    211 H211       -3.1980  -24.8298  -54.9402 H         1 UNK         0.0600 
    212 H212       -5.3241  -26.8718  -54.0897 H         1 UNK         0.0600 
    213 H213       -4.5375  -26.7991  -55.6614 H         1 UNK         0.0600 
    214 H214       -5.6068  -25.5028  -55.1584 H         1 UNK         0.0600 
    215 H215       -3.2806  -26.4701  -51.8310 H         1 UNK         0.3000 
    216 H216       -1.4183  -28.5949  -52.5720 H         1 UNK         0.0600 
    217 H217       -1.5327  -29.1194  -50.1364 H         1 UNK         0.0600 
    218 H218       -3.1342  -28.9769  -50.8423 H         1 UNK         0.0600 
    219 H219       -2.4877  -27.6697  -49.8576 H         1 UNK         0.0600 
    220 H220       -1.0313  -25.2481  -51.7951 H         1 UNK         0.3000 
    221 H221        1.8328  -25.6641  -50.9964 H         1 UNK         0.0600 
    222 H222        0.5859  -24.7307  -49.1224 H         1 UNK         0.0600 
    223 H223        1.5940  -23.4715  -49.8074 H         1 UNK         0.0600 
    224 H224       -0.1343  -23.4823  -50.1455 H         1 UNK         0.0600 
    225 H225       -0.4707  -23.6096  -52.8715 H         1 UNK         0.3000 
    226 H226        1.5673  -22.9870  -54.8481 H         1 UNK         0.0600 
    227 H227        0.4720  -20.7675  -53.0334 H         1 UNK         0.0600 
    228 H228        2.1405  -21.3075  -53.0980 H         1 UNK         0.0600 
    229 H229        1.4419  -20.5063  -54.4873 H         1 UNK         0.0600 
    230 H230       -0.5483  -20.5029  -55.0026 H         1 UNK         0.3000 
    231 H231       -2.0076  -21.6055  -57.2101 H         1 UNK         0.0600 
    232 H232       -3.0685  -19.3321  -57.2296 H         1 UNK         0.0600 
    233 H233       -1.3199  -19.2214  -57.1135 H         1 UNK         0.0600 
    234 H234       -2.3175  -18.9587  -55.6840 H         1 UNK         0.0600 
    235 H235       -4.2180  -21.9953  -57.4293 H         1 UNK         0.3000 
    236 H236       -5.5579  -23.1324  -55.1338 H         1 UNK         0.0600 
    237 H237       -6.4024  -22.8857  -58.0677 H         1 UNK         0.0600 
    238 H238       -5.5334  -24.2439  -57.3559 H         1 UNK         0.0600 
    239 H239       -7.1789  -23.8959  -56.8530 H         1 UNK         0.0600 
    240 H240       -5.4354  -20.7723  -54.1894 H         1 UNK         0.3000 
    241 H241       -7.6750  -19.0623  -54.8885 H         1 UNK         0.0600 
    242 H242       -9.2699  -21.5365  -52.2372 H         1 UNK         0.3800 
    243 H243       -7.9241  -21.9700  -53.2564 H         1 UNK         0.3800 
    244 H244       -5.6983  -17.9618  -54.2298 H         1 UNK         0.0800 
    245 H245       -6.8921  -17.6167  -53.0255 H         1 UNK         0.0800 
    246 H246       -3.0966  -19.0715  -53.3773 H         1 UNK         0.0800 
    247 H247       -3.7139  -17.4386  -53.3190 H         1 UNK         0.0800 
@<TRIPOS>BOND
     1    1    2 1    
     2    1  127 1    
     3    1  128 1    
     4    1  129 1    
     5    2    3 2    
     6    2    4 am   BACKBONE|DICT|INTERRES
     7    4    5 1    
     8    4  130 1    
     9    5    6 1    
    10    5   65 1    
    11    5  131 1    
    12    6    7 1    
    13    6  132 1    
    14    6  133 1    
    15    7    8 1    
    16    8    9 1    
    17    8  134 1    
    18    8  135 1    
    19    9   10 ar   
    20    9   14 ar   
    21   10   11 ar   
    22   10  136 1    
    23   11   12 ar   
    24   11  126 1    
    25   12   13 ar   
    26   12  137 1    
    27   13   14 ar   
    28   13   15 1    
    29   14  138 1    
    30   15   16 1    
    31   15  139 1    
    32   15  140 1    
    33   16   17 1    
    34   17   18 1    
    35   17  141 1    
    36   17  142 1    
    37   18   19 1    
    38   18   67 1    
    39   18  143 1    
    40   19   20 am   BACKBONE|DICT|INTERRES
    41   19  144 1    
    42   20   21 2    
    43   20   22 1    
    44   22   23 1    
    45   22   24 1    
    46   22  145 1    
    47   23  146 1    
    48   23  147 1    
    49   23  148 1    
    50   24   25 am   BACKBONE|DICT|INTERRES
    51   24  149 1    
    52   25   26 2    
    53   25   27 1    
    54   27   28 1    
    55   27   29 1    
    56   27  150 1    
    57   28  151 1    
    58   28  152 1    
    59   28  153 1    
    60   29   30 am   BACKBONE|DICT|INTERRES
    61   29  154 1    
    62   30   31 2    
    63   30   32 1    
    64   32   33 1    
    65   32   34 1    
    66   32  155 1    
    67   33  156 1    
    68   33  157 1    
    69   33  158 1    
    70   34   35 am   BACKBONE|DICT|INTERRES
    71   34  159 1    
    72   35   36 2    
    73   35   37 1    
    74   37   38 1    
    75   37   39 1    
    76   37  160 1    
    77   38  161 1    
    78   38  162 1    
    79   38  163 1    
    80   39   40 am   BACKBONE|DICT|INTERRES
    81   39  164 1    
    82   40   41 2    
    83   40   42 1    
    84   42   43 1    
    85   42   44 1    
    86   42  165 1    
    87   43  166 1    
    88   43  167 1    
    89   43  168 1    
    90   44   45 am   BACKBONE|DICT|INTERRES
    91   44  169 1    
    92   45   46 2    
    93   45   47 1    
    94   47   48 1    
    95   47   49 1    
    96   47  170 1    
    97   48  171 1    
    98   48  172 1    
    99   48  173 1    
   100   49   50 am   BACKBONE|DICT|INTERRES
   101   49  174 1    
   102   50   51 2    
   103   50   52 1    
   104   52   53 1    
   105   52   54 1    
   106   52  175 1    
   107   53  176 1    
   108   53  177 1    
   109   53  178 1    
   110   54   55 am   BACKBONE|DICT|INTERRES
   111   54  179 1    
   112   55   56 2    
   113   55   57 1    
   114   57   58 1    
   115   57   59 1    
   116   57  180 1    
   117   58  181 1    
   118   58  182 1    
   119   58  183 1    
   120   59   60 am   BACKBONE|DICT|INTERRES
   121   59  184 1    
   122   60   61 2    
   123   60   62 1    
   124   62   63 1    
   125   62   64 1    
   126   62  185 1    
   127   63  186 1    
   128   63  187 1    
   129   63  188 1    
   130   64   65 am   BACKBONE|DICT|INTERRES
   131   64  189 1    
   132   65   66 2    
   133   67   68 2    
   134   67   69 am   BACKBONE|DICT|INTERRES
   135   69   70 1    
   136   69  190 1    
   137   70   71 1    
   138   70   72 1    
   139   70  191 1    
   140   71  192 1    
   141   71  193 1    
   142   71  194 1    
   143   72   73 2    
   144   72   74 am   BACKBONE|DICT|INTERRES
   145   74   75 1    
   146   74  195 1    
   147   75   76 1    
   148   75   77 1    
   149   75  196 1    
   150   76  197 1    
   151   76  198 1    
   152   76  199 1    
   153   77   78 2    
   154   77   79 am   BACKBONE|DICT|INTERRES
   155   79   80 1    
   156   79  200 1    
   157   80   81 1    
   158   80   82 1    
   159   80  201 1    
   160   81  202 1    
   161   81  203 1    
   162   81  204 1    
   163   82   83 2    
   164   82   84 am   BACKBONE|DICT|INTERRES
   165   84   85 1    
   166   84  205 1    
   167   85   86 1    
   168   85   87 1    
   169   85  206 1    
   170   86  207 1    
   171   86  208 1    
   172   86  209 1    
   173   87   88 2    
   174   87   89 am   BACKBONE|DICT|INTERRES
   175   89   90 1    
   176   89  210 1    
   177   90   91 1    
   178   90   92 1    
   179   90  211 1    
   180   91  212 1    
   181   91  213 1    
   182   91  214 1    
   183   92   93 2    
   184   92   94 am   BACKBONE|DICT|INTERRES
   185   94   95 1    
   186   94  215 1    
   187   95   96 1    
   188   95   97 1    
   189   95  216 1    
   190   96  217 1    
   191   96  218 1    
   192   96  219 1    
   193   97   98 2    
   194   97   99 am   BACKBONE|DICT|INTERRES
   195   99  100 1    
   196   99  220 1    
   197  100  101 1    
   198  100  102 1    
   199  100  221 1    
   200  101  222 1    
   201  101  223 1    
   202  101  224 1    
   203  102  103 2    
   204  102  104 am   BACKBONE|DICT|INTERRES
   205  104  105 1    
   206  104  225 1    
   207  105  106 1    
   208  105  107 1    
   209  105  226 1    
   210  106  227 1    
   211  106  228 1    
   212  106  229 1    
   213  107  108 2    
   214  107  109 am   BACKBONE|DICT|INTERRES
   215  109  110 1    
   216  109  230 1    
   217  110  111 1    
   218  110  112 1    
   219  110  231 1    
   220  111  232 1    
   221  111  233 1    
   222  111  234 1    
   223  112  113 2    
   224  112  114 am   BACKBONE|DICT|INTERRES
   225  114  115 1    
   226  114  235 1    
   227  115  116 1    
   228  115  117 1    
   229  115  236 1    
   230  116  237 1    
   231  116  238 1    
   232  116  239 1    
   233  117  118 2    
   234  117  119 am   BACKBONE|DICT|INTERRES
   235  119  120 1    
   236  119  240 1    
   237  120  121 1    
   238  120  124 1    
   239  120  241 1    
   240  121  122 am   BACKBONE|DICT|INTERRES
   241  121  123 2    
   242  122  242 1    
   243  122  243 1    
   244  124  125 1    
   245  124  244 1    
   246  124  245 1    
   247  125  126 1    
   248  126  246 1    
   249  126  247 1    
@<TRIPOS>SUBSTRUCTURE
     1 UNK         1 GROUP             0       ****    0 ROOT    
