@<TRIPOS>MOLECULE
3R540
247   249    1
SMALL
USER_CHARGES


@<TRIPOS>ATOM
      1 CA          7.6290  -10.0006  -47.1174 C.3       0 UNK        -0.1800 
      2 C           6.3631  -10.8212  -46.9127 C.2       0 UNK         0.5000 
      3 O           5.5336  -10.4682  -46.0740 O.2       0 UNK        -0.5000 
      4 N           6.2167  -11.9169  -47.6678 N.am      1 UNK        -0.5000 
      5 CA          5.0372  -12.7857  -47.6605 C.3       1 UNK         0.1400 
      6 C6          5.3485  -14.1497  -48.3234 C.3       23 UNK        -0.0398 
      7 S7          4.0813  -15.4288  -48.0046 S.3       23 UNK        -0.2404 
      8 C8          3.4368  -15.6690  -49.6877 C.3       23 UNK        -0.0205 
      9 C9          2.4224  -16.7993  -49.7557 C.ar      23 UNK        -0.0193 
     10 C10         1.0556  -16.5192  -49.8392 C.ar      23 UNK        -0.1150 
     11 C11         0.1246  -17.5560  -49.9546 C.ar      23 UNK        -0.0193 
     12 C12         0.5718  -18.8788  -49.9945 C.ar      23 UNK        -0.1150 
     13 C13         1.9352  -19.1745  -49.8987 C.ar      23 UNK        -0.0193 
     14 C14         2.8549  -18.1289  -49.7763 C.ar      23 UNK        -0.1150 
     15 C15         2.4185  -20.6180  -49.9601 C.3       23 UNK        -0.0205 
     16 S16         2.3799  -21.4337  -48.3309 S.3       23 UNK        -0.2404 
     17 C17         0.5861  -21.6285  -48.0901 C.3       23 UNK        -0.0398 
     18 CA          0.2055  -22.7109  -47.0560 C.3       11 UNK         0.1400 
     19 N           0.6251  -22.3564  -45.6924 N.am      11 UNK        -0.5000 
     20 C           0.4983  -23.1465  -44.6150 C.2       10 UNK         0.5000 
     21 O           0.0426  -24.2890  -44.6596 O.2       10 UNK        -0.5000 
     22 CA          0.8897  -22.5435  -43.2529 C.3       10 UNK         0.1400 
     23 CB          2.4113  -22.5676  -43.0424 C.3       10 UNK        -0.1800 
     24 N           0.3809  -21.1800  -43.1008 N.am      10 UNK        -0.5000 
     25 C          -0.9111  -20.8810  -42.9008 C.2       9 UNK         0.5000 
     26 O          -1.7811  -21.7304  -42.7097 O.2       9 UNK        -0.5000 
     27 CA         -1.3131  -19.3929  -42.9583 C.3       9 UNK         0.1400 
     28 CB         -1.2308  -18.7481  -41.5674 C.3       9 UNK        -0.1800 
     29 N          -0.5123  -18.6177  -43.9074 N.am      9 UNK        -0.5000 
     30 C          -0.5053  -18.8173  -45.2326 C.2       8 UNK         0.5000 
     31 O          -1.2227  -19.6379  -45.8012 O.2       8 UNK        -0.5000 
     32 CA          0.5133  -18.0114  -46.0553 C.3       8 UNK         0.1400 
     33 CB         -0.0612  -16.6479  -46.4432 C.3       8 UNK        -0.1800 
     34 N           1.7866  -17.8359  -45.3582 N.am      8 UNK        -0.5000 
     35 C           2.6226  -18.8416  -45.0663 C.2       7 UNK         0.5000 
     36 O           2.4041  -20.0146  -45.3623 O.2       7 UNK        -0.5000 
     37 CA          3.8712  -18.4880  -44.2397 C.3       7 UNK         0.1400 
     38 CB          4.9394  -17.8127  -45.1118 C.3       7 UNK        -0.1800 
     39 N           3.5484  -17.6224  -43.1059 N.am      7 UNK        -0.5000 
     40 C           2.7826  -17.9863  -42.0670 C.2       6 UNK         0.5000 
     41 O           2.3390  -19.1236  -41.9112 O.2       6 UNK        -0.5000 
     42 CA          2.4144  -16.8802  -41.0583 C.3       6 UNK         0.1400 
     43 CB          3.4486  -16.8187  -39.9245 C.3       6 UNK        -0.1800 
     44 N           2.2892  -15.5544  -41.6733 N.am      6 UNK        -0.5000 
     45 C           1.3821  -15.2292  -42.6045 C.2       5 UNK         0.5000 
     46 O           0.5411  -16.0187  -43.0398 O.2       5 UNK        -0.5000 
     47 CA          1.4962  -13.8098  -43.1892 C.3       5 UNK         0.1400 
     48 CB          2.6304  -13.7583  -44.2278 C.3       5 UNK        -0.1800 
     49 N           0.2509  -13.3511  -43.8106 N.am      5 UNK        -0.5000 
     50 C          -0.8429  -12.9815  -43.1267 C.2       4 UNK         0.5000 
     51 O          -0.9057  -13.0105  -41.8962 O.2       4 UNK        -0.5000 
     52 CA         -2.0594  -12.4465  -43.9149 C.3       4 UNK         0.1400 
     53 CB         -2.2882  -10.9587  -43.5996 C.3       4 UNK        -0.1800 
     54 N          -1.9288  -12.5885  -45.3653 N.am      4 UNK        -0.5000 
     55 C          -2.3383  -13.6468  -46.0761 C.2       3 UNK         0.5000 
     56 O          -2.9256  -14.6105  -45.5847 O.2       3 UNK        -0.5000 
     57 CA         -2.0345  -13.6399  -47.5928 C.3       3 UNK         0.1400 
     58 CB         -3.2997  -13.3093  -48.3994 C.3       3 UNK        -0.1800 
     59 N          -0.9479  -12.7462  -48.0218 N.am      3 UNK        -0.5000 
     60 C           0.3139  -12.8150  -47.5809 C.2       2 UNK         0.5000 
     61 O           0.6723  -13.5797  -46.6836 O.2       2 UNK        -0.5000 
     62 CA          1.3409  -11.8597  -48.2041 C.3       2 UNK         0.1400 
     63 CB          1.1084  -10.4095  -47.7444 C.3       2 UNK        -0.1800 
     64 N           2.6493  -12.3181  -47.7606 N.am      2 UNK        -0.5000 
     65 C           3.8334  -12.0793  -48.3231 C.2       1 UNK         0.5000 
     66 O           3.9956  -11.3710  -49.3202 O.2       1 UNK        -0.5000 
     67 C          -1.3082  -23.0009  -47.1605 C.2       11 UNK         0.5000 
     68 O          -1.7094  -23.8629  -47.9458 O.2       11 UNK        -0.5000 
     69 N          -2.1244  -22.2944  -46.3657 N.am      12 UNK        -0.5000 
     70 CA         -3.5810  -22.4288  -46.2978 C.3       12 UNK         0.1400 
     71 CB         -4.1552  -21.3604  -45.3567 C.3       12 UNK        -0.1800 
     72 C          -4.0742  -23.8314  -45.8908 C.2       12 UNK         0.5000 
     73 O          -5.1983  -24.1870  -46.2429 O.2       12 UNK        -0.5000 
     74 N          -3.2230  -24.6329  -45.2319 N.am      13 UNK        -0.5000 
     75 CA         -3.4792  -26.0450  -44.9264 C.3       13 UNK         0.1400 
     76 CB         -2.3791  -26.5692  -43.9921 C.3       13 UNK        -0.1800 
     77 C          -3.5871  -26.9334  -46.1854 C.2       13 UNK         0.5000 
     78 O          -4.2761  -27.9531  -46.1480 O.2       13 UNK        -0.5000 
     79 N          -2.9363  -26.5133  -47.2789 N.am      14 UNK        -0.5000 
     80 CA         -3.0299  -27.1073  -48.6144 C.3       14 UNK         0.1400 
     81 CB         -1.6025  -27.3296  -49.1446 C.3       14 UNK        -0.1800 
     82 C          -3.8362  -26.2037  -49.5714 C.2       14 UNK         0.5000 
     83 O          -3.7791  -26.3992  -50.7875 O.2       14 UNK        -0.5000 
     84 N          -4.5240  -25.1899  -49.0210 N.am      15 UNK        -0.5000 
     85 CA         -5.2530  -24.1236  -49.7136 C.3       15 UNK         0.1400 
     86 CB         -6.5351  -24.6800  -50.3644 C.3       15 UNK        -0.1800 
     87 C          -4.3740  -23.3332  -50.7051 C.2       15 UNK         0.5000 
     88 O          -4.8716  -22.9010  -51.7444 O.2       15 UNK        -0.5000 
     89 N          -3.0830  -23.1673  -50.3788 N.am      16 UNK        -0.5000 
     90 CA         -2.0350  -22.5854  -51.2266 C.3       16 UNK         0.1400 
     91 CB         -2.2674  -21.0757  -51.4478 C.3       16 UNK        -0.1800 
     92 C          -1.8155  -23.3796  -52.5315 C.2       16 UNK         0.5000 
     93 O          -1.6201  -22.7880  -53.5927 O.2       16 UNK        -0.5000 
     94 N          -1.8610  -24.7152  -52.4082 N.am      17 UNK        -0.5000 
     95 CA         -1.8123  -25.7135  -53.4801 C.3       17 UNK         0.1400 
     96 CB         -0.4709  -25.6651  -54.2423 C.3       17 UNK        -0.1800 
     97 C          -3.0508  -25.6133  -54.3918 C.2       17 UNK         0.5000 
     98 O          -2.9211  -25.5266  -55.6143 O.2       17 UNK        -0.5000 
     99 N          -4.2311  -25.6214  -53.7528 N.am      18 UNK        -0.5000 
    100 CA        -5.5649  -25.5089  -54.3543 C.3       18 UNK         0.1400 
    101 CB        -5.8925  -26.7620  -55.1932 C.3       18 UNK        -0.1800 
    102 C         -5.7697  -24.1868  -55.1267 C.2       18 UNK         0.5000 
    103 O         -6.2645  -24.1927  -56.2556 O.2       18 UNK        -0.5000 
    104 N         -5.3937  -23.0740  -54.4870 N.am      19 UNK        -0.5000 
    105 CA        -5.5308  -21.7047  -54.9845 C.3       19 UNK         0.1400 
    106 CB        -4.1326  -21.1214  -55.2516 C.3       19 UNK        -0.1800 
    107 C         -6.3446  -20.8498  -53.9926 C.2       19 UNK         0.5000 
    108 O         -6.1075  -19.6462  -53.8759 O.2       19 UNK        -0.5000 
    109 N         -7.2781  -21.4972  -53.2761 N.am      20 UNK        -0.5000 
    110 CA        -8.2376  -20.9282  -52.3191 C.3       20 UNK         0.1400 
    111 CB        -9.2732  -20.0599  -53.0636 C.3       20 UNK        -0.1800 
    112 C         -7.5949  -20.1829  -51.1271 C.2       20 UNK         0.5000 
    113 O         -8.2348  -19.3081  -50.5426 O.2       20 UNK        -0.5000 
    114 N         -6.3477  -20.5459  -50.7899 N.am      21 UNK        -0.5000 
    115 CA        -5.4816  -19.9111  -49.7882 C.3       21 UNK         0.1400 
    116 CB        -6.0573  -20.0686  -48.3651 C.3       21 UNK        -0.1800 
    117 C         -5.1092  -18.4535  -50.1446 C.2       21 UNK         0.5000 
    118 O         -4.9232  -17.6327  -49.2450 O.2       21 UNK        -0.5000 
    119 N         -4.9874  -18.1786  -51.4518 N.am      22 UNK        -0.5000 
    120 CA        -4.7354  -16.8679  -52.0749 C.3       22 UNK         0.1400 
    121 C         -5.9724  -15.9205  -52.0573 C.2       22 UNK         0.5000 
    122 N         -5.9414  -14.8458  -52.8351 N.am      22 UNK        -0.7600 
    123 O         -6.9622  -16.1325  -51.3614 O.2       22 UNK        -0.5000 
    124 C124       -3.4588  -16.1435  -51.5565 C.3       23 UNK        -0.0398 
    125 S125       -1.9235  -17.1129  -51.7561 S.3       23 UNK        -0.2404 
    126 C126       -1.3612  -17.2436  -50.0311 C.3       23 UNK        -0.0205 
    127 H127        7.3727   -8.9869  -47.4254 H         1 UNK         0.0600 
    128 H128        8.2752  -10.4346  -47.8807 H         1 UNK         0.0600 
    129 H129        8.1936   -9.9429  -46.1868 H         1 UNK         0.0600 
    130 H130        6.9189  -12.1340  -48.3605 H         1 UNK         0.3000 
    131 H131        4.7880  -12.9753  -46.6135 H         1 UNK         0.0600 
    132 H132        5.5104  -14.0299  -49.3962 H         1 UNK         0.0800 
    133 H133        6.2869  -14.5400  -47.9268 H         1 UNK         0.0800 
    134 H134        2.9927  -14.7362  -50.0388 H         1 UNK         0.0800 
    135 H135        4.2630  -15.8920  -50.3646 H         1 UNK         0.0800 
    136 H136        0.7155  -15.4933  -49.8195 H         1 UNK         0.1150 
    137 H137       -0.1444  -19.6784  -50.1003 H         1 UNK         0.1150 
    138 H138        3.9116  -18.3473  -49.7106 H         1 UNK         0.1150 
    139 H139        1.8204  -21.1851  -50.6749 H         1 UNK         0.0800 
    140 H140        3.4418  -20.6484  -50.3373 H         1 UNK         0.0800 
    141 H141        0.1606  -21.8733  -49.0614 H         1 UNK         0.0800 
    142 H142        0.1634  -20.6656  -47.8067 H         1 UNK         0.0800 
    143 H143        0.7210  -23.6356  -47.3234 H         1 UNK         0.0600 
    144 H144        1.0722  -21.4505  -45.5803 H         1 UNK         0.3000 
    145 H145        0.4403  -23.1632  -42.4739 H         1 UNK         0.0600 
    146 H146        2.7906  -23.5895  -43.0795 H         1 UNK         0.0600 
    147 H147        2.9409  -21.9970  -43.8042 H         1 UNK         0.0600 
    148 H148        2.6804  -22.1550  -42.0699 H         1 UNK         0.0600 
    149 H149        1.0485  -20.4256  -43.2043 H         1 UNK         0.3000 
    150 H150       -2.3520  -19.3455  -43.2914 H         1 UNK         0.0600 
    151 H151       -1.5188  -17.6970  -41.5997 H         1 UNK         0.0600 
    152 H152       -0.2246  -18.8087  -41.1547 H         1 UNK         0.0600 
    153 H153       -1.9005  -19.2492  -40.8675 H         1 UNK         0.0600 
    154 H154        0.0560  -17.8657  -43.5290 H         1 UNK         0.3000 
    155 H155        0.7137  -18.5614  -46.9760 H         1 UNK         0.0600 
    156 H156       -1.0046  -16.7641  -46.9767 H         1 UNK         0.0600 
    157 H157        0.6249  -16.1163  -47.1004 H         1 UNK         0.0600 
    158 H158       -0.2506  -16.0198  -45.5729 H         1 UNK         0.0600 
    159 H159        2.0022  -16.9050  -45.0365 H         1 UNK         0.3000 
    160 H160        4.2870  -19.4202  -43.8513 H         1 UNK         0.0600 
    161 H161        5.1571  -18.4092  -45.9989 H         1 UNK         0.0600 
    162 H162        5.8740  -17.6903  -44.5644 H         1 UNK         0.0600 
    163 H163        4.6187  -16.8270  -45.4485 H         1 UNK         0.0600 
    164 H164        3.8793  -16.6705  -43.1478 H         1 UNK         0.3000 
    165 H165        1.4471  -17.1378  -40.6231 H         1 UNK         0.0600 
    166 H166        3.1557  -16.0971  -39.1617 H         1 UNK         0.0600 
    167 H167        3.5459  -17.7876  -39.4327 H         1 UNK         0.0600 
    168 H168        4.4357  -16.5371  -40.2934 H         1 UNK         0.0600 
    169 H169        2.9524  -14.8557  -41.3699 H         1 UNK         0.3000 
    170 H170        1.7423  -13.1218  -42.3776 H         1 UNK         0.0600 
    171 H171        2.7042  -12.7705  -44.6830 H         1 UNK         0.0600 
    172 H172        3.5957  -13.9723  -43.7679 H         1 UNK         0.0600 
    173 H173        2.4823  -14.4881  -45.0247 H         1 UNK         0.0600 
    174 H174        0.2233  -13.3725  -44.8255 H         1 UNK         0.3000 
    175 H175       -2.9352  -13.0010  -43.5716 H         1 UNK         0.0600 
    176 H176       -1.4381  -10.3473  -43.9052 H         1 UNK         0.0600 
    177 H177       -3.1749  -10.5797  -44.1082 H         1 UNK         0.0600 
    178 H178       -2.4384  -10.8013  -42.5307 H         1 UNK         0.0600 
    179 H179       -1.4483  -11.8460  -45.8510 H         1 UNK         0.3000 
    180 H180       -1.7311  -14.6542  -47.8517 H         1 UNK         0.0600 
    181 H181       -3.1239  -13.4102  -49.4706 H         1 UNK         0.0600 
    182 H182       -3.6428  -12.2920  -48.2077 H         1 UNK         0.0600 
    183 H183       -4.1160  -13.9861  -48.1426 H         1 UNK         0.0600 
    184 H184       -1.1793  -12.0752  -48.7401 H         1 UNK         0.3000 
    185 H185        1.2753  -11.9309  -49.2915 H         1 UNK         0.0600 
    186 H186        1.1549  -10.3212  -46.6580 H         1 UNK         0.0600 
    187 H187        1.8563   -9.7370  -48.1649 H         1 UNK         0.0600 
    188 H188        0.1317  -10.0452  -48.0643 H         1 UNK         0.0600 
    189 H189        2.5817  -12.9784  -46.9943 H         1 UNK         0.3000 
    190 H190       -1.7204  -21.5336  -45.8274 H         1 UNK         0.3000 
    191 H191       -3.9644  -22.2319  -47.3005 H         1 UNK         0.0600 
    192 H192       -3.8287  -21.5124  -44.3287 H         1 UNK         0.0600 
    193 H193       -5.2456  -21.3847  -45.3591 H         1 UNK         0.0600 
    194 H194       -3.8538  -20.3581  -45.6610 H         1 UNK         0.0600 
    195 H195       -2.3068  -24.2767  -44.9901 H         1 UNK         0.3000 
    196 H196       -4.4328  -26.1043  -44.3977 H         1 UNK         0.0600 
    197 H197       -2.5883  -27.5932  -43.6800 H         1 UNK         0.0600 
    198 H198       -2.3028  -25.9626  -43.0895 H         1 UNK         0.0600 
    199 H199       -1.4041  -26.5694  -44.4805 H         1 UNK         0.0600 
    200 H200       -2.4038  -25.6511  -47.2262 H         1 UNK         0.3000 
    201 H201       -3.5387  -28.0721  -48.5748 H         1 UNK         0.0600 
    202 H202       -1.0292  -27.9673  -48.4717 H         1 UNK         0.0600 
    203 H203       -1.0626  -26.3879  -49.2531 H         1 UNK         0.0600 
    204 H204       -1.6137  -27.8183  -50.1197 H         1 UNK         0.0600 
    205 H205       -4.5399  -25.1281  -48.0102 H         1 UNK         0.3000 
    206 H206       -5.5582  -23.4085  -48.9494 H         1 UNK         0.0600 
    207 H207       -7.1330  -23.8833  -50.8086 H         1 UNK         0.0600 
    208 H208       -6.3102  -25.4017  -51.1489 H         1 UNK         0.0600 
    209 H209       -7.1628  -25.1781  -49.6255 H         1 UNK         0.0600 
    210 H210       -2.7548  -23.5553  -49.4979 H         1 UNK         0.3000 
    211 H211       -1.1037  -22.6959  -50.6746 H         1 UNK         0.0600 
    212 H212       -3.1923  -20.8763  -51.9877 H         1 UNK         0.0600 
    213 H213       -1.4549  -20.6320  -52.0244 H         1 UNK         0.0600 
    214 H214       -2.3122  -20.5439  -50.4985 H         1 UNK         0.0600 
    215 H215       -2.0933  -25.0904  -51.4984 H         1 UNK         0.3000 
    216 H216       -1.8714  -26.6874  -52.9916 H         1 UNK         0.0600 
    217 H217       -0.3959  -26.4953  -54.9454 H         1 UNK         0.0600 
    218 H218        0.3739  -25.7420  -53.5579 H         1 UNK         0.0600 
    219 H219       -0.3564  -24.7448  -54.8153 H         1 UNK         0.0600 
    220 H220       -4.2100  -25.7162  -52.7428 H         1 UNK         0.3000 
    221 H221       -6.2725  -25.4827  -53.5254 H         1 UNK         0.0600 
    222 H222       -5.2540  -26.8412  -56.0735 H         1 UNK         0.0600 
    223 H223       -5.7686  -27.6720  -54.6061 H         1 UNK         0.0600 
    224 H224       -6.9260  -26.7398  -55.5408 H         1 UNK         0.0600 
    225 H225       -5.0344  -23.1504  -53.5366 H         1 UNK         0.3000 
    226 H226       -6.0862  -21.6955  -55.9240 H         1 UNK         0.0600 
    227 H227       -3.5613  -21.7600  -55.9256 H         1 UNK         0.0600 
    228 H228       -4.1982  -20.1359  -55.7139 H         1 UNK         0.0600 
    229 H229       -3.5610  -21.0150  -54.3302 H         1 UNK         0.0600 
    230 H230       -7.3546  -22.4930  -53.4244 H         1 UNK         0.3000 
    231 H231       -8.7701  -21.7759  -51.8859 H         1 UNK         0.0600 
    232 H232       -8.8214  -19.1539  -53.4691 H         1 UNK         0.0600 
    233 H233       -9.7270  -20.6074  -53.8896 H         1 UNK         0.0600 
    234 H234      -10.0816  -19.7529  -52.3990 H         1 UNK         0.0600 
    235 H235       -5.9153  -21.2844  -51.3368 H         1 UNK         0.3000 
    236 H236       -4.5450  -20.4654  -49.8071 H         1 UNK         0.0600 
    237 H237       -6.9650  -19.4814  -48.2260 H         1 UNK         0.0600 
    238 H238       -6.2930  -21.1093  -48.1440 H         1 UNK         0.0600 
    239 H239       -5.3388  -19.7327  -47.6171 H         1 UNK         0.0600 
    240 H240       -5.2360  -18.9058  -52.1125 H         1 UNK         0.3000 
    241 H241       -4.5714  -17.1029  -53.1274 H         1 UNK         0.0600 
    242 H242       -6.7355  -14.2243  -52.8358 H         1 UNK         0.3800 
    243 H243       -5.1597  -14.6453  -53.4394 H         1 UNK         0.3800 
    244 H244       -3.3042  -15.2133  -52.1047 H         1 UNK         0.0800 
    245 H245       -3.5860  -15.8440  -50.5161 H         1 UNK         0.0800 
    246 H246       -1.9396  -18.0120  -49.5159 H         1 UNK         0.0800 
    247 H247       -1.5586  -16.3079  -49.5087 H         1 UNK         0.0800 
@<TRIPOS>BOND
     1    1    2 1    
     2    1  127 1    
     3    1  128 1    
     4    1  129 1    
     5    2    3 2    
     6    2    4 am   BACKBONE|DICT|INTERRES
     7    4    5 1    
     8    4  130 1    
     9    5    6 1    
    10    5   65 1    
    11    5  131 1    
    12    6    7 1    
    13    6  132 1    
    14    6  133 1    
    15    7    8 1    
    16    8    9 1    
    17    8  134 1    
    18    8  135 1    
    19    9   10 ar   
    20    9   14 ar   
    21   10   11 ar   
    22   10  136 1    
    23   11   12 ar   
    24   11  126 1    
    25   12   13 ar   
    26   12  137 1    
    27   13   14 ar   
    28   13   15 1    
    29   14  138 1    
    30   15   16 1    
    31   15  139 1    
    32   15  140 1    
    33   16   17 1    
    34   17   18 1    
    35   17  141 1    
    36   17  142 1    
    37   18   19 1    
    38   18   67 1    
    39   18  143 1    
    40   19   20 am   BACKBONE|DICT|INTERRES
    41   19  144 1    
    42   20   21 2    
    43   20   22 1    
    44   22   23 1    
    45   22   24 1    
    46   22  145 1    
    47   23  146 1    
    48   23  147 1    
    49   23  148 1    
    50   24   25 am   BACKBONE|DICT|INTERRES
    51   24  149 1    
    52   25   26 2    
    53   25   27 1    
    54   27   28 1    
    55   27   29 1    
    56   27  150 1    
    57   28  151 1    
    58   28  152 1    
    59   28  153 1    
    60   29   30 am   BACKBONE|DICT|INTERRES
    61   29  154 1    
    62   30   31 2    
    63   30   32 1    
    64   32   33 1    
    65   32   34 1    
    66   32  155 1    
    67   33  156 1    
    68   33  157 1    
    69   33  158 1    
    70   34   35 am   BACKBONE|DICT|INTERRES
    71   34  159 1    
    72   35   36 2    
    73   35   37 1    
    74   37   38 1    
    75   37   39 1    
    76   37  160 1    
    77   38  161 1    
    78   38  162 1    
    79   38  163 1    
    80   39   40 am   BACKBONE|DICT|INTERRES
    81   39  164 1    
    82   40   41 2    
    83   40   42 1    
    84   42   43 1    
    85   42   44 1    
    86   42  165 1    
    87   43  166 1    
    88   43  167 1    
    89   43  168 1    
    90   44   45 am   BACKBONE|DICT|INTERRES
    91   44  169 1    
    92   45   46 2    
    93   45   47 1    
    94   47   48 1    
    95   47   49 1    
    96   47  170 1    
    97   48  171 1    
    98   48  172 1    
    99   48  173 1    
   100   49   50 am   BACKBONE|DICT|INTERRES
   101   49  174 1    
   102   50   51 2    
   103   50   52 1    
   104   52   53 1    
   105   52   54 1    
   106   52  175 1    
   107   53  176 1    
   108   53  177 1    
   109   53  178 1    
   110   54   55 am   BACKBONE|DICT|INTERRES
   111   54  179 1    
   112   55   56 2    
   113   55   57 1    
   114   57   58 1    
   115   57   59 1    
   116   57  180 1    
   117   58  181 1    
   118   58  182 1    
   119   58  183 1    
   120   59   60 am   BACKBONE|DICT|INTERRES
   121   59  184 1    
   122   60   61 2    
   123   60   62 1    
   124   62   63 1    
   125   62   64 1    
   126   62  185 1    
   127   63  186 1    
   128   63  187 1    
   129   63  188 1    
   130   64   65 am   BACKBONE|DICT|INTERRES
   131   64  189 1    
   132   65   66 2    
   133   67   68 2    
   134   67   69 am   BACKBONE|DICT|INTERRES
   135   69   70 1    
   136   69  190 1    
   137   70   71 1    
   138   70   72 1    
   139   70  191 1    
   140   71  192 1    
   141   71  193 1    
   142   71  194 1    
   143   72   73 2    
   144   72   74 am   BACKBONE|DICT|INTERRES
   145   74   75 1    
   146   74  195 1    
   147   75   76 1    
   148   75   77 1    
   149   75  196 1    
   150   76  197 1    
   151   76  198 1    
   152   76  199 1    
   153   77   78 2    
   154   77   79 am   BACKBONE|DICT|INTERRES
   155   79   80 1    
   156   79  200 1    
   157   80   81 1    
   158   80   82 1    
   159   80  201 1    
   160   81  202 1    
   161   81  203 1    
   162   81  204 1    
   163   82   83 2    
   164   82   84 am   BACKBONE|DICT|INTERRES
   165   84   85 1    
   166   84  205 1    
   167   85   86 1    
   168   85   87 1    
   169   85  206 1    
   170   86  207 1    
   171   86  208 1    
   172   86  209 1    
   173   87   88 2    
   174   87   89 am   BACKBONE|DICT|INTERRES
   175   89   90 1    
   176   89  210 1    
   177   90   91 1    
   178   90   92 1    
   179   90  211 1    
   180   91  212 1    
   181   91  213 1    
   182   91  214 1    
   183   92   93 2    
   184   92   94 am   BACKBONE|DICT|INTERRES
   185   94   95 1    
   186   94  215 1    
   187   95   96 1    
   188   95   97 1    
   189   95  216 1    
   190   96  217 1    
   191   96  218 1    
   192   96  219 1    
   193   97   98 2    
   194   97   99 am   BACKBONE|DICT|INTERRES
   195   99  100 1    
   196   99  220 1    
   197  100  101 1    
   198  100  102 1    
   199  100  221 1    
   200  101  222 1    
   201  101  223 1    
   202  101  224 1    
   203  102  103 2    
   204  102  104 am   BACKBONE|DICT|INTERRES
   205  104  105 1    
   206  104  225 1    
   207  105  106 1    
   208  105  107 1    
   209  105  226 1    
   210  106  227 1    
   211  106  228 1    
   212  106  229 1    
   213  107  108 2    
   214  107  109 am   BACKBONE|DICT|INTERRES
   215  109  110 1    
   216  109  230 1    
   217  110  111 1    
   218  110  112 1    
   219  110  231 1    
   220  111  232 1    
   221  111  233 1    
   222  111  234 1    
   223  112  113 2    
   224  112  114 am   BACKBONE|DICT|INTERRES
   225  114  115 1    
   226  114  235 1    
   227  115  116 1    
   228  115  117 1    
   229  115  236 1    
   230  116  237 1    
   231  116  238 1    
   232  116  239 1    
   233  117  118 2    
   234  117  119 am   BACKBONE|DICT|INTERRES
   235  119  120 1    
   236  119  240 1    
   237  120  121 1    
   238  120  124 1    
   239  120  241 1    
   240  121  122 am   BACKBONE|DICT|INTERRES
   241  121  123 2    
   242  122  242 1    
   243  122  243 1    
   244  124  125 1    
   245  124  244 1    
   246  124  245 1    
   247  125  126 1    
   248  126  246 1    
   249  126  247 1    
@<TRIPOS>SUBSTRUCTURE
     1 UNK         1 GROUP             0       ****    0 ROOT    
