@<TRIPOS>MOLECULE
3R540
247   249    1
SMALL
USER_CHARGES


@<TRIPOS>ATOM
      1 CA          0.1998  -16.8589  -51.1786 C.3       0 UNK        -0.1800 
      2 C           0.2116  -15.9763  -49.9400 C.2       0 UNK         0.5000 
      3 O           1.1987  -15.2861  -49.6889 O.2       0 UNK        -0.5000 
      4 N          -0.8853  -15.9973  -49.1710 N.am      1 UNK        -0.5000 
      5 CA         -1.0968  -15.2086  -47.9506 C.3       1 UNK         0.1400 
      6 C6         -1.1645  -13.6774  -48.2289 C.3       23 UNK        -0.0398 
      7 S7         -2.4467  -12.8257  -47.2459 S.3       23 UNK        -0.2404 
      8 C8         -3.9234  -13.0053  -48.3096 C.3       23 UNK        -0.0205 
      9 C9         -4.2932  -14.4687  -48.5005 C.ar      23 UNK        -0.0193 
     10 C10        -4.1418  -15.0875  -49.7469 C.ar      23 UNK        -0.1150 
     11 C11        -4.3502  -16.4641  -49.8822 C.ar      23 UNK        -0.0193 
     12 C12        -4.7117  -17.2188  -48.7636 C.ar      23 UNK        -0.1150 
     13 C13        -4.8861  -16.6054  -47.5213 C.ar      23 UNK        -0.0193 
     14 C14        -4.7012  -15.2275  -47.3995 C.ar      23 UNK        -0.1150 
     15 C15        -5.2368  -17.4379  -46.3044 C.3       23 UNK        -0.0205 
     16 S16        -3.7405  -17.8970  -45.3723 S.3       23 UNK        -0.2404 
     17 C17        -4.4164  -19.2957  -44.4227 C.3       23 UNK        -0.0398 
     18 CA         -4.0552  -20.6347  -45.1080 C.3       11 UNK         0.1400 
     19 N          -2.6957  -21.0745  -44.7647 N.am      11 UNK        -0.5000 
     20 C          -2.0555  -22.1390  -45.2684 C.2       10 UNK         0.5000 
     21 O          -2.5320  -22.8327  -46.1670 O.2       10 UNK        -0.5000 
     22 CA         -0.6827  -22.5148  -44.6695 C.3       10 UNK         0.1400 
     23 CB          0.3677  -22.7448  -45.7691 C.3       10 UNK        -0.1800 
     24 N          -0.1645  -21.5536  -43.6892 N.am      10 UNK        -0.5000 
     25 C          -0.6234  -21.3976  -42.4385 C.2       9 UNK         0.5000 
     26 O          -1.5842  -22.0251  -41.9906 O.2       9 UNK        -0.5000 
     27 CA          0.0821  -20.3312  -41.5741 C.3       9 UNK         0.1400 
     28 CB         -0.1384  -20.5349  -40.0615 C.3       9 UNK        -0.1800 
     29 N           1.5085  -20.1748  -41.8794 N.am      9 UNK        -0.5000 
     30 C           2.4698  -21.1016  -41.7478 C.2       8 UNK         0.5000 
     31 O           2.2723  -22.2580  -41.3736 O.2       8 UNK        -0.5000 
     32 CA          3.9026  -20.6559  -42.0907 C.3       8 UNK         0.1400 
     33 CB          4.1810  -20.8389  -43.5907 C.3       8 UNK        -0.1800 
     34 N           4.1896  -19.2688  -41.7202 N.am      8 UNK        -0.5000 
     35 C           4.2447  -18.7914  -40.4675 C.2       7 UNK         0.5000 
     36 O           4.0208  -19.4793  -39.4705 O.2       7 UNK        -0.5000 
     37 CA          4.6504  -17.3118  -40.2901 C.3       7 UNK         0.1400 
     38 CB          5.7998  -17.1713  -39.2768 C.3       7 UNK        -0.1800 
     39 N           5.0725  -16.7020  -41.5544 N.am      7 UNK        -0.5000 
     40 C           4.3011  -15.9317  -42.3277 C.2       6 UNK         0.5000 
     41 O           3.1613  -15.5703  -42.0237 O.2       6 UNK        -0.5000 
     42 CA          4.9079  -15.5161  -43.6764 C.3       6 UNK         0.1400 
     43 CB          5.1193  -16.7293  -44.6025 C.3       6 UNK        -0.1800 
     44 N           4.0046  -14.5716  -44.3152 N.am      6 UNK        -0.5000 
     45 C           4.3447  -13.5813  -45.1452 C.2       5 UNK         0.5000 
     46 O           5.4986  -13.3736  -45.5228 O.2       5 UNK        -0.5000 
     47 CA          3.2068  -12.6674  -45.6417 C.3       5 UNK         0.1400 
     48 CB          2.9395  -12.9033  -47.1371 C.3       5 UNK        -0.1800 
     49 N           1.9574  -12.8713  -44.9050 N.am      5 UNK        -0.5000 
     50 C           1.6708  -12.3349  -43.7119 C.2       4 UNK         0.5000 
     51 O           2.4255  -11.5698  -43.1107 O.2       4 UNK        -0.5000 
     52 CA          0.3303  -12.7315  -43.0750 C.3       4 UNK         0.1400 
     53 CB         -0.8248  -11.9422  -43.7101 C.3       4 UNK        -0.1800 
     54 N           0.0688  -14.1671  -43.2128 N.am      4 UNK        -0.5000 
     55 C          -0.2066  -14.9908  -42.1905 C.2       3 UNK         0.5000 
     56 O          -0.2517  -14.6226  -41.0155 O.2       3 UNK        -0.5000 
     57 CA         -0.5151  -16.4688  -42.5083 C.3       3 UNK         0.1400 
     58 CB         -1.9918  -16.7835  -42.2172 C.3       3 UNK        -0.1800 
     59 N          -0.2349  -16.8270  -43.8988 N.am      3 UNK        -0.5000 
     60 C           0.8817  -17.4261  -44.3271 C.2       2 UNK         0.5000 
     61 O           1.7549  -17.8573  -43.5735 O.2       2 UNK        -0.5000 
     62 CA          1.0569  -17.6191  -45.8480 C.3       2 UNK         0.1400 
     63 CB          1.0202  -19.1137  -46.1967 C.3       2 UNK        -0.1800 
     64 N           0.0863  -16.9424  -46.7120 N.am      2 UNK        -0.5000 
     65 C          -0.1459  -15.6266  -46.8097 C.2       1 UNK         0.5000 
     66 O           0.3369  -14.7906  -46.0464 O.2       1 UNK        -0.5000 
     67 C          -5.1365  -21.7058  -44.8455 C.2       11 UNK         0.5000 
     68 O          -6.1597  -21.6957  -45.5298 O.2       11 UNK        -0.5000 
     69 N          -4.8657  -22.6581  -43.9403 N.am      12 UNK        -0.5000 
     70 CA         -5.6653  -23.8711  -43.7340 C.3       12 UNK         0.1400 
     71 CB         -5.0970  -24.6380  -42.5305 C.3       12 UNK        -0.1800 
     72 C          -5.7327  -24.7904  -44.9760 C.2       12 UNK         0.5000 
     73 O          -6.6868  -25.5571  -45.1088 O.2       12 UNK        -0.5000 
     74 N          -4.7384  -24.6771  -45.8667 N.am      13 UNK        -0.5000 
     75 CA         -4.6487  -25.3508  -47.1602 C.3       13 UNK         0.1400 
     76 CB         -3.3489  -26.1768  -47.1875 C.3       13 UNK        -0.1800 
     77 C          -4.6962  -24.3292  -48.3170 C.2       13 UNK         0.5000 
     78 O          -4.1820  -24.6193  -49.3967 O.2       13 UNK        -0.5000 
     79 N          -5.2711  -23.1391  -48.0718 N.am      14 UNK        -0.5000 
     80 CA         -5.4118  -22.0095  -49.0033 C.3       14 UNK         0.1400 
     81 CB         -6.4093  -22.3544  -50.1286 C.3       14 UNK        -0.1800 
     82 C          -4.0654  -21.4718  -49.5386 C.2       14 UNK         0.5000 
     83 O          -3.9845  -21.0511  -50.6917 O.2       14 UNK        -0.5000 
     84 N          -3.0370  -21.5007  -48.6788 N.am      15 UNK        -0.5000 
     85 CA         -1.6357  -21.1578  -48.9432 C.3       15 UNK         0.1400 
     86 CB         -1.4709  -19.7337  -49.5127 C.3       15 UNK        -0.1800 
     87 C          -0.8821  -22.2493  -49.7333 C.2       15 UNK         0.5000 
     88 O           0.1445  -21.9608  -50.3508 O.2       15 UNK        -0.5000 
     89 N          -1.3766  -23.4947  -49.6494 N.am      16 UNK        -0.5000 
     90 CA         -0.7759  -24.7388  -50.1351 C.3       16 UNK         0.1400 
     91 CB          0.4409  -25.1169  -49.2620 C.3       16 UNK        -0.1800 
     92 C          -0.4751  -24.6932  -51.6447 C.2       16 UNK         0.5000 
     93 O          -1.4090  -24.7281  -52.4443 O.2       16 UNK        -0.5000 
     94 N           0.8073  -24.5922  -52.0189 N.am      17 UNK        -0.5000 
     95 CA          1.2726  -24.5007  -53.4053 C.3       17 UNK         0.1400 
     96 CB          2.8082  -24.5360  -53.4197 C.3       17 UNK        -0.1800 
     97 C           0.7544  -23.2578  -54.1576 C.2       17 UNK         0.5000 
     98 O           0.6281  -23.3027  -55.3818 O.2       17 UNK        -0.5000 
     99 N           0.4407  -22.1840  -53.4195 N.am      18 UNK        -0.5000 
    100 CA        -0.1149  -20.9458  -53.9612 C.3       18 UNK         0.1400 
    101 CB         0.3062  -19.7725  -53.0666 C.3       18 UNK        -0.1800 
    102 C         -1.6451  -20.9849  -54.1415 C.2       18 UNK         0.5000 
    103 O         -2.1960  -20.0222  -54.6763 O.2       18 UNK        -0.5000 
    104 N         -2.3203  -22.0742  -53.7374 N.am      19 UNK        -0.5000 
    105 CA        -3.7773  -22.2318  -53.8452 C.3       19 UNK         0.1400 
    106 CB        -4.2165  -23.5439  -53.1818 C.3       19 UNK        -0.1800 
    107 C         -4.3092  -22.1577  -55.2895 C.2       19 UNK         0.5000 
    108 O         -5.4295  -21.6917  -55.4998 O.2       19 UNK        -0.5000 
    109 N         -3.4791  -22.5668  -56.2594 N.am      20 UNK        -0.5000 
    110 CA        -3.7493  -22.4611  -57.6941 C.3       20 UNK         0.1400 
    111 CB        -2.6745  -23.2445  -58.4627 C.3       20 UNK        -0.1800 
    112 C         -3.8208  -21.0048  -58.1978 C.2       20 UNK         0.5000 
    113 O         -4.5587  -20.7322  -59.1454 O.2       20 UNK        -0.5000 
    114 N         -3.0691  -20.0996  -57.5554 N.am      21 UNK        -0.5000 
    115 CA        -3.1157  -18.6595  -57.8081 C.3       21 UNK         0.1400 
    116 CB        -1.7395  -18.0431  -57.5099 C.3       21 UNK        -0.1800 
    117 C         -4.2121  -17.9833  -56.9661 C.2       21 UNK         0.5000 
    118 O         -4.8677  -17.0617  -57.4536 O.2       21 UNK        -0.5000 
    119 N         -4.3891  -18.4560  -55.7247 N.am      22 UNK        -0.5000 
    120 CA        -5.4212  -18.0076  -54.7786 C.3       22 UNK         0.1400 
    121 C         -6.8752  -18.2633  -55.2696 C.2       22 UNK         0.5000 
    122 N         -7.1755  -19.4388  -55.8086 N.am      22 UNK        -0.7600 
    123 O         -7.7312  -17.3881  -55.1729 O.2       22 UNK        -0.5000 
    124 C124       -5.1895  -18.6186  -53.3715 C.3       23 UNK        -0.0398 
    125 S125       -5.7375  -17.5253  -52.0193 S.3       23 UNK        -0.2404 
    126 C126       -4.1472  -17.1562  -51.2192 C.3       23 UNK        -0.0205 
    127 H127        0.9590  -17.6357  -51.0884 H         1 UNK         0.0600 
    128 H128        0.4211  -16.2658  -52.0659 H         1 UNK         0.0600 
    129 H129       -0.7675  -17.3395  -51.3264 H         1 UNK         0.0600 
    130 H130       -1.6683  -16.5712  -49.4480 H         1 UNK         0.3000 
    131 H131       -2.0658  -15.5401  -47.5890 H         1 UNK         0.0600 
    132 H132       -0.2001  -13.1969  -48.0571 H         1 UNK         0.0800 
    133 H133       -1.3893  -13.4919  -49.2800 H         1 UNK         0.0800 
    134 H134       -4.7612  -12.4805  -47.8486 H         1 UNK         0.0800 
    135 H135       -3.7426  -12.5176  -49.2688 H         1 UNK         0.0800 
    136 H136       -3.8255  -14.5063  -50.6017 H         1 UNK         0.1150 
    137 H137       -4.8498  -18.2866  -48.8623 H         1 UNK         0.1150 
    138 H138       -4.8062  -14.7559  -46.4322 H         1 UNK         0.1150 
    139 H139       -5.9168  -16.8865  -45.6531 H         1 UNK         0.0800 
    140 H140       -5.7701  -18.3368  -46.6189 H         1 UNK         0.0800 
    141 H141       -5.4963  -19.1599  -44.3312 H         1 UNK         0.0800 
    142 H142       -4.0320  -19.2603  -43.4025 H         1 UNK         0.0800 
    143 H143       -4.0705  -20.4821  -46.1891 H         1 UNK         0.0600 
    144 H144       -2.2360  -20.5598  -44.0297 H         1 UNK         0.3000 
    145 H145       -0.8276  -23.4670  -44.1553 H         1 UNK         0.0600 
    146 H146        1.3189  -23.0658  -45.3439 H         1 UNK         0.0600 
    147 H147        0.0466  -23.5256  -46.4596 H         1 UNK         0.0600 
    148 H148        0.5508  -21.8488  -46.3589 H         1 UNK         0.0600 
    149 H149        0.6308  -21.0014  -43.9726 H         1 UNK         0.3000 
    150 H150       -0.3857  -19.3855  -41.8432 H         1 UNK         0.0600 
    151 H151       -1.1991  -20.4964  -39.8108 H         1 UNK         0.0600 
    152 H152        0.3587  -19.7557  -39.4834 H         1 UNK         0.0600 
    153 H153        0.2427  -21.4985  -39.7223 H         1 UNK         0.0600 
    154 H154        1.7772  -19.2694  -42.2577 H         1 UNK         0.3000 
    155 H155        4.5878  -21.2998  -41.5354 H         1 UNK         0.0600 
    156 H156        3.5820  -20.1587  -44.1960 H         1 UNK         0.0600 
    157 H157        3.9531  -21.8561  -43.9124 H         1 UNK         0.0600 
    158 H158        5.2302  -20.6536  -43.8211 H         1 UNK         0.0600 
    159 H159        4.3438  -18.6226  -42.4788 H         1 UNK         0.3000 
    160 H160        3.7809  -16.7877  -39.8882 H         1 UNK         0.0600 
    161 H161        6.6888  -17.7154  -39.5980 H         1 UNK         0.0600 
    162 H162        5.5128  -17.5584  -38.2982 H         1 UNK         0.0600 
    163 H163        6.0774  -16.1260  -39.1395 H         1 UNK         0.0600 
    164 H164        6.0008  -16.9434  -41.8724 H         1 UNK         0.3000 
    165 H165        5.8659  -15.0304  -43.4793 H         1 UNK         0.0600 
    166 H166        5.5108  -16.4213  -45.5722 H         1 UNK         0.0600 
    167 H167        5.8350  -17.4343  -44.1788 H         1 UNK         0.0600 
    168 H168        4.1887  -17.2696  -44.7768 H         1 UNK         0.0600 
    169 H169        3.0500  -14.6256  -43.9837 H         1 UNK         0.3000 
    170 H170        3.5324  -11.6332  -45.5121 H         1 UNK         0.0600 
    171 H171        2.6358  -13.9320  -47.3358 H         1 UNK         0.0600 
    172 H172        2.1533  -12.2448  -47.5064 H         1 UNK         0.0600 
    173 H173        3.8330  -12.7060  -47.7306 H         1 UNK         0.0600 
    174 H174        1.2894  -13.5043  -45.3420 H         1 UNK         0.3000 
    175 H175        0.3874  -12.4507  -42.0214 H         1 UNK         0.0600 
    176 H176       -0.9249  -12.1651  -44.7723 H         1 UNK         0.0600 
    177 H177       -1.7740  -12.1764  -43.2282 H         1 UNK         0.0600 
    178 H178       -0.6653  -10.8677  -43.6129 H         1 UNK         0.0600 
    179 H179        0.1097  -14.5446  -44.1537 H         1 UNK         0.3000 
    180 H180        0.1004  -17.0676  -41.8343 H         1 UNK         0.0600 
    181 H181       -2.2162  -17.8335  -42.4011 H         1 UNK         0.0600 
    182 H182       -2.6597  -16.1856  -42.8386 H         1 UNK         0.0600 
    183 H183       -2.2399  -16.5775  -41.1753 H         1 UNK         0.0600 
    184 H184       -0.9122  -16.5330  -44.5872 H         1 UNK         0.3000 
    185 H185        2.0441  -17.2285  -46.1013 H         1 UNK         0.0600 
    186 H186        1.2560  -19.2812  -47.2480 H         1 UNK         0.0600 
    187 H187        1.7478  -19.6774  -45.6132 H         1 UNK         0.0600 
    188 H188        0.0346  -19.5381  -46.0019 H         1 UNK         0.0600 
    189 H189       -0.3810  -17.5354  -47.3807 H         1 UNK         0.3000 
    190 H190       -4.0068  -22.5906  -43.4120 H         1 UNK         0.3000 
    191 H191       -6.6862  -23.5643  -43.4973 H         1 UNK         0.0600 
    192 H192       -5.6821  -25.5358  -42.3266 H         1 UNK         0.0600 
    193 H193       -5.1166  -24.0271  -41.6278 H         1 UNK         0.0600 
    194 H194       -4.0660  -24.9496  -42.7031 H         1 UNK         0.0600 
    195 H195       -3.9957  -24.0080  -45.6900 H         1 UNK         0.3000 
    196 H196       -5.4922  -26.0292  -47.3004 H         1 UNK         0.0600 
    197 H197       -2.4666  -25.5390  -47.1173 H         1 UNK         0.0600 
    198 H198       -3.3161  -26.8852  -46.3597 H         1 UNK         0.0600 
    199 H199       -3.2662  -26.7544  -48.1089 H         1 UNK         0.0600 
    200 H200       -5.6617  -22.9831  -47.1498 H         1 UNK         0.3000 
    201 H201       -5.8453  -21.1927  -48.4244 H         1 UNK         0.0600 
    202 H202       -6.6039  -21.4877  -50.7617 H         1 UNK         0.0600 
    203 H203       -7.3667  -22.6771  -49.7199 H         1 UNK         0.0600 
    204 H204       -6.0343  -23.1509  -50.7711 H         1 UNK         0.0600 
    205 H205       -3.1921  -21.9283  -47.7715 H         1 UNK         0.3000 
    206 H206       -1.1582  -21.1457  -47.9642 H         1 UNK         0.0600 
    207 H207       -2.0143  -19.0050  -48.9115 H         1 UNK         0.0600 
    208 H208       -0.4218  -19.4366  -49.5167 H         1 UNK         0.0600 
    209 H209       -1.8324  -19.6624  -50.5376 H         1 UNK         0.0600 
    210 H210       -2.2857  -23.6103  -49.2197 H         1 UNK         0.3000 
    211 H211       -1.5289  -25.5169  -50.0015 H         1 UNK         0.0600 
    212 H212        0.8973  -26.0473  -49.6026 H         1 UNK         0.0600 
    213 H213        0.1376  -25.2732  -48.2269 H         1 UNK         0.0600 
    214 H214        1.2108  -24.3446  -49.2651 H         1 UNK         0.0600 
    215 H215        1.5133  -24.5348  -51.2995 H         1 UNK         0.3000 
    216 H216        0.9044  -25.3801  -53.9376 H         1 UNK         0.0600 
    217 H217        3.2345  -23.6915  -52.8766 H         1 UNK         0.0600 
    218 H218        3.1908  -24.4969  -54.4405 H         1 UNK         0.0600 
    219 H219        3.1868  -25.4530  -52.9676 H         1 UNK         0.0600 
    220 H220        0.5380  -22.2325  -52.4102 H         1 UNK         0.3000 
    221 H221        0.3114  -20.7684  -54.9508 H         1 UNK         0.0600 
    222 H222        1.3916  -19.6936  -53.0049 H         1 UNK         0.0600 
    223 H223       -0.0774  -19.8832  -52.0545 H         1 UNK         0.0600 
    224 H224       -0.0654  -18.8253  -53.4595 H         1 UNK         0.0600 
    225 H225       -1.8162  -22.8441  -53.3124 H         1 UNK         0.3000 
    226 H226       -4.2320  -21.4111  -53.2914 H         1 UNK         0.0600 
    227 H227       -3.7948  -24.4123  -53.6887 H         1 UNK         0.0600 
    228 H228       -3.9072  -23.5795  -52.1367 H         1 UNK         0.0600 
    229 H229       -5.3020  -23.6469  -53.2012 H         1 UNK         0.0600 
    230 H230       -2.5770  -22.9335  -55.9918 H         1 UNK         0.3000 
    231 H231       -4.7181  -22.9256  -57.8894 H         1 UNK         0.0600 
    232 H232       -1.6767  -22.8424  -58.2817 H         1 UNK         0.0600 
    233 H233       -2.8552  -23.2043  -59.5378 H         1 UNK         0.0600 
    234 H234       -2.6703  -24.2958  -58.1742 H         1 UNK         0.0600 
    235 H235       -2.5289  -20.3951  -56.7526 H         1 UNK         0.3000 
    236 H236       -3.3406  -18.4805  -58.8618 H         1 UNK         0.0600 
    237 H237       -1.4545  -18.1668  -56.4647 H         1 UNK         0.0600 
    238 H238       -0.9630  -18.4983  -58.1247 H         1 UNK         0.0600 
    239 H239       -1.7387  -16.9737  -57.7242 H         1 UNK         0.0600 
    240 H240       -3.7500  -19.1697  -55.3902 H         1 UNK         0.3000 
    241 H241       -5.2965  -16.9256  -54.7022 H         1 UNK         0.0600 
    242 H242       -6.4925  -20.1928  -55.8318 H         1 UNK         0.3800 
    243 H243       -8.1125  -19.6082  -56.1371 H         1 UNK         0.3800 
    244 H244       -4.1308  -18.8347  -53.2246 H         1 UNK         0.0800 
    245 H245       -5.6943  -19.5803  -53.2656 H         1 UNK         0.0800 
    246 H246       -3.5995  -18.0858  -51.0582 H         1 UNK         0.0800 
    247 H247       -3.5375  -16.5447  -51.8863 H         1 UNK         0.0800 
@<TRIPOS>BOND
     1    1    2 1    
     2    1  127 1    
     3    1  128 1    
     4    1  129 1    
     5    2    3 2    
     6    2    4 am   BACKBONE|DICT|INTERRES
     7    4    5 1    
     8    4  130 1    
     9    5    6 1    
    10    5   65 1    
    11    5  131 1    
    12    6    7 1    
    13    6  132 1    
    14    6  133 1    
    15    7    8 1    
    16    8    9 1    
    17    8  134 1    
    18    8  135 1    
    19    9   10 ar   
    20    9   14 ar   
    21   10   11 ar   
    22   10  136 1    
    23   11   12 ar   
    24   11  126 1    
    25   12   13 ar   
    26   12  137 1    
    27   13   14 ar   
    28   13   15 1    
    29   14  138 1    
    30   15   16 1    
    31   15  139 1    
    32   15  140 1    
    33   16   17 1    
    34   17   18 1    
    35   17  141 1    
    36   17  142 1    
    37   18   19 1    
    38   18   67 1    
    39   18  143 1    
    40   19   20 am   BACKBONE|DICT|INTERRES
    41   19  144 1    
    42   20   21 2    
    43   20   22 1    
    44   22   23 1    
    45   22   24 1    
    46   22  145 1    
    47   23  146 1    
    48   23  147 1    
    49   23  148 1    
    50   24   25 am   BACKBONE|DICT|INTERRES
    51   24  149 1    
    52   25   26 2    
    53   25   27 1    
    54   27   28 1    
    55   27   29 1    
    56   27  150 1    
    57   28  151 1    
    58   28  152 1    
    59   28  153 1    
    60   29   30 am   BACKBONE|DICT|INTERRES
    61   29  154 1    
    62   30   31 2    
    63   30   32 1    
    64   32   33 1    
    65   32   34 1    
    66   32  155 1    
    67   33  156 1    
    68   33  157 1    
    69   33  158 1    
    70   34   35 am   BACKBONE|DICT|INTERRES
    71   34  159 1    
    72   35   36 2    
    73   35   37 1    
    74   37   38 1    
    75   37   39 1    
    76   37  160 1    
    77   38  161 1    
    78   38  162 1    
    79   38  163 1    
    80   39   40 am   BACKBONE|DICT|INTERRES
    81   39  164 1    
    82   40   41 2    
    83   40   42 1    
    84   42   43 1    
    85   42   44 1    
    86   42  165 1    
    87   43  166 1    
    88   43  167 1    
    89   43  168 1    
    90   44   45 am   BACKBONE|DICT|INTERRES
    91   44  169 1    
    92   45   46 2    
    93   45   47 1    
    94   47   48 1    
    95   47   49 1    
    96   47  170 1    
    97   48  171 1    
    98   48  172 1    
    99   48  173 1    
   100   49   50 am   BACKBONE|DICT|INTERRES
   101   49  174 1    
   102   50   51 2    
   103   50   52 1    
   104   52   53 1    
   105   52   54 1    
   106   52  175 1    
   107   53  176 1    
   108   53  177 1    
   109   53  178 1    
   110   54   55 am   BACKBONE|DICT|INTERRES
   111   54  179 1    
   112   55   56 2    
   113   55   57 1    
   114   57   58 1    
   115   57   59 1    
   116   57  180 1    
   117   58  181 1    
   118   58  182 1    
   119   58  183 1    
   120   59   60 am   BACKBONE|DICT|INTERRES
   121   59  184 1    
   122   60   61 2    
   123   60   62 1    
   124   62   63 1    
   125   62   64 1    
   126   62  185 1    
   127   63  186 1    
   128   63  187 1    
   129   63  188 1    
   130   64   65 am   BACKBONE|DICT|INTERRES
   131   64  189 1    
   132   65   66 2    
   133   67   68 2    
   134   67   69 am   BACKBONE|DICT|INTERRES
   135   69   70 1    
   136   69  190 1    
   137   70   71 1    
   138   70   72 1    
   139   70  191 1    
   140   71  192 1    
   141   71  193 1    
   142   71  194 1    
   143   72   73 2    
   144   72   74 am   BACKBONE|DICT|INTERRES
   145   74   75 1    
   146   74  195 1    
   147   75   76 1    
   148   75   77 1    
   149   75  196 1    
   150   76  197 1    
   151   76  198 1    
   152   76  199 1    
   153   77   78 2    
   154   77   79 am   BACKBONE|DICT|INTERRES
   155   79   80 1    
   156   79  200 1    
   157   80   81 1    
   158   80   82 1    
   159   80  201 1    
   160   81  202 1    
   161   81  203 1    
   162   81  204 1    
   163   82   83 2    
   164   82   84 am   BACKBONE|DICT|INTERRES
   165   84   85 1    
   166   84  205 1    
   167   85   86 1    
   168   85   87 1    
   169   85  206 1    
   170   86  207 1    
   171   86  208 1    
   172   86  209 1    
   173   87   88 2    
   174   87   89 am   BACKBONE|DICT|INTERRES
   175   89   90 1    
   176   89  210 1    
   177   90   91 1    
   178   90   92 1    
   179   90  211 1    
   180   91  212 1    
   181   91  213 1    
   182   91  214 1    
   183   92   93 2    
   184   92   94 am   BACKBONE|DICT|INTERRES
   185   94   95 1    
   186   94  215 1    
   187   95   96 1    
   188   95   97 1    
   189   95  216 1    
   190   96  217 1    
   191   96  218 1    
   192   96  219 1    
   193   97   98 2    
   194   97   99 am   BACKBONE|DICT|INTERRES
   195   99  100 1    
   196   99  220 1    
   197  100  101 1    
   198  100  102 1    
   199  100  221 1    
   200  101  222 1    
   201  101  223 1    
   202  101  224 1    
   203  102  103 2    
   204  102  104 am   BACKBONE|DICT|INTERRES
   205  104  105 1    
   206  104  225 1    
   207  105  106 1    
   208  105  107 1    
   209  105  226 1    
   210  106  227 1    
   211  106  228 1    
   212  106  229 1    
   213  107  108 2    
   214  107  109 am   BACKBONE|DICT|INTERRES
   215  109  110 1    
   216  109  230 1    
   217  110  111 1    
   218  110  112 1    
   219  110  231 1    
   220  111  232 1    
   221  111  233 1    
   222  111  234 1    
   223  112  113 2    
   224  112  114 am   BACKBONE|DICT|INTERRES
   225  114  115 1    
   226  114  235 1    
   227  115  116 1    
   228  115  117 1    
   229  115  236 1    
   230  116  237 1    
   231  116  238 1    
   232  116  239 1    
   233  117  118 2    
   234  117  119 am   BACKBONE|DICT|INTERRES
   235  119  120 1    
   236  119  240 1    
   237  120  121 1    
   238  120  124 1    
   239  120  241 1    
   240  121  122 am   BACKBONE|DICT|INTERRES
   241  121  123 2    
   242  122  242 1    
   243  122  243 1    
   244  124  125 1    
   245  124  244 1    
   246  124  245 1    
   247  125  126 1    
   248  126  246 1    
   249  126  247 1    
@<TRIPOS>SUBSTRUCTURE
     1 UNK         1 GROUP             0       ****    0 ROOT    
