@<TRIPOS>MOLECULE
3R540
247   249    1
SMALL
USER_CHARGES


@<TRIPOS>ATOM
      1 CA          1.4462   -8.3687  -51.0256 C.3       0 UNK        -0.1800 
      2 C           2.1057   -9.6124  -50.4459 C.2       0 UNK         0.5000 
      3 O           3.3333   -9.7090  -50.4408 O.2       0 UNK        -0.5000 
      4 N           1.2968  -10.5653  -49.9675 N.am      1 UNK        -0.5000 
      5 CA          1.7409  -11.8085  -49.3305 C.3       1 UNK         0.1400 
      6 C6          0.5691  -12.8026  -49.1293 C.3       23 UNK        -0.0398 
      7 S7         -0.1213  -13.3835  -50.7145 S.3       23 UNK        -0.2404 
      8 C8          0.1209  -15.1840  -50.5895 C.3       23 UNK        -0.0205 
      9 C9         -0.9826  -15.8523  -49.7813 C.ar      23 UNK        -0.0193 
     10 C10        -2.1978  -16.1652  -50.3963 C.ar      23 UNK        -0.1150 
     11 C11        -3.2162  -16.8013  -49.6822 C.ar      23 UNK        -0.0193 
     12 C12        -2.9988  -17.1519  -48.3473 C.ar      23 UNK        -0.1150 
     13 C13        -1.7878  -16.8475  -47.7140 C.ar      23 UNK        -0.0193 
     14 C14        -0.7916  -16.1746  -48.4336 C.ar      23 UNK        -0.1150 
     15 C15        -1.6194  -17.2168  -46.2410 C.3       23 UNK        -0.0205 
     16 S16         0.0630  -17.6792  -45.6846 S.3       23 UNK        -0.2404 
     17 C17         0.7559  -18.7859  -46.9715 C.3       23 UNK        -0.0398 
     18 CA          0.4588  -20.2979  -46.8215 C.3       11 UNK         0.1400 
     19 N           0.6506  -20.8114  -45.4637 N.am      11 UNK        -0.5000 
     20 C           0.7375  -22.1150  -45.1600 C.2       10 UNK         0.5000 
     21 O           0.7312  -23.0140  -46.0007 O.2       10 UNK        -0.5000 
     22 CA          0.7584  -22.4799  -43.6657 C.3       10 UNK         0.1400 
     23 CB          2.1891  -22.5306  -43.1098 C.3       10 UNK        -0.1800 
     24 N          -0.0650  -21.5762  -42.8591 N.am      10 UNK        -0.5000 
     25 C          -1.4043  -21.5510  -42.9279 C.2       9 UNK         0.5000 
     26 O          -2.0558  -22.2427  -43.7110 O.2       9 UNK        -0.5000 
     27 CA         -2.1383  -20.5797  -42.0001 C.3       9 UNK         0.1400 
     28 CB         -2.0675  -21.0593  -40.5414 C.3       9 UNK        -0.1800 
     29 N          -1.5709  -19.2378  -42.0907 N.am      9 UNK        -0.5000 
     30 C          -2.2659  -18.1297  -42.3831 C.2       8 UNK         0.5000 
     31 O          -3.4371  -18.1429  -42.7648 O.2       8 UNK        -0.5000 
     32 CA         -1.5353  -16.7769  -42.2139 C.3       8 UNK         0.1400 
     33 CB         -2.4792  -15.6314  -41.7988 C.3       8 UNK        -0.1800 
     34 N          -0.3742  -16.8379  -41.3212 N.am      8 UNK        -0.5000 
     35 C          -0.3316  -17.2257  -40.0371 C.2       7 UNK         0.5000 
     36 O          -1.3344  -17.4563  -39.3599 O.2       7 UNK        -0.5000 
     37 CA          1.0717  -17.4313  -39.4214 C.3       7 UNK         0.1400 
     38 CB          1.0945  -18.5943  -38.4084 C.3       7 UNK        -0.1800 
     39 N           2.1454  -17.6053  -40.4102 N.am      7 UNK        -0.5000 
     40 C           2.2550  -18.5448  -41.3661 C.2       6 UNK         0.5000 
     41 O           1.4162  -19.4323  -41.5498 O.2       6 UNK        -0.5000 
     42 CA          3.4789  -18.4433  -42.3034 C.3       6 UNK         0.1400 
     43 CB          3.0796  -18.5958  -43.7794 C.3       6 UNK        -0.1800 
     44 N           4.1487  -17.1515  -42.1708 N.am      6 UNK        -0.5000 
     45 C           5.3382  -16.9212  -41.6041 C.2       5 UNK         0.5000 
     46 O           6.0543  -17.8027  -41.1289 O.2       5 UNK        -0.5000 
     47 CA          5.7996  -15.4495  -41.5470 C.3       5 UNK         0.1400 
     48 CB          6.8445  -15.1707  -42.6381 C.3       5 UNK        -0.1800 
     49 N           4.6964  -14.4929  -41.6890 N.am      5 UNK        -0.5000 
     50 C           3.7604  -14.2684  -40.7545 C.2       4 UNK         0.5000 
     51 O           3.7468  -14.8282  -39.6581 O.2       4 UNK        -0.5000 
     52 CA          2.6135  -13.3067  -41.1243 C.3       4 UNK         0.1400 
     53 CB          2.9649  -11.8686  -40.7162 C.3       4 UNK        -0.1800 
     54 N           2.2543  -13.3287  -42.5448 N.am      4 UNK        -0.5000 
     55 C           1.8195  -14.4049  -43.2149 C.2       3 UNK         0.5000 
     56 O           1.6877  -15.5167  -42.7063 O.2       3 UNK        -0.5000 
     57 CA          1.5224  -14.2282  -44.7123 C.3       3 UNK         0.1400 
     58 CB          0.0378  -13.9068  -44.9379 C.3       3 UNK        -0.1800 
     59 N           2.3338  -13.2039  -45.3690 N.am      3 UNK        -0.5000 
     60 C           3.6677  -13.2144  -45.4943 C.2       2 UNK         0.5000 
     61 O           4.3959  -14.0388  -44.9389 O.2       2 UNK        -0.5000 
     62 CA          4.2650  -12.1424  -46.4323 C.3       2 UNK         0.1400 
     63 CB          5.7714  -12.3424  -46.6770 C.3       2 UNK        -0.1800 
     64 N           3.5697  -12.1374  -47.7242 N.am      2 UNK        -0.5000 
     65 C           2.4090  -11.5177  -47.9728 C.2       1 UNK         0.5000 
     66 O           1.8276  -10.8098  -47.1468 O.2       1 UNK        -0.5000 
     67 C          -0.9275  -20.6581  -47.3805 C.2       11 UNK         0.5000 
     68 O          -1.0231  -21.0328  -48.5476 O.2       11 UNK        -0.5000 
     69 N          -1.9631  -20.5850  -46.5323 N.am      12 UNK        -0.5000 
     70 CA         -3.3379  -20.9199  -46.8945 C.3       12 UNK         0.1400 
     71 CB         -4.3066  -20.4461  -45.8003 C.3       12 UNK        -0.1800 
     72 C          -3.5024  -22.4204  -47.1741 C.2       12 UNK         0.5000 
     73 O          -4.1670  -22.7798  -48.1418 O.2       12 UNK        -0.5000 
     74 N          -2.8550  -23.2582  -46.3519 N.am      13 UNK        -0.5000 
     75 CA         -2.7890  -24.7078  -46.5248 C.3       13 UNK         0.1400 
     76 CB         -2.1461  -25.3394  -45.2808 C.3       13 UNK        -0.1800 
     77 C          -2.0339  -25.1220  -47.8016 C.2       13 UNK         0.5000 
     78 O          -2.4940  -26.0162  -48.5113 O.2       13 UNK        -0.5000 
     79 N          -0.9018  -24.4605  -48.0823 N.am      14 UNK        -0.5000 
     80 CA         -0.0836  -24.6982  -49.2721 C.3       14 UNK         0.1400 
     81 CB          1.2678  -23.9829  -49.1213 C.3       14 UNK        -0.1800 
     82 C          -0.7893  -24.2674  -50.5699 C.2       14 UNK         0.5000 
     83 O          -0.8646  -25.0516  -51.5162 O.2       14 UNK        -0.5000 
     84 N          -1.3212  -23.0388  -50.5830 N.am      15 UNK        -0.5000 
     85 CA         -1.9836  -22.4288  -51.7372 C.3       15 UNK         0.1400 
     86 CB         -1.8416  -20.9023  -51.6453 C.3       15 UNK        -0.1800 
     87 C          -3.4512  -22.8670  -51.9250 C.2       15 UNK         0.5000 
     88 O          -4.1298  -22.3244  -52.7962 O.2       15 UNK        -0.5000 
     89 N          -3.9250  -23.8370  -51.1307 N.am      16 UNK        -0.5000 
     90 CA         -5.2100  -24.5120  -51.3238 C.3       16 UNK         0.1400 
     91 CB         -5.6200  -25.2248  -50.0262 C.3       16 UNK        -0.1800 
     92 C          -5.1693  -25.5301  -52.4785 C.2       16 UNK         0.5000 
     93 O          -6.2181  -25.8447  -53.0437 O.2       16 UNK        -0.5000 
     94 N          -3.9717  -26.0415  -52.8001 N.am      17 UNK        -0.5000 
     95 CA         -3.7122  -27.0402  -53.8373 C.3       17 UNK         0.1400 
     96 CB         -2.3557  -27.7063  -53.5450 C.3       17 UNK        -0.1800 
     97 C          -3.7823  -26.4274  -55.2512 C.2       17 UNK         0.5000 
     98 O          -2.7592  -26.3112  -55.9292 O.2       17 UNK        -0.5000 
     99 N          -4.9980  -26.0293  -55.6497 N.am      18 UNK        -0.5000 
    100 CA        -5.3402  -25.2932  -56.8697 C.3       18 UNK         0.1400 
    101 CB        -5.0660  -26.1469  -58.1285 C.3       18 UNK        -0.1800 
    102 C         -4.6781  -23.8981  -56.8939 C.2       18 UNK         0.5000 
    103 O         -4.4769  -23.3106  -55.8288 O.2       18 UNK        -0.5000 
    104 N         -4.3786  -23.3797  -58.0943 N.am      19 UNK        -0.5000 
    105 CA        -3.7879  -22.0643  -58.3626 C.3       19 UNK         0.1400 
    106 CB        -2.3171  -22.0207  -57.8879 C.3       19 UNK        -0.1800 
    107 C         -4.6652  -20.9280  -57.7971 C.2       19 UNK         0.5000 
    108 O         -5.7135  -20.6361  -58.3751 O.2       19 UNK        -0.5000 
    109 N         -4.2400  -20.3275  -56.6783 N.am      20 UNK        -0.5000 
    110 CA        -4.9831  -19.3047  -55.9428 C.3       20 UNK         0.1400 
    111 CB        -4.0317  -18.6207  -54.9504 C.3       20 UNK        -0.1800 
    112 C         -6.2245  -19.8560  -55.2115 C.2       20 UNK         0.5000 
    113 O         -7.1760  -19.1008  -55.0082 O.2       20 UNK        -0.5000 
    114 N         -6.1954  -21.1480  -54.8446 N.am      21 UNK        -0.5000 
    115 CA        -7.2327  -21.8987  -54.1286 C.3       21 UNK         0.1400 
    116 CB        -8.4470  -22.1447  -55.0467 C.3       21 UNK        -0.1800 
    117 C         -7.6063  -21.2543  -52.7757 C.2       21 UNK         0.5000 
    118 O         -8.7842  -21.0190  -52.4963 O.2       21 UNK        -0.5000 
    119 N         -6.5755  -20.9479  -51.9810 N.am      22 UNK        -0.5000 
    120 CA        -6.6691  -20.3073  -50.6596 C.3       22 UNK         0.1400 
    121 C         -7.3688  -21.1841  -49.5800 C.2       22 UNK         0.5000 
    122 N         -7.8128  -20.5818  -48.4842 N.am      22 UNK        -0.7600 
    123 O         -7.5073  -22.3976  -49.7096 O.2       22 UNK        -0.5000 
    124 C124       -5.2797  -19.8217  -50.1719 C.3       23 UNK        -0.0398 
    125 S125       -4.5438  -18.6065  -51.3205 S.3       23 UNK        -0.2404 
    126 C126       -4.5579  -17.0677  -50.3507 C.3       23 UNK        -0.0205 
    127 H127        1.7665   -7.4836  -50.4760 H         1 UNK         0.0600 
    128 H128        0.3585   -8.4253  -50.9748 H         1 UNK         0.0600 
    129 H129        1.7315   -8.2448  -52.0702 H         1 UNK         0.0600 
    130 H130        0.2972  -10.4246  -49.9944 H         1 UNK         0.3000 
    131 H131        2.4797  -12.2751  -49.9860 H         1 UNK         0.0600 
    132 H132        0.8972  -13.6650  -48.5469 H         1 UNK         0.0800 
    133 H133       -0.2356  -12.3426  -48.5527 H         1 UNK         0.0800 
    134 H134        0.1293  -15.6027  -51.5970 H         1 UNK         0.0800 
    135 H135        1.1021  -15.4055  -50.1670 H         1 UNK         0.0800 
    136 H136       -2.3556  -15.9033  -51.4333 H         1 UNK         0.1150 
    137 H137       -3.7848  -17.6463  -47.7940 H         1 UNK         0.1150 
    138 H138        0.1405  -15.9197  -47.9504 H         1 UNK         0.1150 
    139 H139       -2.2989  -18.0244  -45.9767 H         1 UNK         0.0800 
    140 H140       -1.9451  -16.3621  -45.6480 H         1 UNK         0.0800 
    141 H141        0.4849  -18.4411  -47.9688 H         1 UNK         0.0800 
    142 H142        1.8372  -18.6516  -46.9227 H         1 UNK         0.0800 
    143 H143        1.1801  -20.8169  -47.4571 H         1 UNK         0.0600 
    144 H144        0.6372  -20.1324  -44.7172 H         1 UNK         0.3000 
    145 H145        0.3388  -23.4843  -43.5760 H         1 UNK         0.0600 
    146 H146        2.1966  -22.9080  -42.0872 H         1 UNK         0.0600 
    147 H147        2.8153  -23.1963  -43.7053 H         1 UNK         0.0600 
    148 H148        2.6651  -21.5524  -43.1028 H         1 UNK         0.0600 
    149 H149        0.4252  -20.9503  -42.2264 H         1 UNK         0.3000 
    150 H150       -3.1877  -20.5776  -42.3019 H         1 UNK         0.0600 
    151 H151       -2.4689  -22.0685  -40.4401 H         1 UNK         0.0600 
    152 H152       -2.6502  -20.4093  -39.8883 H         1 UNK         0.0600 
    153 H153       -1.0428  -21.0711  -40.1672 H         1 UNK         0.0600 
    154 H154       -0.5982  -19.1386  -41.8204 H         1 UNK         0.3000 
    155 H155       -1.1368  -16.5336  -43.1972 H         1 UNK         0.0600 
    156 H156       -1.9378  -14.6893  -41.7111 H         1 UNK         0.0600 
    157 H157       -2.9621  -15.8326  -40.8422 H         1 UNK         0.0600 
    158 H158       -3.2663  -15.4832  -42.5389 H         1 UNK         0.0600 
    159 H159        0.5103  -16.6049  -41.7675 H         1 UNK         0.3000 
    160 H160        1.3024  -16.5121  -38.8812 H         1 UNK         0.0600 
    161 H161        0.8068  -19.5387  -38.8716 H         1 UNK         0.0600 
    162 H162        0.4055  -18.4117  -37.5830 H         1 UNK         0.0600 
    163 H163        2.0872  -18.7213  -37.9764 H         1 UNK         0.0600 
    164 H164        2.8758  -16.9070  -40.3683 H         1 UNK         0.3000 
    165 H165        4.1529  -19.2599  -42.0387 H         1 UNK         0.0600 
    166 H166        2.4701  -17.7563  -44.1108 H         1 UNK         0.0600 
    167 H167        3.9601  -18.6371  -44.4205 H         1 UNK         0.0600 
    168 H168        2.5102  -19.5040  -43.9566 H         1 UNK         0.0600 
    169 H169        3.6133  -16.3577  -42.5025 H         1 UNK         0.3000 
    170 H170        6.2697  -15.2892  -40.5745 H         1 UNK         0.0600 
    171 H171        7.7079  -15.8283  -42.5293 H         1 UNK         0.0600 
    172 H172        6.4355  -15.3298  -43.6365 H         1 UNK         0.0600 
    173 H173        7.2090  -14.1447  -42.5841 H         1 UNK         0.0600 
    174 H174        4.6108  -14.0341  -42.5873 H         1 UNK         0.3000 
    175 H175        1.7328  -13.6180  -40.5585 H         1 UNK         0.0600 
    176 H176        3.8206  -11.4891  -41.2762 H         1 UNK         0.0600 
    177 H177        2.1257  -11.1938  -40.8857 H         1 UNK         0.0600 
    178 H178        3.2153  -11.8132  -39.6558 H         1 UNK         0.0600 
    179 H179        2.3444  -12.4595  -43.0498 H         1 UNK         0.3000 
    180 H180        1.7440  -15.1812  -45.1964 H         1 UNK         0.0600 
    181 H181       -0.2257  -12.9243  -44.5447 H         1 UNK         0.0600 
    182 H182       -0.6027  -14.6373  -44.4452 H         1 UNK         0.0600 
    183 H183       -0.2124  -13.9237  -45.9989 H         1 UNK         0.0600 
    184 H184        1.8318  -12.4575  -45.8353 H         1 UNK         0.3000 
    185 H185        4.1329  -11.1741  -45.9450 H         1 UNK         0.0600 
    186 H186        5.9796  -13.3045  -47.1470 H         1 UNK         0.0600 
    187 H187        6.1729  -11.5601  -47.3214 H         1 UNK         0.0600 
    188 H188        6.3288  -12.3065  -45.7400 H         1 UNK         0.0600 
    189 H189        3.9726  -12.7240  -48.4412 H         1 UNK         0.3000 
    190 H190       -1.7911  -20.3271  -45.5728 H         1 UNK         0.3000 
    191 H191       -3.5775  -20.3819  -47.8130 H         1 UNK         0.0600 
    192 H192       -4.2435  -19.3689  -45.6493 H         1 UNK         0.0600 
    193 H193       -5.3380  -20.6730  -46.0735 H         1 UNK         0.0600 
    194 H194       -4.1087  -20.9296  -44.8438 H         1 UNK         0.0600 
    195 H195       -2.3795  -22.8729  -45.5413 H         1 UNK         0.3000 
    196 H196       -3.8120  -25.0811  -46.6072 H         1 UNK         0.0600 
    197 H197       -2.1092  -26.4259  -45.3689 H         1 UNK         0.0600 
    198 H198       -2.7151  -25.1043  -44.3810 H         1 UNK         0.0600 
    199 H199       -1.1254  -24.9862  -45.1314 H         1 UNK         0.0600 
    200 H200       -0.5575  -23.7703  -47.4235 H         1 UNK         0.3000 
    201 H201        0.1102  -25.7708  -49.3399 H         1 UNK         0.0600 
    202 H202        1.8149  -24.3555  -48.2552 H         1 UNK         0.0600 
    203 H203        1.1440  -22.9063  -48.9993 H         1 UNK         0.0600 
    204 H204        1.8967  -24.1452  -49.9975 H         1 UNK         0.0600 
    205 H205       -1.2294  -22.4459  -49.7605 H         1 UNK         0.3000 
    206 H206       -1.4575  -22.7445  -52.6405 H         1 UNK         0.0600 
    207 H207       -0.7936  -20.6066  -51.5978 H         1 UNK         0.0600 
    208 H208       -2.2761  -20.4099  -52.5152 H         1 UNK         0.0600 
    209 H209       -2.3360  -20.5065  -50.7595 H         1 UNK         0.0600 
    210 H210       -3.3344  -24.1863  -50.3893 H         1 UNK         0.3000 
    211 H211       -5.9710  -23.7668  -51.5604 H         1 UNK         0.0600 
    212 H212       -4.8875  -25.9744  -49.7270 H         1 UNK         0.0600 
    213 H213       -6.5779  -25.7321  -50.1469 H         1 UNK         0.0600 
    214 H214       -5.7374  -24.5194  -49.2052 H         1 UNK         0.0600 
    215 H215       -3.1597  -25.6978  -52.3052 H         1 UNK         0.3000 
    216 H216       -4.4801  -27.8143  -53.7769 H         1 UNK         0.0600 
    217 H217       -2.3553  -28.1866  -52.5664 H         1 UNK         0.0600 
    218 H218       -1.5393  -26.9829  -53.5615 H         1 UNK         0.0600 
    219 H219       -2.1300  -28.4757  -54.2844 H         1 UNK         0.0600 
    220 H220       -5.7368  -26.0883  -54.9556 H         1 UNK         0.3000 
    221 H221       -6.4150  -25.1143  -56.8189 H         1 UNK         0.0600 
    222 H222       -3.9985  -26.2645  -58.3183 H         1 UNK         0.0600 
    223 H223       -5.4956  -27.1435  -58.0257 H         1 UNK         0.0600 
    224 H224       -5.5139  -25.7004  -59.0166 H         1 UNK         0.0600 
    225 H225       -4.6089  -23.9242  -58.9131 H         1 UNK         0.3000 
    226 H226       -3.7850  -21.9380  -59.4463 H         1 UNK         0.0600 
    227 H227       -1.7224  -22.7733  -58.4057 H         1 UNK         0.0600 
    228 H228       -1.8643  -21.0518  -58.1024 H         1 UNK         0.0600 
    229 H229       -2.2157  -22.2060  -56.8182 H         1 UNK         0.0600 
    230 H230       -3.3888  -20.6629  -56.2515 H         1 UNK         0.3000 
    231 H231       -5.3274  -18.5533  -56.6567 H         1 UNK         0.0600 
    232 H232       -4.5442  -17.8316  -54.3985 H         1 UNK         0.0600 
    233 H233       -3.1860  -18.1620  -55.4626 H         1 UNK         0.0600 
    234 H234       -3.6400  -19.3299  -54.2207 H         1 UNK         0.0600 
    235 H235       -5.3596  -21.6869  -55.0561 H         1 UNK         0.3000 
    236 H236       -6.7965  -22.8713  -53.8954 H         1 UNK         0.0600 
    237 H237       -8.1459  -22.6367  -55.9717 H         1 UNK         0.0600 
    238 H238       -9.1798  -22.7889  -54.5596 H         1 UNK         0.0600 
    239 H239       -8.9510  -21.2144  -55.3103 H         1 UNK         0.0600 
    240 H240       -5.6436  -21.2073  -52.2912 H         1 UNK         0.3000 
    241 H241       -7.3015  -19.4270  -50.7906 H         1 UNK         0.0600 
    242 H242       -7.7403  -19.5852  -48.3538 H         1 UNK         0.3800 
    243 H243       -8.2667  -21.1395  -47.7777 H         1 UNK         0.3800 
    244 H244       -5.3471  -19.3780  -49.1780 H         1 UNK         0.0800 
    245 H245       -4.6007  -20.6698  -50.0766 H         1 UNK         0.0800 
    246 H246       -5.3629  -17.0833  -49.6149 H         1 UNK         0.0800 
    247 H247       -4.7908  -16.2418  -51.0245 H         1 UNK         0.0800 
@<TRIPOS>BOND
     1    1    2 1    
     2    1  127 1    
     3    1  128 1    
     4    1  129 1    
     5    2    3 2    
     6    2    4 am   BACKBONE|DICT|INTERRES
     7    4    5 1    
     8    4  130 1    
     9    5    6 1    
    10    5   65 1    
    11    5  131 1    
    12    6    7 1    
    13    6  132 1    
    14    6  133 1    
    15    7    8 1    
    16    8    9 1    
    17    8  134 1    
    18    8  135 1    
    19    9   10 ar   
    20    9   14 ar   
    21   10   11 ar   
    22   10  136 1    
    23   11   12 ar   
    24   11  126 1    
    25   12   13 ar   
    26   12  137 1    
    27   13   14 ar   
    28   13   15 1    
    29   14  138 1    
    30   15   16 1    
    31   15  139 1    
    32   15  140 1    
    33   16   17 1    
    34   17   18 1    
    35   17  141 1    
    36   17  142 1    
    37   18   19 1    
    38   18   67 1    
    39   18  143 1    
    40   19   20 am   BACKBONE|DICT|INTERRES
    41   19  144 1    
    42   20   21 2    
    43   20   22 1    
    44   22   23 1    
    45   22   24 1    
    46   22  145 1    
    47   23  146 1    
    48   23  147 1    
    49   23  148 1    
    50   24   25 am   BACKBONE|DICT|INTERRES
    51   24  149 1    
    52   25   26 2    
    53   25   27 1    
    54   27   28 1    
    55   27   29 1    
    56   27  150 1    
    57   28  151 1    
    58   28  152 1    
    59   28  153 1    
    60   29   30 am   BACKBONE|DICT|INTERRES
    61   29  154 1    
    62   30   31 2    
    63   30   32 1    
    64   32   33 1    
    65   32   34 1    
    66   32  155 1    
    67   33  156 1    
    68   33  157 1    
    69   33  158 1    
    70   34   35 am   BACKBONE|DICT|INTERRES
    71   34  159 1    
    72   35   36 2    
    73   35   37 1    
    74   37   38 1    
    75   37   39 1    
    76   37  160 1    
    77   38  161 1    
    78   38  162 1    
    79   38  163 1    
    80   39   40 am   BACKBONE|DICT|INTERRES
    81   39  164 1    
    82   40   41 2    
    83   40   42 1    
    84   42   43 1    
    85   42   44 1    
    86   42  165 1    
    87   43  166 1    
    88   43  167 1    
    89   43  168 1    
    90   44   45 am   BACKBONE|DICT|INTERRES
    91   44  169 1    
    92   45   46 2    
    93   45   47 1    
    94   47   48 1    
    95   47   49 1    
    96   47  170 1    
    97   48  171 1    
    98   48  172 1    
    99   48  173 1    
   100   49   50 am   BACKBONE|DICT|INTERRES
   101   49  174 1    
   102   50   51 2    
   103   50   52 1    
   104   52   53 1    
   105   52   54 1    
   106   52  175 1    
   107   53  176 1    
   108   53  177 1    
   109   53  178 1    
   110   54   55 am   BACKBONE|DICT|INTERRES
   111   54  179 1    
   112   55   56 2    
   113   55   57 1    
   114   57   58 1    
   115   57   59 1    
   116   57  180 1    
   117   58  181 1    
   118   58  182 1    
   119   58  183 1    
   120   59   60 am   BACKBONE|DICT|INTERRES
   121   59  184 1    
   122   60   61 2    
   123   60   62 1    
   124   62   63 1    
   125   62   64 1    
   126   62  185 1    
   127   63  186 1    
   128   63  187 1    
   129   63  188 1    
   130   64   65 am   BACKBONE|DICT|INTERRES
   131   64  189 1    
   132   65   66 2    
   133   67   68 2    
   134   67   69 am   BACKBONE|DICT|INTERRES
   135   69   70 1    
   136   69  190 1    
   137   70   71 1    
   138   70   72 1    
   139   70  191 1    
   140   71  192 1    
   141   71  193 1    
   142   71  194 1    
   143   72   73 2    
   144   72   74 am   BACKBONE|DICT|INTERRES
   145   74   75 1    
   146   74  195 1    
   147   75   76 1    
   148   75   77 1    
   149   75  196 1    
   150   76  197 1    
   151   76  198 1    
   152   76  199 1    
   153   77   78 2    
   154   77   79 am   BACKBONE|DICT|INTERRES
   155   79   80 1    
   156   79  200 1    
   157   80   81 1    
   158   80   82 1    
   159   80  201 1    
   160   81  202 1    
   161   81  203 1    
   162   81  204 1    
   163   82   83 2    
   164   82   84 am   BACKBONE|DICT|INTERRES
   165   84   85 1    
   166   84  205 1    
   167   85   86 1    
   168   85   87 1    
   169   85  206 1    
   170   86  207 1    
   171   86  208 1    
   172   86  209 1    
   173   87   88 2    
   174   87   89 am   BACKBONE|DICT|INTERRES
   175   89   90 1    
   176   89  210 1    
   177   90   91 1    
   178   90   92 1    
   179   90  211 1    
   180   91  212 1    
   181   91  213 1    
   182   91  214 1    
   183   92   93 2    
   184   92   94 am   BACKBONE|DICT|INTERRES
   185   94   95 1    
   186   94  215 1    
   187   95   96 1    
   188   95   97 1    
   189   95  216 1    
   190   96  217 1    
   191   96  218 1    
   192   96  219 1    
   193   97   98 2    
   194   97   99 am   BACKBONE|DICT|INTERRES
   195   99  100 1    
   196   99  220 1    
   197  100  101 1    
   198  100  102 1    
   199  100  221 1    
   200  101  222 1    
   201  101  223 1    
   202  101  224 1    
   203  102  103 2    
   204  102  104 am   BACKBONE|DICT|INTERRES
   205  104  105 1    
   206  104  225 1    
   207  105  106 1    
   208  105  107 1    
   209  105  226 1    
   210  106  227 1    
   211  106  228 1    
   212  106  229 1    
   213  107  108 2    
   214  107  109 am   BACKBONE|DICT|INTERRES
   215  109  110 1    
   216  109  230 1    
   217  110  111 1    
   218  110  112 1    
   219  110  231 1    
   220  111  232 1    
   221  111  233 1    
   222  111  234 1    
   223  112  113 2    
   224  112  114 am   BACKBONE|DICT|INTERRES
   225  114  115 1    
   226  114  235 1    
   227  115  116 1    
   228  115  117 1    
   229  115  236 1    
   230  116  237 1    
   231  116  238 1    
   232  116  239 1    
   233  117  118 2    
   234  117  119 am   BACKBONE|DICT|INTERRES
   235  119  120 1    
   236  119  240 1    
   237  120  121 1    
   238  120  124 1    
   239  120  241 1    
   240  121  122 am   BACKBONE|DICT|INTERRES
   241  121  123 2    
   242  122  242 1    
   243  122  243 1    
   244  124  125 1    
   245  124  244 1    
   246  124  245 1    
   247  125  126 1    
   248  126  246 1    
   249  126  247 1    
@<TRIPOS>SUBSTRUCTURE
     1 UNK         1 GROUP             0       ****    0 ROOT    
