@<TRIPOS>MOLECULE
3R540
247   249    1
SMALL
USER_CHARGES


@<TRIPOS>ATOM
      1 CA          1.7981  -11.3219  -49.0026 C.3       0 UNK        -0.1800 
      2 C           1.1174  -12.2043  -47.9669 C.2       0 UNK         0.5000 
      3 O           1.2104  -11.9332  -46.7704 O.2       0 UNK        -0.5000 
      4 N           0.4065  -13.2457  -48.4192 N.am      1 UNK        -0.5000 
      5 CA         -0.2918  -14.2342  -47.5820 C.3       1 UNK         0.1400 
      6 C6         -0.5527  -15.5693  -48.3280 C.3       23 UNK        -0.0398 
      7 S7         -1.4009  -15.3707  -49.9351 S.3       23 UNK        -0.2404 
      8 C8         -0.0133  -15.5517  -51.1014 C.3       23 UNK        -0.0205 
      9 C9          0.1508  -16.9814  -51.5989 C.ar      23 UNK        -0.0193 
     10 C10        -0.2889  -17.3242  -52.8813 C.ar      23 UNK        -0.1150 
     11 C11        -0.0788  -18.6101  -53.3858 C.ar      23 UNK        -0.0193 
     12 C12         0.5485  -19.5680  -52.5846 C.ar      23 UNK        -0.1150 
     13 C13         0.9978  -19.2384  -51.3026 C.ar      23 UNK        -0.0193 
     14 C14         0.7951  -17.9443  -50.8142 C.ar      23 UNK        -0.1150 
     15 C15         1.7555  -20.2680  -50.4785 C.3       23 UNK        -0.0205 
     16 S16         0.6427  -21.5250  -49.7834 S.3       23 UNK        -0.2404 
     17 C17         0.6391  -21.1003  -48.0115 C.3       23 UNK        -0.0398 
     18 CA         -0.0435  -22.1975  -47.1592 C.3       11 UNK         0.1400 
     19 N           0.4760  -22.2211  -45.7882 N.am      11 UNK        -0.5000 
     20 C           0.2709  -23.2197  -44.9183 C.2       10 UNK         0.5000 
     21 O          -0.3739  -24.2327  -45.1863 O.2       10 UNK        -0.5000 
     22 CA          0.8409  -23.0393  -43.4993 C.3       10 UNK         0.1400 
     23 CB          2.3473  -23.3364  -43.4709 C.3       10 UNK        -0.1800 
     24 N           0.5878  -21.7040  -42.9568 N.am      10 UNK        -0.5000 
     25 C          -0.6338  -21.2093  -42.7101 C.2       9 UNK         0.5000 
     26 O          -1.6727  -21.8486  -42.8667 O.2       9 UNK        -0.5000 
     27 CA         -0.7182  -19.7368  -42.2731 C.3       9 UNK         0.1400 
     28 CB         -0.4134  -19.5880  -40.7753 C.3       9 UNK        -0.1800 
     29 N           0.1715  -18.8709  -43.0446 N.am      9 UNK        -0.5000 
     30 C           0.1053  -18.6876  -44.3707 C.2       8 UNK         0.5000 
     31 O          -0.7413  -19.2045  -45.0973 O.2       8 UNK        -0.5000 
     32 CA          1.2121  -17.8288  -44.9992 C.3       8 UNK         0.1400 
     33 CB          0.9511  -16.3386  -44.7508 C.3       8 UNK        -0.1800 
     34 N           2.5349  -18.1915  -44.4931 N.am      8 UNK        -0.5000 
     35 C           3.1369  -19.3671  -44.7214 C.2       7 UNK         0.5000 
     36 O           2.6555  -20.2577  -45.4210 O.2       7 UNK        -0.5000 
     37 CA          4.4835  -19.5988  -44.0133 C.3       7 UNK         0.1400 
     38 CB          5.6336  -18.9785  -44.8202 C.3       7 UNK        -0.1800 
     39 N           4.4976  -19.0599  -42.6522 N.am      7 UNK        -0.5000 
     40 C           3.7653  -19.5469  -41.6402 C.2       6 UNK         0.5000 
     41 O           3.0226  -20.5234  -41.7409 O.2       6 UNK        -0.5000 
     42 CA          3.8384  -18.7774  -40.3077 C.3       6 UNK         0.1400 
     43 CB          5.0756  -19.2018  -39.5024 C.3       6 UNK        -0.1800 
     44 N           3.8428  -17.3204  -40.4823 N.am      6 UNK        -0.5000 
     45 C           2.8357  -16.6273  -41.0289 C.2       5 UNK         0.5000 
     46 O           1.8138  -17.1547  -41.4727 O.2       5 UNK        -0.5000 
     47 CA          3.0204  -15.1040  -41.1471 C.3       5 UNK         0.1400 
     48 CB          3.7983  -14.7541  -42.4254 C.3       5 UNK        -0.1800 
     49 N           1.7257  -14.4259  -41.1855 N.am      5 UNK        -0.5000 
     50 C           0.9391  -14.2179  -40.1239 C.2       4 UNK         0.5000 
     51 O           1.2894  -14.4632  -38.9675 O.2       4 UNK        -0.5000 
     52 CA         -0.4637  -13.6314  -40.4049 C.3       4 UNK         0.1400 
     53 CB         -1.2123  -13.2407  -39.1172 C.3       4 UNK        -0.1800 
     54 N          -0.4321  -12.4683  -41.2975 N.am      4 UNK        -0.5000 
     55 C          -0.3243  -12.5159  -42.6301 C.2       3 UNK         0.5000 
     56 O          -0.1703  -13.5632  -43.2619 O.2       3 UNK        -0.5000 
     57 CA         -0.3382  -11.1680  -43.3710 C.3       3 UNK         0.1400 
     58 CB          1.0964  -10.6587  -43.5769 C.3       3 UNK        -0.1800 
     59 N          -0.9917  -11.3022  -44.6717 N.am      3 UNK        -0.5000 
     60 C          -2.3214  -11.3537  -44.8481 C.2       2 UNK         0.5000 
     61 O          -3.1339  -11.1770  -43.9391 O.2       2 UNK        -0.5000 
     62 CA         -2.8404  -11.6553  -46.2708 C.3       2 UNK         0.1400 
     63 CB         -3.1856  -10.3517  -47.0068 C.3       2 UNK        -0.1800 
     64 N          -1.8782  -12.4112  -47.0712 N.am      2 UNK        -0.5000 
     65 C          -1.5470  -13.6921  -46.8570 C.2       1 UNK         0.5000 
     66 O          -2.1679  -14.4277  -46.0892 O.2       1 UNK        -0.5000 
     67 C          -1.5863  -22.1014  -47.2060 C.2       11 UNK         0.5000 
     68 O          -2.2092  -22.7008  -48.0850 O.2       11 UNK        -0.5000 
     69 N          -2.1818  -21.3769  -46.2487 N.am      12 UNK        -0.5000 
     70 CA         -3.6271  -21.2904  -46.0474 C.3       12 UNK         0.1400 
     71 CB         -3.9542  -20.1100  -45.1222 C.3       12 UNK        -0.1800 
     72 C          -4.2194  -22.6021  -45.5042 C.2       12 UNK         0.5000 
     73 O          -5.2642  -23.0313  -45.9907 O.2       12 UNK        -0.5000 
     74 N          -3.5311  -23.2425  -44.5475 N.am      13 UNK        -0.5000 
     75 CA         -3.8976  -24.5477  -43.9865 C.3       13 UNK         0.1400 
     76 CB         -3.0139  -24.8560  -42.7688 C.3       13 UNK        -0.1800 
     77 C          -3.8184  -25.6868  -45.0209 C.2       13 UNK         0.5000 
     78 O          -4.6695  -26.5764  -45.0153 O.2       13 UNK        -0.5000 
     79 N          -2.8289  -25.6090  -45.9212 N.am      14 UNK        -0.5000 
     80 CA         -2.6766  -26.4795  -47.0899 C.3       14 UNK         0.1400 
     81 CB         -1.2446  -26.3297  -47.6287 C.3       14 UNK        -0.1800 
     82 C          -3.7000  -26.1915  -48.2101 C.2       14 UNK         0.5000 
     83 O          -3.7855  -26.9720  -49.1580 O.2       14 UNK        -0.5000 
     84 N          -4.4282  -25.0703  -48.0965 N.am      15 UNK        -0.5000 
     85 CA         -5.4312  -24.5206  -49.0146 C.3       15 UNK         0.1400 
     86 CB         -6.5880  -25.5115  -49.2513 C.3       15 UNK        -0.1800 
     87 C          -4.8583  -23.9728  -50.3357 C.2       15 UNK         0.5000 
     88 O          -5.6301  -23.5035  -51.1708 O.2       15 UNK        -0.5000 
     89 N          -3.5303  -23.9861  -50.4998 N.am      16 UNK        -0.5000 
     90 CA         -2.8332  -23.4968  -51.6867 C.3       16 UNK         0.1400 
     91 CB         -1.3791  -23.9860  -51.6637 C.3       16 UNK        -0.1800 
     92 C          -2.9186  -21.9687  -51.8339 C.2       16 UNK         0.5000 
     93 O          -3.1207  -21.4843  -52.9474 O.2       16 UNK        -0.5000 
     94 N          -2.8280  -21.2391  -50.7128 N.am      17 UNK        -0.5000 
     95 CA         -3.0321  -19.7878  -50.6829 C.3       17 UNK         0.1400 
     96 CB         -2.4541  -19.1976  -49.3896 C.3       17 UNK        -0.1800 
     97 C          -4.5170  -19.4082  -50.8233 C.2       17 UNK         0.5000 
     98 O          -4.8252  -18.3785  -51.4217 O.2       17 UNK        -0.5000 
     99 N          -5.4077  -20.2525  -50.2818 N.am      18 UNK        -0.5000 
    100 CA        -6.8595  -20.0671  -50.3152 C.3       18 UNK         0.1400 
    101 CB        -7.5229  -21.0158  -49.3043 C.3       18 UNK        -0.1800 
    102 C         -7.4392  -20.2695  -51.7262 C.2       18 UNK         0.5000 
    103 O         -8.2514  -19.4598  -52.1745 O.2       18 UNK        -0.5000 
    104 N         -6.9865  -21.3289  -52.4103 N.am      19 UNK        -0.5000 
    105 CA        -7.3307  -21.6331  -53.8001 C.3       19 UNK         0.1400 
    106 CB        -7.0209  -23.1137  -54.0727 C.3       19 UNK        -0.1800 
    107 C         -6.5854  -20.7443  -54.8145 C.2       19 UNK         0.5000 
    108 O         -7.0038  -20.6788  -55.9708 O.2       19 UNK        -0.5000 
    109 N         -5.4923  -20.1049  -54.3694 N.am      20 UNK        -0.5000 
    110 CA        -4.5262  -19.3300  -55.1517 C.3       20 UNK         0.1400 
    111 CB        -5.1676  -18.0516  -55.7283 C.3       20 UNK        -0.1800 
    112 C         -3.8433  -20.2111  -56.2156 C.2       20 UNK         0.5000 
    113 O         -3.8330  -19.8775  -57.4024 O.2       20 UNK        -0.5000 
    114 N         -3.2870  -21.3399  -55.7569 N.am      21 UNK        -0.5000 
    115 CA        -2.6364  -22.3928  -56.5426 C.3       21 UNK         0.1400 
    116 CB        -2.5918  -23.6728  -55.6885 C.3       21 UNK        -0.1800 
    117 C         -1.2436  -21.9878  -57.0805 C.2       21 UNK         0.5000 
    118 O         -0.2800  -22.7452  -56.9530 O.2       21 UNK        -0.5000 
    119 N         -1.1711  -20.7907  -57.6658 N.am      22 UNK        -0.5000 
    120 CA         0.0215  -20.1620  -58.2496 C.3       22 UNK         0.1400 
    121 C         -0.0756  -20.0047  -59.7964 C.2       22 UNK         0.5000 
    122 N         -1.1379  -20.4568  -60.4530 N.am      22 UNK        -0.7600 
    123 O          0.8418  -19.4801  -60.4222 O.2       22 UNK        -0.5000 
    124 C124        0.3126  -18.8047  -57.5566 C.3       23 UNK        -0.0398 
    125 S125        1.0025  -19.0020  -55.8792 S.3       23 UNK        -0.2404 
    126 C126       -0.4744  -18.9472  -54.8144 C.3       23 UNK        -0.0205 
    127 H127        1.6163  -11.6743  -50.0182 H         1 UNK         0.0600 
    128 H128        1.4286  -10.2994  -48.9252 H         1 UNK         0.0600 
    129 H129        2.8748  -11.3101  -48.8340 H         1 UNK         0.0600 
    130 H130        0.3213  -13.3919  -49.4147 H         1 UNK         0.3000 
    131 H131        0.4002  -14.4687  -46.7736 H         1 UNK         0.0600 
    132 H132        0.4005  -16.0724  -48.4823 H         1 UNK         0.0800 
    133 H133       -1.1348  -16.2581  -47.7128 H         1 UNK         0.0800 
    134 H134        0.9182  -15.2105  -50.6479 H         1 UNK         0.0800 
    135 H135       -0.1912  -14.8838  -51.9457 H         1 UNK         0.0800 
    136 H136       -0.7646  -16.5777  -53.5018 H         1 UNK         0.1150 
    137 H137        0.7206  -20.5617  -52.9741 H         1 UNK         0.1150 
    138 H138        1.1624  -17.6849  -49.8329 H         1 UNK         0.1150 
    139 H139        2.3295  -19.7843  -49.6869 H         1 UNK         0.0800 
    140 H140        2.4864  -20.7665  -51.1167 H         1 UNK         0.0800 
    141 H141        0.1928  -20.1186  -47.8469 H         1 UNK         0.0800 
    142 H142        1.6845  -21.0077  -47.7166 H         1 UNK         0.0800 
    143 H143        0.2201  -23.1654  -47.5914 H         1 UNK         0.0600 
    144 H144        1.0508  -21.4332  -45.5052 H         1 UNK         0.3000 
    145 H145        0.3433  -23.7614  -42.8489 H         1 UNK         0.0600 
    146 H146        2.7383  -23.2890  -42.4544 H         1 UNK         0.0600 
    147 H147        2.5553  -24.3365  -43.8532 H         1 UNK         0.0600 
    148 H148        2.9112  -22.6285  -44.0782 H         1 UNK         0.0600 
    149 H149        1.4007  -21.1317  -42.7511 H         1 UNK         0.3000 
    150 H150       -1.7410  -19.3968  -42.4471 H         1 UNK         0.0600 
    151 H151        0.6079  -19.8879  -40.5399 H         1 UNK         0.0600 
    152 H152       -1.0844  -20.2053  -40.1769 H         1 UNK         0.0600 
    153 H153       -0.5409  -18.5558  -40.4485 H         1 UNK         0.0600 
    154 H154        0.8789  -18.3642  -42.5168 H         1 UNK         0.3000 
    155 H155        1.1999  -18.0024  -46.0775 H         1 UNK         0.0600 
    156 H156        0.9751  -16.0906  -43.6908 H         1 UNK         0.0600 
    157 H157       -0.0351  -16.0538  -45.1175 H         1 UNK         0.0600 
    158 H158        1.6900  -15.7172  -45.2561 H         1 UNK         0.0600 
    159 H159        2.9771  -17.5378  -43.8660 H         1 UNK         0.3000 
    160 H160        4.6487  -20.6768  -43.9558 H         1 UNK         0.0600 
    161 H161        5.5385  -17.8943  -44.8930 H         1 UNK         0.0600 
    162 H162        5.6550  -19.3753  -45.8361 H         1 UNK         0.0600 
    163 H163        6.5989  -19.2013  -44.3653 H         1 UNK         0.0600 
    164 H164        5.0820  -18.2549  -42.4824 H         1 UNK         0.3000 
    165 H165        2.9506  -19.0402  -39.7286 H         1 UNK         0.0600 
    166 H166        5.0857  -18.7322  -38.5186 H         1 UNK         0.0600 
    167 H167        6.0018  -18.9341  -40.0124 H         1 UNK         0.0600 
    168 H168        5.0872  -20.2813  -39.3455 H         1 UNK         0.0600 
    169 H169        4.6575  -16.8267  -40.1466 H         1 UNK         0.3000 
    170 H170        3.5843  -14.7479  -40.2824 H         1 UNK         0.0600 
    171 H171        4.7833  -15.2223  -42.4280 H         1 UNK         0.0600 
    172 H172        3.2747  -15.0843  -43.3227 H         1 UNK         0.0600 
    173 H173        3.9521  -13.6779  -42.5083 H         1 UNK         0.0600 
    174 H174        1.3280  -14.2424  -42.1004 H         1 UNK         0.3000 
    175 H175       -1.0396  -14.4236  -40.8884 H         1 UNK         0.0600 
    176 H176       -0.6868  -12.4588  -38.5677 H         1 UNK         0.0600 
    177 H177       -2.2163  -12.8784  -39.3393 H         1 UNK         0.0600 
    178 H178       -1.3208  -14.0969  -38.4502 H         1 UNK         0.0600 
    179 H179       -0.5026  -11.5667  -40.8479 H         1 UNK         0.3000 
    180 H180       -0.8841  -10.4348  -42.7734 H         1 UNK         0.0600 
    181 H181        1.7007  -11.3727  -44.1381 H         1 UNK         0.0600 
    182 H182        1.5928  -10.4919  -42.6202 H         1 UNK         0.0600 
    183 H183        1.1064   -9.7128  -44.1187 H         1 UNK         0.0600 
    184 H184       -0.3813  -11.5112  -45.4538 H         1 UNK         0.3000 
    185 H185       -3.7526  -12.2479  -46.1746 H         1 UNK         0.0600 
    186 H186       -3.6092  -10.5542  -47.9907 H         1 UNK         0.0600 
    187 H187       -3.9231   -9.7727  -46.4494 H         1 UNK         0.0600 
    188 H188       -2.3064   -9.7205  -47.1419 H         1 UNK         0.0600 
    189 H189       -1.3191  -11.8841  -47.7254 H         1 UNK         0.3000 
    190 H190       -1.6021  -20.8334  -45.6150 H         1 UNK         0.3000 
    191 H191       -4.0952  -21.0965  -47.0145 H         1 UNK         0.0600 
    192 H192       -5.0309  -20.0127  -44.9785 H         1 UNK         0.0600 
    193 H193       -3.5952  -19.1705  -45.5431 H         1 UNK         0.0600 
    194 H194       -3.5000  -20.2297  -44.1386 H         1 UNK         0.0600 
    195 H195       -2.7113  -22.7932  -44.1475 H         1 UNK         0.3000 
    196 H196       -4.9329  -24.4839  -43.6454 H         1 UNK         0.0600 
    197 H197       -1.9585  -24.9020  -43.0378 H         1 UNK         0.0600 
    198 H198       -3.1292  -24.0958  -41.9961 H         1 UNK         0.0600 
    199 H199       -3.2819  -25.8150  -42.3237 H         1 UNK         0.0600 
    200 H200       -2.1164  -24.8958  -45.7934 H         1 UNK         0.3000 
    201 H201       -2.8190  -27.5142  -46.7720 H         1 UNK         0.0600 
    202 H202       -1.0480  -25.3121  -47.9677 H         1 UNK         0.0600 
    203 H203       -1.0698  -26.9968  -48.4737 H         1 UNK         0.0600 
    204 H204       -0.5075  -26.5757  -46.8641 H         1 UNK         0.0600 
    205 H205       -4.2697  -24.5031  -47.2733 H         1 UNK         0.3000 
    206 H206       -5.8508  -23.6559  -48.5009 H         1 UNK         0.0600 
    207 H207       -6.9955  -25.8741  -48.3076 H         1 UNK         0.0600 
    208 H208       -7.4048  -25.0341  -49.7941 H         1 UNK         0.0600 
    209 H209       -6.2724  -26.3749  -49.8371 H         1 UNK         0.0600 
    210 H210       -2.9591  -24.3027  -49.7292 H         1 UNK         0.3000 
    211 H211       -3.3171  -23.9300  -52.5647 H         1 UNK         0.0600 
    212 H212       -0.7915  -23.5263  -52.4595 H         1 UNK         0.0600 
    213 H213       -1.3300  -25.0659  -51.8037 H         1 UNK         0.0600 
    214 H214       -0.8944  -23.7558  -50.7158 H         1 UNK         0.0600 
    215 H215       -2.6381  -21.7109  -49.8348 H         1 UNK         0.3000 
    216 H216       -2.4934  -19.3418  -51.5222 H         1 UNK         0.0600 
    217 H217       -2.9003  -19.6426  -48.5018 H         1 UNK         0.0600 
    218 H218       -2.6303  -18.1227  -49.3395 H         1 UNK         0.0600 
    219 H219       -1.3777  -19.3437  -49.3430 H         1 UNK         0.0600 
    220 H220       -5.0642  -21.0911  -49.8407 H         1 UNK         0.3000 
    221 H221       -7.0760  -19.0417  -50.0075 H         1 UNK         0.0600 
    222 H222       -7.1194  -20.8734  -48.3015 H         1 UNK         0.0600 
    223 H223       -7.3853  -22.0619  -49.5773 H         1 UNK         0.0600 
    224 H224       -8.5969  -20.8337  -49.2510 H         1 UNK         0.0600 
    225 H225       -6.3697  -21.9932  -51.9472 H         1 UNK         0.3000 
    226 H226       -8.4019  -21.4741  -53.9400 H         1 UNK         0.0600 
    227 H227       -5.9565  -23.3268  -53.9631 H         1 UNK         0.0600 
    228 H228       -7.5645  -23.7638  -53.3869 H         1 UNK         0.0600 
    229 H229       -7.3096  -23.3952  -55.0861 H         1 UNK         0.0600 
    230 H230       -5.2334  -20.2627  -53.4058 H         1 UNK         0.3000 
    231 H231       -3.7450  -19.0204  -54.4555 H         1 UNK         0.0600 
    232 H232       -5.9349  -18.2762  -56.4694 H         1 UNK         0.0600 
    233 H233       -4.4174  -17.4275  -56.2151 H         1 UNK         0.0600 
    234 H234       -5.6263  -17.4539  -54.9406 H         1 UNK         0.0600 
    235 H235       -3.2964  -21.4856  -54.7486 H         1 UNK         0.3000 
    236 H236       -3.2625  -22.5975  -57.4132 H         1 UNK         0.0600 
    237 H237       -3.5878  -23.9543  -55.3460 H         1 UNK         0.0600 
    238 H238       -2.1967  -24.5140  -56.2592 H         1 UNK         0.0600 
    239 H239       -1.9592  -23.5437  -54.8096 H         1 UNK         0.0600 
    240 H240       -2.0343  -20.2577  -57.7332 H         1 UNK         0.3000 
    241 H241        0.8859  -20.8099  -58.0943 H         1 UNK         0.0600 
    242 H242       -1.1815  -20.3547  -61.4551 H         1 UNK         0.3800 
    243 H243       -1.8947  -20.9066  -59.9630 H         1 UNK         0.3800 
    244 H244       -0.5816  -18.1803  -57.5270 H         1 UNK         0.0800 
    245 H245        1.0537  -18.2339  -58.1187 H         1 UNK         0.0800 
    246 H246       -1.1851  -18.2131  -55.1966 H         1 UNK         0.0800 
    247 H247       -0.9758  -19.9148  -54.8344 H         1 UNK         0.0800 
@<TRIPOS>BOND
     1    1    2 1    
     2    1  127 1    
     3    1  128 1    
     4    1  129 1    
     5    2    3 2    
     6    2    4 am   BACKBONE|DICT|INTERRES
     7    4    5 1    
     8    4  130 1    
     9    5    6 1    
    10    5   65 1    
    11    5  131 1    
    12    6    7 1    
    13    6  132 1    
    14    6  133 1    
    15    7    8 1    
    16    8    9 1    
    17    8  134 1    
    18    8  135 1    
    19    9   10 ar   
    20    9   14 ar   
    21   10   11 ar   
    22   10  136 1    
    23   11   12 ar   
    24   11  126 1    
    25   12   13 ar   
    26   12  137 1    
    27   13   14 ar   
    28   13   15 1    
    29   14  138 1    
    30   15   16 1    
    31   15  139 1    
    32   15  140 1    
    33   16   17 1    
    34   17   18 1    
    35   17  141 1    
    36   17  142 1    
    37   18   19 1    
    38   18   67 1    
    39   18  143 1    
    40   19   20 am   BACKBONE|DICT|INTERRES
    41   19  144 1    
    42   20   21 2    
    43   20   22 1    
    44   22   23 1    
    45   22   24 1    
    46   22  145 1    
    47   23  146 1    
    48   23  147 1    
    49   23  148 1    
    50   24   25 am   BACKBONE|DICT|INTERRES
    51   24  149 1    
    52   25   26 2    
    53   25   27 1    
    54   27   28 1    
    55   27   29 1    
    56   27  150 1    
    57   28  151 1    
    58   28  152 1    
    59   28  153 1    
    60   29   30 am   BACKBONE|DICT|INTERRES
    61   29  154 1    
    62   30   31 2    
    63   30   32 1    
    64   32   33 1    
    65   32   34 1    
    66   32  155 1    
    67   33  156 1    
    68   33  157 1    
    69   33  158 1    
    70   34   35 am   BACKBONE|DICT|INTERRES
    71   34  159 1    
    72   35   36 2    
    73   35   37 1    
    74   37   38 1    
    75   37   39 1    
    76   37  160 1    
    77   38  161 1    
    78   38  162 1    
    79   38  163 1    
    80   39   40 am   BACKBONE|DICT|INTERRES
    81   39  164 1    
    82   40   41 2    
    83   40   42 1    
    84   42   43 1    
    85   42   44 1    
    86   42  165 1    
    87   43  166 1    
    88   43  167 1    
    89   43  168 1    
    90   44   45 am   BACKBONE|DICT|INTERRES
    91   44  169 1    
    92   45   46 2    
    93   45   47 1    
    94   47   48 1    
    95   47   49 1    
    96   47  170 1    
    97   48  171 1    
    98   48  172 1    
    99   48  173 1    
   100   49   50 am   BACKBONE|DICT|INTERRES
   101   49  174 1    
   102   50   51 2    
   103   50   52 1    
   104   52   53 1    
   105   52   54 1    
   106   52  175 1    
   107   53  176 1    
   108   53  177 1    
   109   53  178 1    
   110   54   55 am   BACKBONE|DICT|INTERRES
   111   54  179 1    
   112   55   56 2    
   113   55   57 1    
   114   57   58 1    
   115   57   59 1    
   116   57  180 1    
   117   58  181 1    
   118   58  182 1    
   119   58  183 1    
   120   59   60 am   BACKBONE|DICT|INTERRES
   121   59  184 1    
   122   60   61 2    
   123   60   62 1    
   124   62   63 1    
   125   62   64 1    
   126   62  185 1    
   127   63  186 1    
   128   63  187 1    
   129   63  188 1    
   130   64   65 am   BACKBONE|DICT|INTERRES
   131   64  189 1    
   132   65   66 2    
   133   67   68 2    
   134   67   69 am   BACKBONE|DICT|INTERRES
   135   69   70 1    
   136   69  190 1    
   137   70   71 1    
   138   70   72 1    
   139   70  191 1    
   140   71  192 1    
   141   71  193 1    
   142   71  194 1    
   143   72   73 2    
   144   72   74 am   BACKBONE|DICT|INTERRES
   145   74   75 1    
   146   74  195 1    
   147   75   76 1    
   148   75   77 1    
   149   75  196 1    
   150   76  197 1    
   151   76  198 1    
   152   76  199 1    
   153   77   78 2    
   154   77   79 am   BACKBONE|DICT|INTERRES
   155   79   80 1    
   156   79  200 1    
   157   80   81 1    
   158   80   82 1    
   159   80  201 1    
   160   81  202 1    
   161   81  203 1    
   162   81  204 1    
   163   82   83 2    
   164   82   84 am   BACKBONE|DICT|INTERRES
   165   84   85 1    
   166   84  205 1    
   167   85   86 1    
   168   85   87 1    
   169   85  206 1    
   170   86  207 1    
   171   86  208 1    
   172   86  209 1    
   173   87   88 2    
   174   87   89 am   BACKBONE|DICT|INTERRES
   175   89   90 1    
   176   89  210 1    
   177   90   91 1    
   178   90   92 1    
   179   90  211 1    
   180   91  212 1    
   181   91  213 1    
   182   91  214 1    
   183   92   93 2    
   184   92   94 am   BACKBONE|DICT|INTERRES
   185   94   95 1    
   186   94  215 1    
   187   95   96 1    
   188   95   97 1    
   189   95  216 1    
   190   96  217 1    
   191   96  218 1    
   192   96  219 1    
   193   97   98 2    
   194   97   99 am   BACKBONE|DICT|INTERRES
   195   99  100 1    
   196   99  220 1    
   197  100  101 1    
   198  100  102 1    
   199  100  221 1    
   200  101  222 1    
   201  101  223 1    
   202  101  224 1    
   203  102  103 2    
   204  102  104 am   BACKBONE|DICT|INTERRES
   205  104  105 1    
   206  104  225 1    
   207  105  106 1    
   208  105  107 1    
   209  105  226 1    
   210  106  227 1    
   211  106  228 1    
   212  106  229 1    
   213  107  108 2    
   214  107  109 am   BACKBONE|DICT|INTERRES
   215  109  110 1    
   216  109  230 1    
   217  110  111 1    
   218  110  112 1    
   219  110  231 1    
   220  111  232 1    
   221  111  233 1    
   222  111  234 1    
   223  112  113 2    
   224  112  114 am   BACKBONE|DICT|INTERRES
   225  114  115 1    
   226  114  235 1    
   227  115  116 1    
   228  115  117 1    
   229  115  236 1    
   230  116  237 1    
   231  116  238 1    
   232  116  239 1    
   233  117  118 2    
   234  117  119 am   BACKBONE|DICT|INTERRES
   235  119  120 1    
   236  119  240 1    
   237  120  121 1    
   238  120  124 1    
   239  120  241 1    
   240  121  122 am   BACKBONE|DICT|INTERRES
   241  121  123 2    
   242  122  242 1    
   243  122  243 1    
   244  124  125 1    
   245  124  244 1    
   246  124  245 1    
   247  125  126 1    
   248  126  246 1    
   249  126  247 1    
@<TRIPOS>SUBSTRUCTURE
     1 UNK         1 GROUP             0       ****    0 ROOT    
