@<TRIPOS>MOLECULE
3R540
247   249    1
SMALL
USER_CHARGES


@<TRIPOS>ATOM
      1 CA          0.5753  -12.1203  -52.8004 C.3       0 UNK        -0.1800 
      2 C           0.7424  -12.9113  -51.5109 C.2       0 UNK         0.5000 
      3 O           1.5603  -13.8291  -51.4592 O.2       0 UNK        -0.5000 
      4 N          -0.0355  -12.5641  -50.4770 N.am      1 UNK        -0.5000 
      5 CA         -0.0163  -13.2154  -49.1607 C.3       1 UNK         0.1400 
      6 C6         -1.3067  -12.9003  -48.3600 C.3       23 UNK        -0.0398 
      7 S7         -1.8099  -14.2546  -47.2433 S.3       23 UNK        -0.2404 
      8 C8         -3.2073  -15.0027  -48.1397 C.3       23 UNK        -0.0205 
      9 C9         -2.7487  -16.0496  -49.1440 C.ar      23 UNK        -0.0193 
     10 C10        -2.3009  -15.6706  -50.4128 C.ar      23 UNK        -0.1150 
     11 C11        -1.9017  -16.6365  -51.3408 C.ar      23 UNK        -0.0193 
     12 C12        -1.9686  -17.9913  -51.0008 C.ar      23 UNK        -0.1150 
     13 C13        -2.4340  -18.3824  -49.7430 C.ar      23 UNK        -0.0193 
     14 C14        -2.8085  -17.4070  -48.8145 C.ar      23 UNK        -0.1150 
     15 C15        -2.5811  -19.8546  -49.3971 C.3       23 UNK        -0.0205 
     16 S16        -1.1577  -20.4619  -48.4442 S.3       23 UNK        -0.2404 
     17 C17        -1.9843  -21.5891  -47.2728 C.3       23 UNK        -0.0398 
     18 CA         -1.0951  -22.7880  -46.8706 C.3       11 UNK         0.1400 
     19 N           0.0421  -22.4072  -46.0317 N.am      11 UNK        -0.5000 
     20 C           1.0416  -23.2260  -45.6767 C.2       10 UNK         0.5000 
     21 O           1.1277  -24.3962  -46.0474 O.2       10 UNK        -0.5000 
     22 CA          2.0900  -22.6639  -44.6997 C.3       10 UNK         0.1400 
     23 CB          3.0973  -21.7602  -45.4261 C.3       10 UNK        -0.1800 
     24 N           1.4808  -21.9353  -43.5865 N.am      10 UNK        -0.5000 
     25 C           0.6817  -22.4923  -42.6652 C.2       9 UNK         0.5000 
     26 O           0.4131  -23.6942  -42.6298 O.2       9 UNK        -0.5000 
     27 CA          0.0389  -21.5404  -41.6394 C.3       9 UNK         0.1400 
     28 CB          1.0242  -21.1897  -40.5144 C.3       9 UNK        -0.1800 
     29 N          -0.4607  -20.3112  -42.2564 N.am      9 UNK        -0.5000 
     30 C          -1.4824  -20.2648  -43.1236 C.2       8 UNK         0.5000 
     31 O          -2.1359  -21.2499  -43.4657 O.2       8 UNK        -0.5000 
     32 CA         -1.7950  -18.8965  -43.7560 C.3       8 UNK         0.1400 
     33 CB         -2.6481  -18.0434  -42.8062 C.3       8 UNK        -0.1800 
     34 N          -0.5929  -18.1560  -44.1435 N.am      8 UNK        -0.5000 
     35 C           0.3170  -18.6019  -45.0215 C.2       7 UNK         0.5000 
     36 O           0.2278  -19.6794  -45.6006 O.2       7 UNK        -0.5000 
     37 CA          1.5719  -17.7463  -45.2449 C.3       7 UNK         0.1400 
     38 CB          1.2802  -16.5889  -46.2039 C.3       7 UNK        -0.1800 
     39 N           2.1357  -17.2357  -43.9975 N.am      7 UNK        -0.5000 
     40 C           2.6101  -18.0048  -43.0073 C.2       6 UNK         0.5000 
     41 O           2.6362  -19.2355  -43.0456 O.2       6 UNK        -0.5000 
     42 CA          3.1026  -17.2736  -41.7491 C.3       6 UNK         0.1400 
     43 CB          4.5321  -16.7452  -41.9440 C.3       6 UNK        -0.1800 
     44 N           2.2138  -16.1674  -41.3983 N.am      6 UNK        -0.5000 
     45 C           1.0237  -16.3193  -40.8020 C.2       5 UNK         0.5000 
     46 O           0.5736  -17.4067  -40.4381 O.2       5 UNK        -0.5000 
     47 CA          0.1849  -15.0418  -40.6046 C.3       5 UNK         0.1400 
     48 CB          0.6100  -14.3063  -39.3249 C.3       5 UNK        -0.1800 
     49 N           0.2654  -14.1219  -41.7421 N.am      5 UNK        -0.5000 
     50 C          -0.2175  -14.3943  -42.9618 C.2       4 UNK         0.5000 
     51 O          -0.7859  -15.4460  -43.2487 O.2       4 UNK        -0.5000 
     52 CA         -0.0050  -13.3357  -44.0575 C.3       4 UNK         0.1400 
     53 CB         -1.1490  -12.3115  -44.0521 C.3       4 UNK        -0.1800 
     54 N           1.2754  -12.6282  -44.0150 N.am      4 UNK        -0.5000 
     55 C           2.4901  -13.1914  -44.0004 C.2       3 UNK         0.5000 
     56 O           2.6905  -14.3959  -43.8329 O.2       3 UNK        -0.5000 
     57 CA          3.6698  -12.2399  -44.2798 C.3       3 UNK         0.1400 
     58 CB          5.0166  -12.8316  -43.8271 C.3       3 UNK        -0.1800 
     59 N           3.7411  -11.9415  -45.7105 N.am      3 UNK        -0.5000 
     60 C           2.9087  -11.1330  -46.3815 C.2       2 UNK         0.5000 
     61 O           2.0581  -10.4281  -45.8336 O.2       2 UNK        -0.5000 
     62 CA          3.0124  -11.1198  -47.9229 C.3       2 UNK         0.1400 
     63 CB          4.2689  -11.8268  -48.4801 C.3       2 UNK        -0.1800 
     64 N           1.8024  -11.6615  -48.5546 N.am      2 UNK        -0.5000 
     65 C           1.2591  -12.8752  -48.3558 C.2       1 UNK         0.5000 
     66 O           1.7339  -13.7187  -47.5981 O.2       1 UNK        -0.5000 
     67 C          -1.9486  -23.8896  -46.2179 C.2       11 UNK         0.5000 
     68 O          -2.3377  -24.8237  -46.9157 O.2       11 UNK        -0.5000 
     69 N          -2.1953  -23.7948  -44.9032 N.am      12 UNK        -0.5000 
     70 CA         -2.9184  -24.8076  -44.1309 C.3       12 UNK         0.1400 
     71 CB         -3.1700  -24.2970  -42.7044 C.3       12 UNK        -0.1800 
     72 C          -2.1986  -26.1690  -44.1082 C.2       12 UNK         0.5000 
     73 O          -2.8568  -27.2016  -44.2372 O.2       12 UNK        -0.5000 
     74 N          -0.8637  -26.1460  -43.9870 N.am      13 UNK        -0.5000 
     75 CA         -0.0085  -27.3315  -44.0591 C.3       13 UNK         0.1400 
     76 CB          1.4011  -26.9756  -43.5622 C.3       13 UNK        -0.1800 
     77 C           0.0432  -27.9432  -45.4734 C.2       13 UNK         0.5000 
     78 O           0.0051  -29.1667  -45.6081 O.2       13 UNK        -0.5000 
     79 N           0.1157  -27.0845  -46.4995 N.am      14 UNK        -0.5000 
     80 CA          0.1590  -27.4669  -47.9136 C.3       14 UNK         0.1400 
     81 CB          0.7012  -26.2800  -48.7260 C.3       14 UNK        -0.1800 
     82 C          -1.2003  -27.9169  -48.4873 C.2       14 UNK         0.5000 
     83 O          -1.2212  -28.5388  -49.5501 O.2       14 UNK        -0.5000 
     84 N          -2.2976  -27.5683  -47.7999 N.am      15 UNK        -0.5000 
     85 CA         -3.6974  -27.6809  -48.2268 C.3       15 UNK         0.1400 
     86 CB         -4.1123  -29.1526  -48.4351 C.3       15 UNK        -0.1800 
     87 C          -4.0094  -26.7712  -49.4372 C.2       15 UNK         0.5000 
     88 O          -4.7416  -27.1650  -50.3472 O.2       15 UNK        -0.5000 
     89 N          -3.4346  -25.5639  -49.4147 N.am      16 UNK        -0.5000 
     90 CA         -3.6320  -24.4945  -50.3893 C.3       16 UNK         0.1400 
     91 CB         -2.2796  -23.7989  -50.6112 C.3       16 UNK        -0.1800 
     92 C          -4.6832  -23.4913  -49.8793 C.2       16 UNK         0.5000 
     93 O          -5.0352  -23.5104  -48.6967 O.2       16 UNK        -0.5000 
     94 N          -5.1520  -22.6156  -50.7745 N.am      17 UNK        -0.5000 
     95 CA         -6.1312  -21.5713  -50.4858 C.3       17 UNK         0.1400 
     96 CB         -7.5237  -22.0407  -50.9370 C.3       17 UNK        -0.1800 
     97 C          -5.7335  -20.2776  -51.2070 C.2       17 UNK         0.5000 
     98 O          -5.1322  -20.3341  -52.2842 O.2       17 UNK        -0.5000 
     99 N          -6.0937  -19.1386  -50.6021 N.am      18 UNK        -0.5000 
    100 CA        -5.8713  -17.7952  -51.1375 C.3       18 UNK         0.1400 
    101 CB        -6.2963  -16.7580  -50.0874 C.3       18 UNK        -0.1800 
    102 C         -6.6221  -17.5679  -52.4612 C.2       18 UNK         0.5000 
    103 O         -7.6938  -18.1420  -52.6697 O.2       18 UNK        -0.5000 
    104 N         -6.0206  -16.7575  -53.3394 N.am      19 UNK        -0.5000 
    105 CA        -6.3945  -16.4558  -54.7279 C.3       19 UNK         0.1400 
    106 CB        -7.8107  -15.8579  -54.8297 C.3       19 UNK        -0.1800 
    107 C         -6.2112  -17.6451  -55.6925 C.2       19 UNK         0.5000 
    108 O         -5.7163  -17.4467  -56.8018 O.2       19 UNK        -0.5000 
    109 N         -6.5915  -18.8521  -55.2573 N.am      20 UNK        -0.5000 
    110 CA        -6.4934  -20.0985  -56.0122 C.3       20 UNK         0.1400 
    111 CB        -7.3145  -21.1844  -55.2989 C.3       20 UNK        -0.1800 
    112 C         -5.0407  -20.5614  -56.2185 C.2       20 UNK         0.5000 
    113 O         -4.6710  -20.9122  -57.3397 O.2       20 UNK        -0.5000 
    114 N         -4.2480  -20.5625  -55.1380 N.am      21 UNK        -0.5000 
    115 CA        -2.8631  -21.0418  -55.1439 C.3       21 UNK         0.1400 
    116 CB        -2.5256  -21.5812  -53.7467 C.3       21 UNK        -0.1800 
    117 C         -1.8377  -19.9727  -55.5661 C.2       21 UNK         0.5000 
    118 O         -0.6830  -20.3201  -55.8191 O.2       21 UNK        -0.5000 
    119 N         -2.2509  -18.7006  -55.5986 N.am      22 UNK        -0.5000 
    120 CA        -1.3896  -17.5450  -55.8925 C.3       22 UNK         0.1400 
    121 C         -0.8958  -17.5031  -57.3659 C.2       22 UNK         0.5000 
    122 N          0.3048  -16.9945  -57.6091 N.am      22 UNK        -0.7600 
    123 O         -1.6047  -17.8848  -58.2945 O.2       22 UNK        -0.5000 
    124 C124       -2.0561  -16.1975  -55.5046 C.3       23 UNK        -0.0398 
    125 S125       -2.8529  -16.2011  -53.8632 S.3       23 UNK        -0.2404 
    126 C126       -1.4377  -16.2250  -52.7268 C.3       23 UNK        -0.0205 
    127 H127       -0.1803  -11.3403  -52.7038 H         1 UNK         0.0600 
    128 H128        0.2756  -12.7848  -53.6109 H         1 UNK         0.0600 
    129 H129        1.5183  -11.6482  -53.0758 H         1 UNK         0.0600 
    130 H130       -0.6867  -11.7994  -50.5859 H         1 UNK         0.3000 
    131 H131        0.0115  -14.2915  -49.3475 H         1 UNK         0.0600 
    132 H132       -1.1981  -11.9861  -47.7733 H         1 UNK         0.0800 
    133 H133       -2.1347  -12.7013  -49.0409 H         1 UNK         0.0800 
    134 H134       -3.8735  -15.4621  -47.4079 H         1 UNK         0.0800 
    135 H135       -3.8020  -14.2357  -48.6374 H         1 UNK         0.0800 
    136 H136       -2.2694  -14.6248  -50.6824 H         1 UNK         0.1150 
    137 H137       -1.6836  -18.7410  -51.7255 H         1 UNK         0.1150 
    138 H138       -3.1657  -17.7084  -47.8398 H         1 UNK         0.1150 
    139 H139       -3.5035  -19.9883  -48.8302 H         1 UNK         0.0800 
    140 H140       -2.6888  -20.4548  -50.3019 H         1 UNK         0.0800 
    141 H141       -2.9051  -21.9453  -47.7384 H         1 UNK         0.0800 
    142 H142       -2.2873  -21.0202  -46.3923 H         1 UNK         0.0800 
    143 H143       -0.6743  -23.2181  -47.7805 H         1 UNK         0.0600 
    144 H144        0.0764  -21.4310  -45.7381 H         1 UNK         0.3000 
    145 H145        2.6383  -23.5103  -44.2808 H         1 UNK         0.0600 
    146 H146        3.8690  -21.4027  -44.7442 H         1 UNK         0.0600 
    147 H147        3.5969  -22.3022  -46.2299 H         1 UNK         0.0600 
    148 H148        2.6146  -20.8894  -45.8692 H         1 UNK         0.0600 
    149 H149        1.6762  -20.9407  -43.5289 H         1 UNK         0.3000 
    150 H150       -0.8112  -22.0603  -41.1927 H         1 UNK         0.0600 
    151 H151        1.3806  -22.0911  -40.0144 H         1 UNK         0.0600 
    152 H152        0.5514  -20.5626  -39.7582 H         1 UNK         0.0600 
    153 H153        1.8974  -20.6565  -40.8905 H         1 UNK         0.0600 
    154 H154        0.0364  -19.4571  -42.0441 H         1 UNK         0.3000 
    155 H155       -2.3754  -19.0778  -44.6629 H         1 UNK         0.0600 
    156 H156       -2.0930  -17.7629  -41.9099 H         1 UNK         0.0600 
    157 H157       -2.9811  -17.1271  -43.2939 H         1 UNK         0.0600 
    158 H158       -3.5405  -18.5836  -42.4875 H         1 UNK         0.0600 
    159 H159       -0.4786  -17.2311  -43.7354 H         1 UNK         0.3000 
    160 H160        2.3289  -18.3817  -45.7088 H         1 UNK         0.0600 
    161 H161        2.1814  -16.0071  -46.3951 H         1 UNK         0.0600 
    162 H162        0.5224  -15.9171  -45.8044 H         1 UNK         0.0600 
    163 H163        0.9159  -16.9559  -47.1644 H         1 UNK         0.0600 
    164 H164        2.1896  -16.2253  -43.8978 H         1 UNK         0.3000 
    165 H165        3.1161  -17.9911  -40.9256 H         1 UNK         0.0600 
    166 H166        4.9005  -16.2633  -41.0383 H         1 UNK         0.0600 
    167 H167        5.2180  -17.5593  -42.1815 H         1 UNK         0.0600 
    168 H168        4.5908  -16.0202  -42.7565 H         1 UNK         0.0600 
    169 H169        2.4708  -15.2536  -41.7468 H         1 UNK         0.3000 
    170 H170       -0.8577  -15.3466  -40.4912 H         1 UNK         0.0600 
    171 H171        1.6386  -13.9490  -39.3872 H         1 UNK         0.0600 
    172 H172       -0.0332  -13.4476  -39.1314 H         1 UNK         0.0600 
    173 H173        0.5426  -14.9635  -38.4568 H         1 UNK         0.0600 
    174 H174        0.7298  -13.2383  -41.5916 H         1 UNK         0.3000 
    175 H175       -0.0290  -13.8574  -45.0132 H         1 UNK         0.0600 
    176 H176       -1.0761  -11.6362  -44.9050 H         1 UNK         0.0600 
    177 H177       -1.1461  -11.7093  -43.1429 H         1 UNK         0.0600 
    178 H178       -2.1180  -12.8085  -44.1169 H         1 UNK         0.0600 
    179 H179        1.2372  -11.6394  -44.2308 H         1 UNK         0.3000 
    180 H180        3.5033  -11.3140  -43.7253 H         1 UNK         0.0600 
    181 H181        5.2623  -13.7445  -44.3713 H         1 UNK         0.0600 
    182 H182        4.9965  -13.0785  -42.7649 H         1 UNK         0.0600 
    183 H183        5.8296  -12.1218  -43.9804 H         1 UNK         0.0600 
    184 H184        4.3696  -12.5185  -46.2499 H         1 UNK         0.3000 
    185 H185        3.0715  -10.0698  -48.2129 H         1 UNK         0.0600 
    186 H186        4.2729  -12.8962  -48.2664 H         1 UNK         0.0600 
    187 H187        4.3288  -11.7112  -49.5624 H         1 UNK         0.0600 
    188 H188        5.1809  -11.3978  -48.0628 H         1 UNK         0.0600 
    189 H189        1.3293  -11.0366  -49.1913 H         1 UNK         0.3000 
    190 H190       -1.8906  -22.9687  -44.3966 H         1 UNK         0.3000 
    191 H191       -3.8880  -24.9571  -44.6105 H         1 UNK         0.0600 
    192 H192       -3.7656  -23.3842  -42.7126 H         1 UNK         0.0600 
    193 H193       -3.7158  -25.0352  -42.1155 H         1 UNK         0.0600 
    194 H194       -2.2379  -24.0834  -42.1812 H         1 UNK         0.0600 
    195 H195       -0.4014  -25.2544  -43.8455 H         1 UNK         0.3000 
    196 H196       -0.4209  -28.0864  -43.3863 H         1 UNK         0.0600 
    197 H197        2.0519  -27.8506  -43.5746 H         1 UNK         0.0600 
    198 H198        1.3747  -26.6030  -42.5380 H         1 UNK         0.0600 
    199 H199        1.8680  -26.2102  -44.1824 H         1 UNK         0.0600 
    200 H200        0.2157  -26.0936  -46.2967 H         1 UNK         0.3000 
    201 H201        0.8543  -28.3016  -48.0241 H         1 UNK         0.0600 
    202 H202        1.6900  -25.9811  -48.3775 H         1 UNK         0.0600 
    203 H203        0.0439  -25.4129  -48.6539 H         1 UNK         0.0600 
    204 H204        0.7926  -26.5350  -49.7825 H         1 UNK         0.0600 
    205 H205       -2.1505  -26.9971  -46.9768 H         1 UNK         0.3000 
    206 H206       -4.2912  -27.2905  -47.3990 H         1 UNK         0.0600 
    207 H207       -3.8671  -29.7578  -47.5623 H         1 UNK         0.0600 
    208 H208       -5.1881  -29.2332  -48.5939 H         1 UNK         0.0600 
    209 H209       -3.6228  -29.5974  -49.3015 H         1 UNK         0.0600 
    210 H210       -2.9394  -25.3007  -48.5651 H         1 UNK         0.3000 
    211 H211       -3.9776  -24.9080  -51.3390 H         1 UNK         0.0600 
    212 H212       -1.8967  -23.3651  -49.6902 H         1 UNK         0.0600 
    213 H213       -2.3595  -22.9904  -51.3353 H         1 UNK         0.0600 
    214 H214       -1.5329  -24.4992  -50.9861 H         1 UNK         0.0600 
    215 H215       -4.7801  -22.5963  -51.7146 H         1 UNK         0.3000 
    216 H216       -6.1554  -21.3634  -49.4138 H         1 UNK         0.0600 
    217 H217       -8.2764  -21.2733  -50.7515 H         1 UNK         0.0600 
    218 H218       -7.8311  -22.9357  -50.3959 H         1 UNK         0.0600 
    219 H219       -7.5444  -22.2705  -52.0029 H         1 UNK         0.0600 
    220 H220       -6.6224  -19.1886  -49.7442 H         1 UNK         0.3000 
    221 H221       -4.8020  -17.6853  -51.3243 H         1 UNK         0.0600 
    222 H222       -7.3643  -16.8162  -49.8737 H         1 UNK         0.0600 
    223 H223       -5.7578  -16.8997  -49.1505 H         1 UNK         0.0600 
    224 H224       -6.0834  -15.7451  -50.4316 H         1 UNK         0.0600 
    225 H225       -5.1225  -16.3741  -53.0724 H         1 UNK         0.3000 
    226 H226       -5.6968  -15.6830  -55.0542 H         1 UNK         0.0600 
    227 H227       -7.9253  -15.0003  -54.1667 H         1 UNK         0.0600 
    228 H228       -8.0115  -15.5135  -55.8448 H         1 UNK         0.0600 
    229 H229       -8.5838  -16.5839  -54.5776 H         1 UNK         0.0600 
    230 H230       -7.0023  -18.9047  -54.3303 H         1 UNK         0.3000 
    231 H231       -6.9343  -19.9319  -56.9973 H         1 UNK         0.0600 
    232 H232       -6.9456  -21.3705  -54.2896 H         1 UNK         0.0600 
    233 H233       -7.2723  -22.1281  -55.8441 H         1 UNK         0.0600 
    234 H234       -8.3639  -20.8990  -55.2234 H         1 UNK         0.0600 
    235 H235       -4.6303  -20.2920  -54.2362 H         1 UNK         0.3000 
    236 H236       -2.7744  -21.8713  -55.8488 H         1 UNK         0.0600 
    237 H237       -3.2242  -22.3652  -53.4560 H         1 UNK         0.0600 
    238 H238       -1.5239  -22.0122  -53.7221 H         1 UNK         0.0600 
    239 H239       -2.5633  -20.7955  -52.9914 H         1 UNK         0.0600 
    240 H240       -3.2198  -18.5023  -55.4017 H         1 UNK         0.3000 
    241 H241       -0.5024  -17.6618  -55.2680 H         1 UNK         0.0600 
    242 H242        0.9053  -16.6687  -56.8674 H         1 UNK         0.3800 
    243 H243        0.6310  -16.9474  -58.5623 H         1 UNK         0.3800 
    244 H244       -1.3264  -15.3867  -55.5361 H         1 UNK         0.0800 
    245 H245       -2.8283  -15.9389  -56.2317 H         1 UNK         0.0800 
    246 H246       -0.9692  -15.2403  -52.7014 H         1 UNK         0.0800 
    247 H247       -0.6783  -16.9239  -53.0778 H         1 UNK         0.0800 
@<TRIPOS>BOND
     1    1    2 1    
     2    1  127 1    
     3    1  128 1    
     4    1  129 1    
     5    2    3 2    
     6    2    4 am   BACKBONE|DICT|INTERRES
     7    4    5 1    
     8    4  130 1    
     9    5    6 1    
    10    5   65 1    
    11    5  131 1    
    12    6    7 1    
    13    6  132 1    
    14    6  133 1    
    15    7    8 1    
    16    8    9 1    
    17    8  134 1    
    18    8  135 1    
    19    9   10 ar   
    20    9   14 ar   
    21   10   11 ar   
    22   10  136 1    
    23   11   12 ar   
    24   11  126 1    
    25   12   13 ar   
    26   12  137 1    
    27   13   14 ar   
    28   13   15 1    
    29   14  138 1    
    30   15   16 1    
    31   15  139 1    
    32   15  140 1    
    33   16   17 1    
    34   17   18 1    
    35   17  141 1    
    36   17  142 1    
    37   18   19 1    
    38   18   67 1    
    39   18  143 1    
    40   19   20 am   BACKBONE|DICT|INTERRES
    41   19  144 1    
    42   20   21 2    
    43   20   22 1    
    44   22   23 1    
    45   22   24 1    
    46   22  145 1    
    47   23  146 1    
    48   23  147 1    
    49   23  148 1    
    50   24   25 am   BACKBONE|DICT|INTERRES
    51   24  149 1    
    52   25   26 2    
    53   25   27 1    
    54   27   28 1    
    55   27   29 1    
    56   27  150 1    
    57   28  151 1    
    58   28  152 1    
    59   28  153 1    
    60   29   30 am   BACKBONE|DICT|INTERRES
    61   29  154 1    
    62   30   31 2    
    63   30   32 1    
    64   32   33 1    
    65   32   34 1    
    66   32  155 1    
    67   33  156 1    
    68   33  157 1    
    69   33  158 1    
    70   34   35 am   BACKBONE|DICT|INTERRES
    71   34  159 1    
    72   35   36 2    
    73   35   37 1    
    74   37   38 1    
    75   37   39 1    
    76   37  160 1    
    77   38  161 1    
    78   38  162 1    
    79   38  163 1    
    80   39   40 am   BACKBONE|DICT|INTERRES
    81   39  164 1    
    82   40   41 2    
    83   40   42 1    
    84   42   43 1    
    85   42   44 1    
    86   42  165 1    
    87   43  166 1    
    88   43  167 1    
    89   43  168 1    
    90   44   45 am   BACKBONE|DICT|INTERRES
    91   44  169 1    
    92   45   46 2    
    93   45   47 1    
    94   47   48 1    
    95   47   49 1    
    96   47  170 1    
    97   48  171 1    
    98   48  172 1    
    99   48  173 1    
   100   49   50 am   BACKBONE|DICT|INTERRES
   101   49  174 1    
   102   50   51 2    
   103   50   52 1    
   104   52   53 1    
   105   52   54 1    
   106   52  175 1    
   107   53  176 1    
   108   53  177 1    
   109   53  178 1    
   110   54   55 am   BACKBONE|DICT|INTERRES
   111   54  179 1    
   112   55   56 2    
   113   55   57 1    
   114   57   58 1    
   115   57   59 1    
   116   57  180 1    
   117   58  181 1    
   118   58  182 1    
   119   58  183 1    
   120   59   60 am   BACKBONE|DICT|INTERRES
   121   59  184 1    
   122   60   61 2    
   123   60   62 1    
   124   62   63 1    
   125   62   64 1    
   126   62  185 1    
   127   63  186 1    
   128   63  187 1    
   129   63  188 1    
   130   64   65 am   BACKBONE|DICT|INTERRES
   131   64  189 1    
   132   65   66 2    
   133   67   68 2    
   134   67   69 am   BACKBONE|DICT|INTERRES
   135   69   70 1    
   136   69  190 1    
   137   70   71 1    
   138   70   72 1    
   139   70  191 1    
   140   71  192 1    
   141   71  193 1    
   142   71  194 1    
   143   72   73 2    
   144   72   74 am   BACKBONE|DICT|INTERRES
   145   74   75 1    
   146   74  195 1    
   147   75   76 1    
   148   75   77 1    
   149   75  196 1    
   150   76  197 1    
   151   76  198 1    
   152   76  199 1    
   153   77   78 2    
   154   77   79 am   BACKBONE|DICT|INTERRES
   155   79   80 1    
   156   79  200 1    
   157   80   81 1    
   158   80   82 1    
   159   80  201 1    
   160   81  202 1    
   161   81  203 1    
   162   81  204 1    
   163   82   83 2    
   164   82   84 am   BACKBONE|DICT|INTERRES
   165   84   85 1    
   166   84  205 1    
   167   85   86 1    
   168   85   87 1    
   169   85  206 1    
   170   86  207 1    
   171   86  208 1    
   172   86  209 1    
   173   87   88 2    
   174   87   89 am   BACKBONE|DICT|INTERRES
   175   89   90 1    
   176   89  210 1    
   177   90   91 1    
   178   90   92 1    
   179   90  211 1    
   180   91  212 1    
   181   91  213 1    
   182   91  214 1    
   183   92   93 2    
   184   92   94 am   BACKBONE|DICT|INTERRES
   185   94   95 1    
   186   94  215 1    
   187   95   96 1    
   188   95   97 1    
   189   95  216 1    
   190   96  217 1    
   191   96  218 1    
   192   96  219 1    
   193   97   98 2    
   194   97   99 am   BACKBONE|DICT|INTERRES
   195   99  100 1    
   196   99  220 1    
   197  100  101 1    
   198  100  102 1    
   199  100  221 1    
   200  101  222 1    
   201  101  223 1    
   202  101  224 1    
   203  102  103 2    
   204  102  104 am   BACKBONE|DICT|INTERRES
   205  104  105 1    
   206  104  225 1    
   207  105  106 1    
   208  105  107 1    
   209  105  226 1    
   210  106  227 1    
   211  106  228 1    
   212  106  229 1    
   213  107  108 2    
   214  107  109 am   BACKBONE|DICT|INTERRES
   215  109  110 1    
   216  109  230 1    
   217  110  111 1    
   218  110  112 1    
   219  110  231 1    
   220  111  232 1    
   221  111  233 1    
   222  111  234 1    
   223  112  113 2    
   224  112  114 am   BACKBONE|DICT|INTERRES
   225  114  115 1    
   226  114  235 1    
   227  115  116 1    
   228  115  117 1    
   229  115  236 1    
   230  116  237 1    
   231  116  238 1    
   232  116  239 1    
   233  117  118 2    
   234  117  119 am   BACKBONE|DICT|INTERRES
   235  119  120 1    
   236  119  240 1    
   237  120  121 1    
   238  120  124 1    
   239  120  241 1    
   240  121  122 am   BACKBONE|DICT|INTERRES
   241  121  123 2    
   242  122  242 1    
   243  122  243 1    
   244  124  125 1    
   245  124  244 1    
   246  124  245 1    
   247  125  126 1    
   248  126  246 1    
   249  126  247 1    
@<TRIPOS>SUBSTRUCTURE
     1 UNK         1 GROUP             0       ****    0 ROOT    
