@<TRIPOS>MOLECULE
3R540
247   249    1
SMALL
USER_CHARGES


@<TRIPOS>ATOM
      1 CA          1.2095   -9.8654  -48.9608 C.3       0 UNK        -0.1800 
      2 C           0.6309  -10.1050  -47.5736 C.2       0 UNK         0.5000 
      3 O          -0.2992   -9.4058  -47.1723 O.2       0 UNK        -0.5000 
      4 N           1.1818  -11.0887  -46.8488 N.am      1 UNK        -0.5000 
      5 CA          0.7746  -11.5098  -45.4977 C.3       1 UNK         0.1400 
      6 C6         -0.6719  -12.0717  -45.4228 C.3       23 UNK        -0.0398 
      7 S7         -0.9721  -13.4286  -46.6066 S.3       23 UNK        -0.2404 
      8 C8         -2.4826  -12.8523  -47.4386 C.3       23 UNK        -0.0205 
      9 C9         -3.1140  -13.9612  -48.2669 C.ar      23 UNK        -0.0193 
     10 C10        -3.0164  -13.9576  -49.6628 C.ar      23 UNK        -0.1150 
     11 C11        -3.6049  -14.9797  -50.4148 C.ar      23 UNK        -0.0193 
     12 C12        -4.3031  -15.9985  -49.7623 C.ar      23 UNK        -0.1150 
     13 C13        -4.3971  -16.0233  -48.3669 C.ar      23 UNK        -0.0193 
     14 C14        -3.8039  -14.9961  -47.6275 C.ar      23 UNK        -0.1150 
     15 C15        -5.1439  -17.1450  -47.6527 C.3       23 UNK        -0.0205 
     16 S16        -4.6729  -18.7917  -48.2740 S.3       23 UNK        -0.2404 
     17 C17        -4.8241  -19.8291  -46.7864 C.3       23 UNK        -0.0398 
     18 CA         -4.1009  -21.1799  -46.9877 C.3       11 UNK         0.1400 
     19 N          -2.6489  -21.0445  -47.1535 N.am      11 UNK        -0.5000 
     20 C          -1.8156  -22.0435  -47.4785 C.2       10 UNK         0.5000 
     21 O          -2.1933  -23.1817  -47.7519 O.2       10 UNK        -0.5000 
     22 CA         -0.3063  -21.7435  -47.4302 C.3       10 UNK         0.1400 
     23 CB          0.1760  -21.0733  -48.7252 C.3       10 UNK        -0.1800 
     24 N           0.0453  -20.9204  -46.2724 N.am      10 UNK        -0.5000 
     25 C          -0.0079  -21.3499  -45.0028 C.2       9 UNK         0.5000 
     26 O          -0.2825  -22.5072  -44.6894 O.2       9 UNK        -0.5000 
     27 CA          0.2362  -20.3063  -43.8968 C.3       9 UNK         0.1400 
     28 CB          1.7267  -20.2222  -43.5383 C.3       9 UNK        -0.1800 
     29 N          -0.2594  -18.9824  -44.2732 N.am      9 UNK        -0.5000 
     30 C          -1.5612  -18.6680  -44.3566 C.2       8 UNK         0.5000 
     31 O          -2.4695  -19.4414  -44.0495 O.2       8 UNK        -0.5000 
     32 CA         -1.9069  -17.2870  -44.9468 C.3       8 UNK         0.1400 
     33 CB         -2.0163  -16.2275  -43.8416 C.3       8 UNK        -0.1800 
     34 N          -0.9471  -16.8601  -45.9696 N.am      8 UNK        -0.5000 
     35 C          -0.8084  -17.4884  -47.1474 C.2       7 UNK         0.5000 
     36 O          -1.4958  -18.4550  -47.4662 O.2       7 UNK        -0.5000 
     37 CA          0.3099  -17.0404  -48.1072 C.3       7 UNK         0.1400 
     38 CB         -0.2525  -16.2028  -49.2604 C.3       7 UNK        -0.1800 
     39 N           1.4011  -16.3135  -47.4638 N.am      7 UNK        -0.5000 
     40 C           2.2520  -16.8427  -46.5763 C.2       6 UNK         0.5000 
     41 O           2.1983  -18.0159  -46.2033 O.2       6 UNK        -0.5000 
     42 CA          3.3199  -15.9051  -45.9719 C.3       6 UNK         0.1400 
     43 CB          3.3969  -14.5183  -46.6499 C.3       6 UNK        -0.1800 
     44 N           3.1482  -15.7417  -44.5255 N.am      6 UNK        -0.5000 
     45 C           2.0309  -15.3640  -43.8854 C.2       5 UNK         0.5000 
     46 O           0.9630  -15.1223  -44.4442 O.2       5 UNK        -0.5000 
     47 CA          2.1324  -15.2056  -42.3578 C.3       5 UNK         0.1400 
     48 CB          1.9106  -16.5577  -41.6624 C.3       5 UNK        -0.1800 
     49 N           3.4084  -14.6305  -41.9191 N.am      5 UNK        -0.5000 
     50 C           3.8302  -13.3996  -42.2393 C.2       4 UNK         0.5000 
     51 O           3.1822  -12.6152  -42.9384 O.2       4 UNK        -0.5000 
     52 CA          5.2070  -12.9835  -41.6974 C.3       4 UNK         0.1400 
     53 CB          6.3397  -13.6823  -42.4679 C.3       4 UNK        -0.1800 
     54 N           5.3413  -11.5419  -41.8576 N.am      4 UNK        -0.5000 
     55 C           5.8386  -10.6729  -40.9759 C.2       3 UNK         0.5000 
     56 O           6.3755  -11.0092  -39.9195 O.2       3 UNK        -0.5000 
     57 CA          5.6811   -9.1700  -41.2998 C.3       3 UNK         0.1400 
     58 CB          6.9278   -8.6217  -42.0208 C.3       3 UNK        -0.1800 
     59 N           4.4400   -8.8174  -42.0140 N.am      3 UNK        -0.5000 
     60 C           4.0758   -9.1205  -43.2681 C.2       2 UNK         0.5000 
     61 O           4.7870   -9.7407  -44.0630 O.2       2 UNK        -0.5000 
     62 CA          2.6722   -8.6743  -43.7009 C.3       2 UNK         0.1400 
     63 CB          2.7310   -7.3123  -44.4097 C.3       2 UNK        -0.1800 
     64 N           2.1419   -9.6695  -44.6273 N.am      2 UNK        -0.5000 
     65 C           1.0478  -10.4166  -44.4360 C.2       1 UNK         0.5000 
     66 O           0.2814  -10.2694  -43.4814 O.2       1 UNK        -0.5000 
     67 C          -4.4571  -22.1826  -45.8748 C.2       11 UNK         0.5000 
     68 O          -5.2932  -23.0585  -46.1047 O.2       11 UNK        -0.5000 
     69 N          -3.7727  -22.0798  -44.7246 N.am      12 UNK        -0.5000 
     70 CA         -3.8826  -23.0184  -43.6045 C.3       12 UNK         0.1400 
     71 CB         -3.0678  -22.4976  -42.4116 C.3       12 UNK        -0.1800 
     72 C          -3.4625  -24.4554  -43.9750 C.2       12 UNK         0.5000 
     73 O          -4.1069  -25.4074  -43.5339 O.2       12 UNK        -0.5000 
     74 N          -2.4425  -24.5919  -44.8333 N.am      13 UNK        -0.5000 
     75 CA         -1.9768  -25.8474  -45.4302 C.3       13 UNK         0.1400 
     76 CB         -0.5027  -25.6865  -45.8426 C.3       13 UNK        -0.1800 
     77 C          -2.8686  -26.3208  -46.6028 C.2       13 UNK         0.5000 
     78 O          -2.3547  -26.7218  -47.6500 O.2       13 UNK        -0.5000 
     79 N          -4.1935  -26.2672  -46.4034 N.am      14 UNK        -0.5000 
     80 CA         -5.2590  -26.7065  -47.3094 C.3       14 UNK         0.1400 
     81 CB         -5.2946  -28.2480  -47.3709 C.3       14 UNK        -0.1800 
     82 C          -5.1826  -26.0576  -48.7066 C.2       14 UNK         0.5000 
     83 O          -5.3010  -26.7565  -49.7135 O.2       14 UNK        -0.5000 
     84 N          -4.9580  -24.7360  -48.7422 N.am      15 UNK        -0.5000 
     85 CA         -4.7829  -23.9189  -49.9500 C.3       15 UNK         0.1400 
     86 CB         -6.1066  -23.8085  -50.7332 C.3       15 UNK        -0.1800 
     87 C          -3.6026  -24.3964  -50.8191 C.2       15 UNK         0.5000 
     88 O          -3.7611  -24.6074  -52.0239 O.2       15 UNK        -0.5000 
     89 N          -2.4436  -24.5677  -50.1704 N.am      16 UNK        -0.5000 
     90 CA         -1.1888  -25.0988  -50.7077 C.3       16 UNK         0.1400 
     91 CB         -0.5725  -24.1155  -51.7247 C.3       16 UNK        -0.1800 
     92 C          -1.3544  -26.5294  -51.2597 C.2       16 UNK         0.5000 
     93 O          -0.9032  -26.8221  -52.3673 O.2       16 UNK        -0.5000 
     94 N          -2.0249  -27.3827  -50.4712 N.am      17 UNK        -0.5000 
     95 CA         -2.4172  -28.7593  -50.7882 C.3       17 UNK         0.1400 
     96 CB         -1.1790  -29.6764  -50.8663 C.3       17 UNK        -0.1800 
     97 C          -3.3186  -28.8382  -52.0398 C.2       17 UNK         0.5000 
     98 O          -3.0207  -29.5770  -52.9805 O.2       17 UNK        -0.5000 
     99 N          -4.4086  -28.0586  -52.0120 N.am      18 UNK        -0.5000 
    100 CA        -5.4499  -27.9314  -53.0349 C.3       18 UNK         0.1400 
    101 CB        -6.2360  -29.2510  -53.1831 C.3       18 UNK        -0.1800 
    102 C         -4.9367  -27.3740  -54.3801 C.2       18 UNK         0.5000 
    103 O         -5.4224  -27.7760  -55.4392 O.2       18 UNK        -0.5000 
    104 N         -3.9853  -26.4340  -54.3146 N.am      19 UNK        -0.5000 
    105 CA        -3.4341  -25.7124  -55.4661 C.3       19 UNK         0.1400 
    106 CB        -1.9038  -25.6684  -55.3410 C.3       19 UNK        -0.1800 
    107 C         -4.0266  -24.2935  -55.5996 C.2       19 UNK         0.5000 
    108 O         -3.5814  -23.5344  -56.4609 O.2       19 UNK        -0.5000 
    109 N         -5.0150  -23.9647  -54.7532 N.am      20 UNK        -0.5000 
    110 CA        -5.7316  -22.6886  -54.6555 C.3       20 UNK         0.1400 
    111 CB        -6.4697  -22.3526  -55.9689 C.3       20 UNK        -0.1800 
    112 C         -4.8503  -21.5316  -54.1393 C.2       20 UNK         0.5000 
    113 O         -5.0708  -20.3798  -54.5201 O.2       20 UNK        -0.5000 
    114 N         -3.8874  -21.8593  -53.2622 N.am      21 UNK        -0.5000 
    115 CA        -2.9620  -20.9542  -52.5698 C.3       21 UNK         0.1400 
    116 CB        -3.7028  -20.1793  -51.4582 C.3       21 UNK        -0.1800 
    117 C         -2.1862  -20.0444  -53.5458 C.2       21 UNK         0.5000 
    118 O         -1.2499  -20.5184  -54.1907 O.2       21 UNK        -0.5000 
    119 N         -2.5921  -18.7716  -53.6441 N.am      22 UNK        -0.5000 
    120 CA        -2.0501  -17.7786  -54.5866 C.3       22 UNK         0.1400 
    121 C         -2.4173  -18.0404  -56.0781 C.2       22 UNK         0.5000 
    122 N         -3.4050  -18.8723  -56.3884 N.am      22 UNK        -0.7600 
    123 O         -1.7913  -17.4758  -56.9711 O.2       22 UNK        -0.5000 
    124 C124       -2.4295  -16.3246  -54.1947 C.3       23 UNK        -0.0398 
    125 S125       -2.0059  -15.9063  -52.4677 S.3       23 UNK        -0.2404 
    126 C126       -3.4918  -14.9997  -51.9310 C.3       23 UNK        -0.0205 
    127 H127        1.5918   -8.8475  -49.0372 H         1 UNK         0.0600 
    128 H128        0.4358   -9.9983  -49.7169 H         1 UNK         0.0600 
    129 H129        2.0253  -10.5531  -49.1854 H         1 UNK         0.0600 
    130 H130        1.9414  -11.6186  -47.2507 H         1 UNK         0.3000 
    131 H131        1.4432  -12.3280  -45.2280 H         1 UNK         0.0600 
    132 H132       -1.3998  -11.2745  -45.5791 H         1 UNK         0.0800 
    133 H133       -0.8685  -12.4707  -44.4262 H         1 UNK         0.0800 
    134 H134       -2.2436  -11.9882  -48.0605 H         1 UNK         0.0800 
    135 H135       -3.2029  -12.5114  -46.6935 H         1 UNK         0.0800 
    136 H136       -2.4746  -13.1676  -50.1635 H         1 UNK         0.1150 
    137 H137       -4.7597  -16.7873  -50.3433 H         1 UNK         0.1150 
    138 H138       -3.8696  -15.0010  -46.5486 H         1 UNK         0.1150 
    139 H139       -4.9621  -17.0923  -46.5791 H         1 UNK         0.0800 
    140 H140       -6.2164  -17.0056  -47.7918 H         1 UNK         0.0800 
    141 H141       -5.8876  -19.9792  -46.5915 H         1 UNK         0.0800 
    142 H142       -4.4173  -19.3009  -45.9239 H         1 UNK         0.0800 
    143 H143       -4.4852  -21.6042  -47.9128 H         1 UNK         0.0600 
    144 H144       -2.2652  -20.1081  -47.0472 H         1 UNK         0.3000 
    145 H145        0.2215  -22.6943  -47.3342 H         1 UNK         0.0600 
    146 H146       -0.4027  -20.1851  -48.9743 H         1 UNK         0.0600 
    147 H147        1.2253  -20.7856  -48.6575 H         1 UNK         0.0600 
    148 H148        0.0831  -21.7586  -49.5653 H         1 UNK         0.0600 
    149 H149        0.2561  -19.9486  -46.4471 H         1 UNK         0.3000 
    150 H150       -0.3044  -20.6326  -43.0060 H         1 UNK         0.0600 
    151 H151        2.0991  -21.1907  -43.2021 H         1 UNK         0.0600 
    152 H152        1.8991  -19.5109  -42.7310 H         1 UNK         0.0600 
    153 H153        2.3339  -19.9185  -44.3909 H         1 UNK         0.0600 
    154 H154        0.4253  -18.3136  -44.5999 H         1 UNK         0.3000 
    155 H155       -2.8832  -17.3680  -45.4266 H         1 UNK         0.0600 
    156 H156       -2.8302  -16.4675  -43.1566 H         1 UNK         0.0600 
    157 H157       -2.2196  -15.2403  -44.2572 H         1 UNK         0.0600 
    158 H158       -1.1041  -16.1626  -43.2494 H         1 UNK         0.0600 
    159 H159       -0.3356  -16.0842  -45.7339 H         1 UNK         0.3000 
    160 H160        0.7321  -17.9500  -48.5388 H         1 UNK         0.0600 
    161 H161        0.4885  -16.0624  -50.0471 H         1 UNK         0.0600 
    162 H162       -0.5728  -15.2186  -48.9236 H         1 UNK         0.0600 
    163 H163       -1.1168  -16.6926  -49.7106 H         1 UNK         0.0600 
    164 H164        1.4748  -15.3299  -47.6775 H         1 UNK         0.3000 
    165 H165        4.2805  -16.4007  -46.1188 H         1 UNK         0.0600 
    166 H166        2.4638  -13.9638  -46.5554 H         1 UNK         0.0600 
    167 H167        4.1850  -13.9109  -46.2042 H         1 UNK         0.0600 
    168 H168        3.6258  -14.6108  -47.7124 H         1 UNK         0.0600 
    169 H169        3.9636  -15.9397  -43.9645 H         1 UNK         0.3000 
    170 H170        1.3348  -14.5277  -42.0464 H         1 UNK         0.0600 
    171 H171        2.7068  -17.2657  -41.8953 H         1 UNK         0.0600 
    172 H172        1.8706  -16.4419  -40.5793 H         1 UNK         0.0600 
    173 H173        0.9680  -17.0098  -41.9744 H         1 UNK         0.0600 
    174 H174        3.9922  -15.2152  -41.3385 H         1 UNK         0.3000 
    175 H175        5.2560  -13.2529  -40.6404 H         1 UNK         0.0600 
    176 H176        6.2959  -13.4591  -43.5349 H         1 UNK         0.0600 
    177 H177        7.3166  -13.3673  -42.1008 H         1 UNK         0.0600 
    178 H178        6.2854  -14.7656  -42.3547 H         1 UNK         0.0600 
    179 H179        4.9028  -11.1686  -42.6950 H         1 UNK         0.3000 
    180 H180        5.6149   -8.6579  -40.3386 H         1 UNK         0.0600 
    181 H181        7.1016   -9.1189  -42.9753 H         1 UNK         0.0600 
    182 H182        7.8216   -8.7692  -41.4134 H         1 UNK         0.0600 
    183 H183        6.8364   -7.5521  -42.2099 H         1 UNK         0.0600 
    184 H184        3.7660   -8.3227  -41.4457 H         1 UNK         0.3000 
    185 H185        2.0384   -8.5886  -42.8159 H         1 UNK         0.0600 
    186 H186        1.7390   -6.9949  -44.7320 H         1 UNK         0.0600 
    187 H187        3.1198   -6.5411  -43.7436 H         1 UNK         0.0600 
    188 H188        3.3745   -7.3426  -45.2900 H         1 UNK         0.0600 
    189 H189        2.7498   -9.8996  -45.4011 H         1 UNK         0.3000 
    190 H190       -3.1300  -21.3036  -44.6051 H         1 UNK         0.3000 
    191 H191       -4.9328  -23.0501  -43.3071 H         1 UNK         0.0600 
    192 H192       -2.0032  -22.4512  -42.6386 H         1 UNK         0.0600 
    193 H193       -3.3913  -21.4988  -42.1178 H         1 UNK         0.0600 
    194 H194       -3.1889  -23.1477  -41.5443 H         1 UNK         0.0600 
    195 H195       -1.9509  -23.7559  -45.1268 H         1 UNK         0.3000 
    196 H196       -2.0198  -26.6279  -44.6682 H         1 UNK         0.0600 
    197 H197        0.1109  -25.3681  -44.9997 H         1 UNK         0.0600 
    198 H198       -0.3873  -24.9501  -46.6376 H         1 UNK         0.0600 
    199 H199       -0.0908  -26.6289  -46.2054 H         1 UNK         0.0600 
    200 H200       -4.5017  -25.9122  -45.5052 H         1 UNK         0.3000 
    201 H201       -6.1982  -26.3694  -46.8687 H         1 UNK         0.0600 
    202 H202       -6.1427  -28.5984  -47.9605 H         1 UNK         0.0600 
    203 H203       -5.3939  -28.6794  -46.3749 H         1 UNK         0.0600 
    204 H204       -4.3899  -28.6553  -47.8231 H         1 UNK         0.0600 
    205 H205       -4.8560  -24.2527  -47.8567 H         1 UNK         0.3000 
    206 H206       -4.5172  -22.9185  -49.6203 H         1 UNK         0.0600 
    207 H207       -6.9194  -23.4771  -50.0871 H         1 UNK         0.0600 
    208 H208       -6.3991  -24.7596  -51.1793 H         1 UNK         0.0600 
    209 H209       -6.0189  -23.0798  -51.5381 H         1 UNK         0.0600 
    210 H210       -2.4215  -24.3274  -49.1810 H         1 UNK         0.3000 
    211 H211       -0.5012  -25.1762  -49.8642 H         1 UNK         0.0600 
    212 H212       -0.3810  -23.1467  -51.2694 H         1 UNK         0.0600 
    213 H213        0.3800  -24.4861  -52.1047 H         1 UNK         0.0600 
    214 H214       -1.2257  -23.9485  -52.5792 H         1 UNK         0.0600 
    215 H215       -2.3189  -27.0466  -49.5569 H         1 UNK         0.3000 
    216 H216       -3.0257  -29.1025  -49.9504 H         1 UNK         0.0600 
    217 H217       -1.4744  -30.7181  -50.9964 H         1 UNK         0.0600 
    218 H218       -0.5294  -29.4148  -51.7021 H         1 UNK         0.0600 
    219 H219       -0.5887  -29.6184  -49.9519 H         1 UNK         0.0600 
    220 H220       -4.5755  -27.5035  -51.1728 H         1 UNK         0.3000 
    221 H221       -6.1451  -27.1829  -52.6519 H         1 UNK         0.0600 
    222 H222       -5.6237  -30.0415  -53.6178 H         1 UNK         0.0600 
    223 H223       -6.6018  -29.6015  -52.2180 H         1 UNK         0.0600 
    224 H224       -7.1052  -29.1188  -53.8285 H         1 UNK         0.0600 
    225 H225       -3.6662  -26.1239  -53.4019 H         1 UNK         0.3000 
    226 H226       -3.6728  -26.2412  -56.3907 H         1 UNK         0.0600 
    227 H227       -1.4875  -26.6712  -55.2426 H         1 UNK         0.0600 
    228 H228       -1.4484  -25.2122  -56.2206 H         1 UNK         0.0600 
    229 H229       -1.5907  -25.0913  -54.4733 H         1 UNK         0.0600 
    230 H230       -5.2576  -24.6539  -54.0557 H         1 UNK         0.3000 
    231 H231       -6.4969  -22.8377  -53.8933 H         1 UNK         0.0600 
    232 H232       -7.1405  -21.5036  -55.8324 H         1 UNK         0.0600 
    233 H233       -7.0767  -23.1924  -56.3071 H         1 UNK         0.0600 
    234 H234       -5.7783  -22.0923  -56.7706 H         1 UNK         0.0600 
    235 H235       -3.7739  -22.8446  -53.0482 H         1 UNK         0.3000 
    236 H236       -2.2172  -21.5849  -52.0833 H         1 UNK         0.0600 
    237 H237       -4.1127  -20.8606  -50.7143 H         1 UNK         0.0600 
    238 H238       -3.0265  -19.5046  -50.9306 H         1 UNK         0.0600 
    239 H239       -4.5308  -19.5847  -51.8452 H         1 UNK         0.0600 
    240 H240       -3.3807  -18.4730  -53.0903 H         1 UNK         0.3000 
    241 H241       -0.9625  -17.8529  -54.5297 H         1 UNK         0.0600 
    242 H242       -3.9397  -19.3435  -55.6632 H         1 UNK         0.3800 
    243 H243       -3.6297  -19.0344  -57.3568 H         1 UNK         0.3800 
    244 H244       -1.9144  -15.6117  -54.8411 H         1 UNK         0.0800 
    245 H245       -3.4959  -16.1634  -54.3592 H         1 UNK         0.0800 
    246 H246       -3.4571  -13.9823  -52.3234 H         1 UNK         0.0800 
    247 H247       -4.3857  -15.4626  -52.3515 H         1 UNK         0.0800 
@<TRIPOS>BOND
     1    1    2 1    
     2    1  127 1    
     3    1  128 1    
     4    1  129 1    
     5    2    3 2    
     6    2    4 am   BACKBONE|DICT|INTERRES
     7    4    5 1    
     8    4  130 1    
     9    5    6 1    
    10    5   65 1    
    11    5  131 1    
    12    6    7 1    
    13    6  132 1    
    14    6  133 1    
    15    7    8 1    
    16    8    9 1    
    17    8  134 1    
    18    8  135 1    
    19    9   10 ar   
    20    9   14 ar   
    21   10   11 ar   
    22   10  136 1    
    23   11   12 ar   
    24   11  126 1    
    25   12   13 ar   
    26   12  137 1    
    27   13   14 ar   
    28   13   15 1    
    29   14  138 1    
    30   15   16 1    
    31   15  139 1    
    32   15  140 1    
    33   16   17 1    
    34   17   18 1    
    35   17  141 1    
    36   17  142 1    
    37   18   19 1    
    38   18   67 1    
    39   18  143 1    
    40   19   20 am   BACKBONE|DICT|INTERRES
    41   19  144 1    
    42   20   21 2    
    43   20   22 1    
    44   22   23 1    
    45   22   24 1    
    46   22  145 1    
    47   23  146 1    
    48   23  147 1    
    49   23  148 1    
    50   24   25 am   BACKBONE|DICT|INTERRES
    51   24  149 1    
    52   25   26 2    
    53   25   27 1    
    54   27   28 1    
    55   27   29 1    
    56   27  150 1    
    57   28  151 1    
    58   28  152 1    
    59   28  153 1    
    60   29   30 am   BACKBONE|DICT|INTERRES
    61   29  154 1    
    62   30   31 2    
    63   30   32 1    
    64   32   33 1    
    65   32   34 1    
    66   32  155 1    
    67   33  156 1    
    68   33  157 1    
    69   33  158 1    
    70   34   35 am   BACKBONE|DICT|INTERRES
    71   34  159 1    
    72   35   36 2    
    73   35   37 1    
    74   37   38 1    
    75   37   39 1    
    76   37  160 1    
    77   38  161 1    
    78   38  162 1    
    79   38  163 1    
    80   39   40 am   BACKBONE|DICT|INTERRES
    81   39  164 1    
    82   40   41 2    
    83   40   42 1    
    84   42   43 1    
    85   42   44 1    
    86   42  165 1    
    87   43  166 1    
    88   43  167 1    
    89   43  168 1    
    90   44   45 am   BACKBONE|DICT|INTERRES
    91   44  169 1    
    92   45   46 2    
    93   45   47 1    
    94   47   48 1    
    95   47   49 1    
    96   47  170 1    
    97   48  171 1    
    98   48  172 1    
    99   48  173 1    
   100   49   50 am   BACKBONE|DICT|INTERRES
   101   49  174 1    
   102   50   51 2    
   103   50   52 1    
   104   52   53 1    
   105   52   54 1    
   106   52  175 1    
   107   53  176 1    
   108   53  177 1    
   109   53  178 1    
   110   54   55 am   BACKBONE|DICT|INTERRES
   111   54  179 1    
   112   55   56 2    
   113   55   57 1    
   114   57   58 1    
   115   57   59 1    
   116   57  180 1    
   117   58  181 1    
   118   58  182 1    
   119   58  183 1    
   120   59   60 am   BACKBONE|DICT|INTERRES
   121   59  184 1    
   122   60   61 2    
   123   60   62 1    
   124   62   63 1    
   125   62   64 1    
   126   62  185 1    
   127   63  186 1    
   128   63  187 1    
   129   63  188 1    
   130   64   65 am   BACKBONE|DICT|INTERRES
   131   64  189 1    
   132   65   66 2    
   133   67   68 2    
   134   67   69 am   BACKBONE|DICT|INTERRES
   135   69   70 1    
   136   69  190 1    
   137   70   71 1    
   138   70   72 1    
   139   70  191 1    
   140   71  192 1    
   141   71  193 1    
   142   71  194 1    
   143   72   73 2    
   144   72   74 am   BACKBONE|DICT|INTERRES
   145   74   75 1    
   146   74  195 1    
   147   75   76 1    
   148   75   77 1    
   149   75  196 1    
   150   76  197 1    
   151   76  198 1    
   152   76  199 1    
   153   77   78 2    
   154   77   79 am   BACKBONE|DICT|INTERRES
   155   79   80 1    
   156   79  200 1    
   157   80   81 1    
   158   80   82 1    
   159   80  201 1    
   160   81  202 1    
   161   81  203 1    
   162   81  204 1    
   163   82   83 2    
   164   82   84 am   BACKBONE|DICT|INTERRES
   165   84   85 1    
   166   84  205 1    
   167   85   86 1    
   168   85   87 1    
   169   85  206 1    
   170   86  207 1    
   171   86  208 1    
   172   86  209 1    
   173   87   88 2    
   174   87   89 am   BACKBONE|DICT|INTERRES
   175   89   90 1    
   176   89  210 1    
   177   90   91 1    
   178   90   92 1    
   179   90  211 1    
   180   91  212 1    
   181   91  213 1    
   182   91  214 1    
   183   92   93 2    
   184   92   94 am   BACKBONE|DICT|INTERRES
   185   94   95 1    
   186   94  215 1    
   187   95   96 1    
   188   95   97 1    
   189   95  216 1    
   190   96  217 1    
   191   96  218 1    
   192   96  219 1    
   193   97   98 2    
   194   97   99 am   BACKBONE|DICT|INTERRES
   195   99  100 1    
   196   99  220 1    
   197  100  101 1    
   198  100  102 1    
   199  100  221 1    
   200  101  222 1    
   201  101  223 1    
   202  101  224 1    
   203  102  103 2    
   204  102  104 am   BACKBONE|DICT|INTERRES
   205  104  105 1    
   206  104  225 1    
   207  105  106 1    
   208  105  107 1    
   209  105  226 1    
   210  106  227 1    
   211  106  228 1    
   212  106  229 1    
   213  107  108 2    
   214  107  109 am   BACKBONE|DICT|INTERRES
   215  109  110 1    
   216  109  230 1    
   217  110  111 1    
   218  110  112 1    
   219  110  231 1    
   220  111  232 1    
   221  111  233 1    
   222  111  234 1    
   223  112  113 2    
   224  112  114 am   BACKBONE|DICT|INTERRES
   225  114  115 1    
   226  114  235 1    
   227  115  116 1    
   228  115  117 1    
   229  115  236 1    
   230  116  237 1    
   231  116  238 1    
   232  116  239 1    
   233  117  118 2    
   234  117  119 am   BACKBONE|DICT|INTERRES
   235  119  120 1    
   236  119  240 1    
   237  120  121 1    
   238  120  124 1    
   239  120  241 1    
   240  121  122 am   BACKBONE|DICT|INTERRES
   241  121  123 2    
   242  122  242 1    
   243  122  243 1    
   244  124  125 1    
   245  124  244 1    
   246  124  245 1    
   247  125  126 1    
   248  126  246 1    
   249  126  247 1    
@<TRIPOS>SUBSTRUCTURE
     1 UNK         1 GROUP             0       ****    0 ROOT    
