@<TRIPOS>MOLECULE
3R540
247   249    1
SMALL
USER_CHARGES


@<TRIPOS>ATOM
      1 CA         -5.3291  -12.4121  -45.7706 C.3       0 UNK        -0.1800 
      2 C          -3.9226  -12.8992  -46.0863 C.2       0 UNK         0.5000 
      3 O          -2.9560  -12.3709  -45.5392 O.2       0 UNK        -0.5000 
      4 N          -3.8042  -13.9134  -46.9545 N.am      1 UNK        -0.5000 
      5 CA         -2.5399  -14.5202  -47.3961 C.3       1 UNK         0.1400 
      6 C6         -2.7993  -15.5730  -48.5034 C.3       23 UNK        -0.0398 
      7 S7         -1.2914  -16.2033  -49.3201 S.3       23 UNK        -0.2404 
      8 C8         -1.3473  -17.9385  -48.7819 C.3       23 UNK        -0.0205 
      9 C9         -0.1847  -18.7472  -49.3319 C.ar      23 UNK        -0.0193 
     10 C10        -0.1885  -19.1630  -50.6665 C.ar      23 UNK        -0.1150 
     11 C11         0.8736  -19.9150  -51.1776 C.ar      23 UNK        -0.0193 
     12 C12         1.9356  -20.2613  -50.3393 C.ar      23 UNK        -0.1150 
     13 C13         1.9448  -19.8630  -49.0006 C.ar      23 UNK        -0.0193 
     14 C14         0.8837  -19.1016  -48.5026 C.ar      23 UNK        -0.1150 
     15 C15         3.1160  -20.2448  -48.1100 C.3       23 UNK        -0.0205 
     16 S16         2.9611  -21.9381  -47.4592 S.3       23 UNK        -0.2404 
     17 C17         1.8399  -21.7098  -46.0394 C.3       23 UNK        -0.0398 
     18 CA          0.6595  -22.7147  -46.0407 C.3       11 UNK         0.1400 
     19 N           0.2272  -23.0398  -44.6789 N.am      11 UNK        -0.5000 
     20 C          -0.5837  -24.0557  -44.3516 C.2       10 UNK         0.5000 
     21 O          -1.0352  -24.8623  -45.1641 O.2       10 UNK        -0.5000 
     22 CA         -0.9877  -24.1590  -42.8687 C.3       10 UNK         0.1400 
     23 CB          0.0757  -24.9285  -42.0714 C.3       10 UNK        -0.1800 
     24 N          -1.2017  -22.8477  -42.2518 N.am      10 UNK        -0.5000 
     25 C          -2.1978  -22.0131  -42.5814 C.2       9 UNK         0.5000 
     26 O          -3.0635  -22.2800  -43.4122 O.2       9 UNK        -0.5000 
     27 CA         -2.1930  -20.6245  -41.9171 C.3       9 UNK         0.1400 
     28 CB         -2.9238  -20.6633  -40.5676 C.3       9 UNK        -0.1800 
     29 N          -0.8466  -20.0756  -41.7295 N.am      9 UNK        -0.5000 
     30 C           0.0052  -19.8032  -42.7252 C.2       8 UNK         0.5000 
     31 O          -0.2517  -19.9920  -43.9200 O.2       8 UNK        -0.5000 
     32 CA          1.3889  -19.2792  -42.3210 C.3       8 UNK         0.1400 
     33 CB          2.2746  -20.4205  -41.7887 C.3       8 UNK        -0.1800 
     34 N           1.9911  -18.6935  -43.5081 N.am      8 UNK        -0.5000 
     35 C           2.9782  -17.7958  -43.5468 C.2       7 UNK         0.5000 
     36 O           3.5868  -17.3953  -42.5517 O.2       7 UNK        -0.5000 
     37 CA          3.3262  -17.2792  -44.9524 C.3       7 UNK         0.1400 
     38 CB          2.1067  -16.6121  -45.6097 C.3       7 UNK        -0.1800 
     39 N           4.4141  -16.3065  -44.9146 N.am      7 UNK        -0.5000 
     40 C           5.6571  -16.5199  -45.3650 C.2       6 UNK         0.5000 
     41 O           6.0354  -17.5985  -45.8251 O.2       6 UNK        -0.5000 
     42 CA          6.6462  -15.3350  -45.3392 C.3       6 UNK         0.1400 
     43 CB          7.0376  -14.9307  -46.7705 C.3       6 UNK        -0.1800 
     44 N           6.1115  -14.1540  -44.6607 N.am      6 UNK        -0.5000 
     45 C           6.2059  -13.9156  -43.3470 C.2       5 UNK         0.5000 
     46 O           6.8092  -14.6454  -42.5596 O.2       5 UNK        -0.5000 
     47 CA          5.4961  -12.6511  -42.8212 C.3       5 UNK         0.1400 
     48 CB          6.4889  -11.4828  -42.7194 C.3       5 UNK        -0.1800 
     49 N           4.3383  -12.2255  -43.6188 N.am      5 UNK        -0.5000 
     50 C           3.2221  -12.9465  -43.7875 C.2       4 UNK         0.5000 
     51 O           3.0899  -14.0997  -43.3754 O.2       4 UNK        -0.5000 
     52 CA          2.0758  -12.2797  -44.5713 C.3       4 UNK         0.1400 
     53 CB          2.1495  -12.6454  -46.0614 C.3       4 UNK        -0.1800 
     54 N           0.7692  -12.6718  -44.0403 N.am      4 UNK        -0.5000 
     55 C           0.3102  -12.3078  -42.8330 C.2       3 UNK         0.5000 
     56 O           0.9095  -11.5279  -42.0902 O.2       3 UNK        -0.5000 
     57 CA         -1.0386  -12.8868  -42.3634 C.3       3 UNK         0.1400 
     58 CB         -2.1082  -11.7849  -42.2907 C.3       3 UNK        -0.1800 
     59 N          -1.5306  -13.9757  -43.2082 N.am      3 UNK        -0.5000 
     60 C          -1.1519  -15.2570  -43.0908 C.2       2 UNK         0.5000 
     61 O          -0.3324  -15.6521  -42.2617 O.2       2 UNK        -0.5000 
     62 CA         -1.8144  -16.2846  -44.0320 C.3       2 UNK         0.1400 
     63 CB         -2.9094  -17.0463  -43.2687 C.3       2 UNK        -0.1800 
     64 N          -2.4024  -15.7104  -45.2459 N.am      2 UNK        -0.5000 
     65 C          -1.7164  -15.0920  -46.2187 C.2       1 UNK         0.5000 
     66 O          -0.5006  -14.9116  -46.1816 O.2       1 UNK        -0.5000 
     67 C          -0.5297  -22.2170  -46.8856 C.2       11 UNK         0.5000 
     68 O          -0.7256  -22.6829  -48.0082 O.2       11 UNK        -0.5000 
     69 N          -1.3434  -21.3302  -46.2929 N.am      12 UNK        -0.5000 
     70 CA         -2.5843  -20.8308  -46.8784 C.3       12 UNK         0.1400 
     71 CB         -3.1524  -19.7048  -46.0046 C.3       12 UNK        -0.1800 
     72 C          -3.6268  -21.9385  -47.1004 C.2       12 UNK         0.5000 
     73 O          -4.2425  -21.9714  -48.1643 O.2       12 UNK        -0.5000 
     74 N          -3.7807  -22.8438  -46.1240 N.am      13 UNK        -0.5000 
     75 CA         -4.6581  -24.0126  -46.2055 C.3       13 UNK         0.1400 
     76 CB         -4.7180  -24.7206  -44.8441 C.3       13 UNK        -0.1800 
     77 C          -4.2398  -24.9937  -47.3145 C.2       13 UNK         0.5000 
     78 O          -5.0994  -25.4497  -48.0686 O.2       13 UNK        -0.5000 
     79 N          -2.9300  -25.2569  -47.4353 N.am      14 UNK        -0.5000 
     80 CA         -2.3423  -26.0771  -48.4996 C.3       14 UNK         0.1400 
     81 CB         -0.8503  -26.3008  -48.2110 C.3       14 UNK        -0.1800 
     82 C          -2.5437  -25.4766  -49.9054 C.2       14 UNK         0.5000 
     83 O          -2.7504  -26.2222  -50.8630 O.2       14 UNK        -0.5000 
     84 N          -2.5257  -24.1407  -49.9929 N.am      15 UNK        -0.5000 
     85 CA         -2.8184  -23.3685  -51.2000 C.3       15 UNK         0.1400 
     86 CB         -2.0876  -22.0227  -51.1045 C.3       15 UNK        -0.1800 
     87 C          -4.3270  -23.1519  -51.4444 C.2       15 UNK         0.5000 
     88 O          -4.6783  -22.4734  -52.4114 O.2       15 UNK        -0.5000 
     89 N          -5.1937  -23.6958  -50.5769 N.am      16 UNK        -0.5000 
     90 CA         -6.6577  -23.5962  -50.6018 C.3       16 UNK         0.1400 
     91 CB         -7.2304  -24.3462  -51.8227 C.3       16 UNK        -0.1800 
     92 C          -7.1625  -22.1408  -50.4951 C.2       16 UNK         0.5000 
     93 O          -8.0791  -21.7501  -51.2177 O.2       16 UNK        -0.5000 
     94 N          -6.5305  -21.3642  -49.6032 N.am      17 UNK        -0.5000 
     95 CA         -6.7063  -19.9235  -49.3893 C.3       17 UNK         0.1400 
     96 CB         -8.1414  -19.5838  -48.9341 C.3       17 UNK        -0.1800 
     97 C          -6.2280  -19.0988  -50.6023 C.2       17 UNK         0.5000 
     98 O          -6.8730  -18.1214  -50.9847 O.2       17 UNK        -0.5000 
     99 N          -5.0905  -19.5257  -51.1715 N.am      18 UNK        -0.5000 
    100 CA        -4.4258  -18.9854  -52.3613 C.3       18 UNK         0.1400 
    101 CB        -3.8973  -17.5585  -52.1075 C.3       18 UNK        -0.1800 
    102 C         -5.2992  -19.1026  -53.6287 C.2       18 UNK         0.5000 
    103 O         -5.4778  -18.1233  -54.3563 O.2       18 UNK        -0.5000 
    104 N         -5.8433  -20.3055  -53.8503 N.am      19 UNK        -0.5000 
    105 CA        -6.6868  -20.6492  -54.9957 C.3       19 UNK         0.1400 
    106 CB        -8.1039  -20.9818  -54.5058 C.3       19 UNK        -0.1800 
    107 C         -6.1078  -21.8269  -55.7961 C.2       19 UNK         0.5000 
    108 O         -6.2391  -21.8391  -57.0207 O.2       19 UNK        -0.5000 
    109 N         -5.4704  -22.7887  -55.1128 N.am      20 UNK        -0.5000 
    110 CA        -4.8060  -23.9376  -55.7350 C.3       20 UNK         0.1400 
    111 CB        -4.7867  -25.1101  -54.7416 C.3       20 UNK        -0.1800 
    112 C         -3.3761  -23.5993  -56.1966 C.2       20 UNK         0.5000 
    113 O         -2.8367  -24.2883  -57.0632 O.2       20 UNK        -0.5000 
    114 N         -2.7946  -22.5454  -55.6166 N.am      21 UNK        -0.5000 
    115 CA        -1.4811  -21.9982  -55.9210 C.3       21 UNK         0.1400 
    116 CB        -0.3990  -22.8036  -55.1791 C.3       21 UNK        -0.1800 
    117 C         -1.4741  -20.5282  -55.4828 C.2       21 UNK         0.5000 
    118 O         -2.2998  -20.1407  -54.6538 O.2       21 UNK        -0.5000 
    119 N         -0.5286  -19.7484  -56.0187 N.am      22 UNK        -0.5000 
    120 CA        -0.2773  -18.3338  -55.6717 C.3       22 UNK         0.1400 
    121 C         -1.4017  -17.3376  -56.0966 C.2       22 UNK         0.5000 
    122 N         -2.3238  -17.7147  -56.9735 N.am      22 UNK        -0.7600 
    123 O         -1.4212  -16.1914  -55.6560 O.2       22 UNK        -0.5000 
    124 C124        0.1588  -18.1325  -54.1901 C.3       23 UNK        -0.0398 
    125 S125        1.6124  -19.1443  -53.7372 S.3       23 UNK        -0.2404 
    126 C126        0.8729  -20.3799  -52.6245 C.3       23 UNK        -0.0205 
    127 H127       -5.5296  -12.5134  -44.7039 H         1 UNK         0.0600 
    128 H128       -6.0865  -12.9767  -46.3148 H         1 UNK         0.0600 
    129 H129       -5.4299  -11.3606  -46.0389 H         1 UNK         0.0600 
    130 H130       -4.6425  -14.2973  -47.3670 H         1 UNK         0.3000 
    131 H131       -1.9453  -13.7161  -47.8353 H         1 UNK         0.0600 
    132 H132       -3.4130  -15.1282  -49.2881 H         1 UNK         0.0800 
    133 H133       -3.3872  -16.4036  -48.1090 H         1 UNK         0.0800 
    134 H134       -2.2865  -18.3880  -49.1070 H         1 UNK         0.0800 
    135 H135       -1.3427  -17.9675  -47.6921 H         1 UNK         0.0800 
    136 H136       -1.0204  -18.9006  -51.3036 H         1 UNK         0.1150 
    137 H137        2.7567  -20.8474  -50.7277 H         1 UNK         0.1150 
    138 H138        0.8855  -18.7887  -47.4697 H         1 UNK         0.1150 
    139 H139        4.0406  -20.1776  -48.6853 H         1 UNK         0.0800 
    140 H140        3.2250  -19.5373  -47.2897 H         1 UNK         0.0800 
    141 H141        1.4896  -20.6786  -45.9842 H         1 UNK         0.0800 
    142 H142        2.4528  -21.8558  -45.1488 H         1 UNK         0.0800 
    143 H143        1.0043  -23.6509  -46.4859 H         1 UNK         0.0600 
    144 H144        0.4995  -22.3948  -43.9533 H         1 UNK         0.3000 
    145 H145       -1.9244  -24.7176  -42.8160 H         1 UNK         0.0600 
    146 H146       -0.2358  -25.0731  -41.0368 H         1 UNK         0.0600 
    147 H147        1.0331  -24.4059  -42.0643 H         1 UNK         0.0600 
    148 H148        0.2443  -25.9174  -42.5000 H         1 UNK         0.0600 
    149 H149       -0.5352  -22.5538  -41.5534 H         1 UNK         0.3000 
    150 H150       -2.7394  -19.9508  -42.5791 H         1 UNK         0.0600 
    151 H151       -2.4072  -21.2981  -39.8466 H         1 UNK         0.0600 
    152 H152       -3.9360  -21.0533  -40.6830 H         1 UNK         0.0600 
    153 H153       -3.0091  -19.6653  -40.1372 H         1 UNK         0.0600 
    154 H154       -0.5614  -19.9007  -40.7765 H         1 UNK         0.3000 
    155 H155        1.2638  -18.5077  -41.5583 H         1 UNK         0.0600 
    156 H156        1.8358  -20.8811  -40.9030 H         1 UNK         0.0600 
    157 H157        3.2613  -20.0550  -41.5038 H         1 UNK         0.0600 
    158 H158        2.4133  -21.2043  -42.5343 H         1 UNK         0.0600 
    159 H159        1.4979  -18.9397  -44.3564 H         1 UNK         0.3000 
    160 H160        3.6119  -18.1438  -45.5513 H         1 UNK         0.0600 
    161 H161        1.7402  -15.7811  -45.0067 H         1 UNK         0.0600 
    162 H162        1.2767  -17.3071  -45.7318 H         1 UNK         0.0600 
    163 H163        2.3492  -16.2277  -46.6006 H         1 UNK         0.0600 
    164 H164        4.1962  -15.4359  -44.4416 H         1 UNK         0.3000 
    165 H165        7.5480  -15.6742  -44.8252 H         1 UNK         0.0600 
    166 H166        7.7694  -14.1226  -46.7659 H         1 UNK         0.0600 
    167 H167        7.4858  -15.7681  -47.3069 H         1 UNK         0.0600 
    168 H168        6.1724  -14.5980  -47.3455 H         1 UNK         0.0600 
    169 H169        5.5963  -13.4986  -45.2297 H         1 UNK         0.3000 
    170 H170        5.1362  -12.8795  -41.8158 H         1 UNK         0.0600 
    171 H171        6.8617  -11.1853  -43.7003 H         1 UNK         0.0600 
    172 H172        6.0273  -10.6109  -42.2555 H         1 UNK         0.0600 
    173 H173        7.3515  -11.7542  -42.1091 H         1 UNK         0.0600 
    174 H174        4.3795  -11.2912  -44.0004 H         1 UNK         0.3000 
    175 H175        2.1690  -11.1957  -44.4774 H         1 UNK         0.0600 
    176 H176        2.0620  -13.7200  -46.2193 H         1 UNK         0.0600 
    177 H177        1.3520  -12.1615  -46.6256 H         1 UNK         0.0600 
    178 H178        3.0967  -12.3261  -46.4973 H         1 UNK         0.0600 
    179 H179        0.2415  -13.3447  -44.5811 H         1 UNK         0.3000 
    180 H180       -0.8896  -13.2691  -41.3514 H         1 UNK         0.0600 
    181 H181       -3.0701  -12.1852  -41.9699 H         1 UNK         0.0600 
    182 H182       -2.2506  -11.2952  -43.2539 H         1 UNK         0.0600 
    183 H183       -1.8233  -11.0134  -41.5744 H         1 UNK         0.0600 
    184 H184       -2.1735  -13.7149  -43.9457 H         1 UNK         0.3000 
    185 H185       -1.0438  -16.9965  -44.3358 H         1 UNK         0.0600 
    186 H186       -3.7120  -16.3802  -42.9496 H         1 UNK         0.0600 
    187 H187       -3.3524  -17.8318  -43.8781 H         1 UNK         0.0600 
    188 H188       -2.5039  -17.5189  -42.3733 H         1 UNK         0.0600 
    189 H189       -3.4059  -15.7742  -45.3334 H         1 UNK         0.3000 
    190 H190       -1.0991  -20.9812  -45.3711 H         1 UNK         0.3000 
    191 H191       -2.3382  -20.4190  -47.8574 H         1 UNK         0.0600 
    192 H192       -2.4122  -18.9232  -45.8367 H         1 UNK         0.0600 
    193 H193       -3.4696  -20.0749  -45.0296 H         1 UNK         0.0600 
    194 H194       -4.0185  -19.2416  -46.4785 H         1 UNK         0.0600 
    195 H195       -3.2914  -22.7057  -45.2438 H         1 UNK         0.3000 
    196 H196       -5.6620  -23.6548  -46.4434 H         1 UNK         0.0600 
    197 H197       -5.1012  -24.0548  -44.0707 H         1 UNK         0.0600 
    198 H198       -3.7355  -25.0708  -44.5280 H         1 UNK         0.0600 
    199 H199       -5.3791  -25.5872  -44.8829 H         1 UNK         0.0600 
    200 H200       -2.2861  -24.8741  -46.7498 H         1 UNK         0.3000 
    201 H201       -2.8404  -27.0486  -48.4826 H         1 UNK         0.0600 
    202 H202       -0.7049  -26.7996  -47.2527 H         1 UNK         0.0600 
    203 H203       -0.2991  -25.3606  -48.1849 H         1 UNK         0.0600 
    204 H204       -0.3936  -26.9285  -48.9772 H         1 UNK         0.0600 
    205 H205       -2.2902  -23.6065  -49.1635 H         1 UNK         0.3000 
    206 H206       -2.4254  -23.9029  -52.0672 H         1 UNK         0.0600 
    207 H207       -1.0215  -22.1696  -50.9308 H         1 UNK         0.0600 
    208 H208       -2.4734  -21.4071  -50.2914 H         1 UNK         0.0600 
    209 H209       -2.1896  -21.4568  -52.0301 H         1 UNK         0.0600 
    210 H210       -4.8159  -24.2171  -49.7949 H         1 UNK         0.3000 
    211 H211       -7.0132  -24.1068  -49.7058 H         1 UNK         0.0600 
    212 H212       -6.9737  -23.8535  -52.7601 H         1 UNK         0.0600 
    213 H213       -8.3183  -24.4009  -51.7718 H         1 UNK         0.0600 
    214 H214       -6.8562  -25.3690  -51.8679 H         1 UNK         0.0600 
    215 H215       -5.7590  -21.7756  -49.0781 H         1 UNK         0.3000 
    216 H216       -6.0381  -19.6612  -48.5677 H         1 UNK         0.0600 
    217 H217       -8.2131  -18.5406  -48.6248 H         1 UNK         0.0600 
    218 H218       -8.4401  -20.1955  -48.0829 H         1 UNK         0.0600 
    219 H219       -8.8704  -19.7357  -49.7302 H         1 UNK         0.0600 
    220 H220       -4.6820  -20.3690  -50.7965 H         1 UNK         0.3000 
    221 H221       -3.5584  -19.6215  -52.5252 H         1 UNK         0.0600 
    222 H222       -4.7066  -16.8409  -51.9718 H         1 UNK         0.0600 
    223 H223       -3.2669  -17.5247  -51.2208 H         1 UNK         0.0600 
    224 H224       -3.2922  -17.2155  -52.9479 H         1 UNK         0.0600 
    225 H225       -5.6124  -21.0568  -53.2069 H         1 UNK         0.3000 
    226 H226       -6.7584  -19.8025  -55.6813 H         1 UNK         0.0600 
    227 H227       -8.5230  -20.1614  -53.9228 H         1 UNK         0.0600 
    228 H228       -8.7745  -21.1627  -55.3466 H         1 UNK         0.0600 
    229 H229       -8.1142  -21.8752  -53.8814 H         1 UNK         0.0600 
    230 H230       -5.3589  -22.7023  -54.1066 H         1 UNK         0.3000 
    231 H231       -5.3740  -24.2511  -56.6134 H         1 UNK         0.0600 
    232 H232       -4.3492  -25.9988  -55.1980 H         1 UNK         0.0600 
    233 H233       -4.1999  -24.8798  -53.8526 H         1 UNK         0.0600 
    234 H234       -5.7946  -25.3741  -54.4219 H         1 UNK         0.0600 
    235 H235       -3.3187  -21.9957  -54.9466 H         1 UNK         0.3000 
    236 H236       -1.3073  -22.0417  -56.9981 H         1 UNK         0.0600 
    237 H237       -0.5755  -22.8145  -54.1028 H         1 UNK         0.0600 
    238 H238       -0.3721  -23.8379  -55.5219 H         1 UNK         0.0600 
    239 H239        0.5925  -22.3811  -55.3466 H         1 UNK         0.0600 
    240 H240        0.1075  -20.1462  -56.6948 H         1 UNK         0.3000 
    241 H241        0.5742  -18.0433  -56.2879 H         1 UNK         0.0600 
    242 H242       -3.0431  -17.0639  -57.2465 H         1 UNK         0.3800 
    243 H243       -2.3200  -18.6475  -57.3527 H         1 UNK         0.3800 
    244 H244       -0.6731  -18.3378  -53.5169 H         1 UNK         0.0800 
    245 H245        0.4318  -17.0911  -54.0130 H         1 UNK         0.0800 
    246 H246        1.4353  -21.3104  -52.7140 H         1 UNK         0.0800 
    247 H247       -0.1421  -20.6139  -52.9402 H         1 UNK         0.0800 
@<TRIPOS>BOND
     1    1    2 1    
     2    1  127 1    
     3    1  128 1    
     4    1  129 1    
     5    2    3 2    
     6    2    4 am   BACKBONE|DICT|INTERRES
     7    4    5 1    
     8    4  130 1    
     9    5    6 1    
    10    5   65 1    
    11    5  131 1    
    12    6    7 1    
    13    6  132 1    
    14    6  133 1    
    15    7    8 1    
    16    8    9 1    
    17    8  134 1    
    18    8  135 1    
    19    9   10 ar   
    20    9   14 ar   
    21   10   11 ar   
    22   10  136 1    
    23   11   12 ar   
    24   11  126 1    
    25   12   13 ar   
    26   12  137 1    
    27   13   14 ar   
    28   13   15 1    
    29   14  138 1    
    30   15   16 1    
    31   15  139 1    
    32   15  140 1    
    33   16   17 1    
    34   17   18 1    
    35   17  141 1    
    36   17  142 1    
    37   18   19 1    
    38   18   67 1    
    39   18  143 1    
    40   19   20 am   BACKBONE|DICT|INTERRES
    41   19  144 1    
    42   20   21 2    
    43   20   22 1    
    44   22   23 1    
    45   22   24 1    
    46   22  145 1    
    47   23  146 1    
    48   23  147 1    
    49   23  148 1    
    50   24   25 am   BACKBONE|DICT|INTERRES
    51   24  149 1    
    52   25   26 2    
    53   25   27 1    
    54   27   28 1    
    55   27   29 1    
    56   27  150 1    
    57   28  151 1    
    58   28  152 1    
    59   28  153 1    
    60   29   30 am   BACKBONE|DICT|INTERRES
    61   29  154 1    
    62   30   31 2    
    63   30   32 1    
    64   32   33 1    
    65   32   34 1    
    66   32  155 1    
    67   33  156 1    
    68   33  157 1    
    69   33  158 1    
    70   34   35 am   BACKBONE|DICT|INTERRES
    71   34  159 1    
    72   35   36 2    
    73   35   37 1    
    74   37   38 1    
    75   37   39 1    
    76   37  160 1    
    77   38  161 1    
    78   38  162 1    
    79   38  163 1    
    80   39   40 am   BACKBONE|DICT|INTERRES
    81   39  164 1    
    82   40   41 2    
    83   40   42 1    
    84   42   43 1    
    85   42   44 1    
    86   42  165 1    
    87   43  166 1    
    88   43  167 1    
    89   43  168 1    
    90   44   45 am   BACKBONE|DICT|INTERRES
    91   44  169 1    
    92   45   46 2    
    93   45   47 1    
    94   47   48 1    
    95   47   49 1    
    96   47  170 1    
    97   48  171 1    
    98   48  172 1    
    99   48  173 1    
   100   49   50 am   BACKBONE|DICT|INTERRES
   101   49  174 1    
   102   50   51 2    
   103   50   52 1    
   104   52   53 1    
   105   52   54 1    
   106   52  175 1    
   107   53  176 1    
   108   53  177 1    
   109   53  178 1    
   110   54   55 am   BACKBONE|DICT|INTERRES
   111   54  179 1    
   112   55   56 2    
   113   55   57 1    
   114   57   58 1    
   115   57   59 1    
   116   57  180 1    
   117   58  181 1    
   118   58  182 1    
   119   58  183 1    
   120   59   60 am   BACKBONE|DICT|INTERRES
   121   59  184 1    
   122   60   61 2    
   123   60   62 1    
   124   62   63 1    
   125   62   64 1    
   126   62  185 1    
   127   63  186 1    
   128   63  187 1    
   129   63  188 1    
   130   64   65 am   BACKBONE|DICT|INTERRES
   131   64  189 1    
   132   65   66 2    
   133   67   68 2    
   134   67   69 am   BACKBONE|DICT|INTERRES
   135   69   70 1    
   136   69  190 1    
   137   70   71 1    
   138   70   72 1    
   139   70  191 1    
   140   71  192 1    
   141   71  193 1    
   142   71  194 1    
   143   72   73 2    
   144   72   74 am   BACKBONE|DICT|INTERRES
   145   74   75 1    
   146   74  195 1    
   147   75   76 1    
   148   75   77 1    
   149   75  196 1    
   150   76  197 1    
   151   76  198 1    
   152   76  199 1    
   153   77   78 2    
   154   77   79 am   BACKBONE|DICT|INTERRES
   155   79   80 1    
   156   79  200 1    
   157   80   81 1    
   158   80   82 1    
   159   80  201 1    
   160   81  202 1    
   161   81  203 1    
   162   81  204 1    
   163   82   83 2    
   164   82   84 am   BACKBONE|DICT|INTERRES
   165   84   85 1    
   166   84  205 1    
   167   85   86 1    
   168   85   87 1    
   169   85  206 1    
   170   86  207 1    
   171   86  208 1    
   172   86  209 1    
   173   87   88 2    
   174   87   89 am   BACKBONE|DICT|INTERRES
   175   89   90 1    
   176   89  210 1    
   177   90   91 1    
   178   90   92 1    
   179   90  211 1    
   180   91  212 1    
   181   91  213 1    
   182   91  214 1    
   183   92   93 2    
   184   92   94 am   BACKBONE|DICT|INTERRES
   185   94   95 1    
   186   94  215 1    
   187   95   96 1    
   188   95   97 1    
   189   95  216 1    
   190   96  217 1    
   191   96  218 1    
   192   96  219 1    
   193   97   98 2    
   194   97   99 am   BACKBONE|DICT|INTERRES
   195   99  100 1    
   196   99  220 1    
   197  100  101 1    
   198  100  102 1    
   199  100  221 1    
   200  101  222 1    
   201  101  223 1    
   202  101  224 1    
   203  102  103 2    
   204  102  104 am   BACKBONE|DICT|INTERRES
   205  104  105 1    
   206  104  225 1    
   207  105  106 1    
   208  105  107 1    
   209  105  226 1    
   210  106  227 1    
   211  106  228 1    
   212  106  229 1    
   213  107  108 2    
   214  107  109 am   BACKBONE|DICT|INTERRES
   215  109  110 1    
   216  109  230 1    
   217  110  111 1    
   218  110  112 1    
   219  110  231 1    
   220  111  232 1    
   221  111  233 1    
   222  111  234 1    
   223  112  113 2    
   224  112  114 am   BACKBONE|DICT|INTERRES
   225  114  115 1    
   226  114  235 1    
   227  115  116 1    
   228  115  117 1    
   229  115  236 1    
   230  116  237 1    
   231  116  238 1    
   232  116  239 1    
   233  117  118 2    
   234  117  119 am   BACKBONE|DICT|INTERRES
   235  119  120 1    
   236  119  240 1    
   237  120  121 1    
   238  120  124 1    
   239  120  241 1    
   240  121  122 am   BACKBONE|DICT|INTERRES
   241  121  123 2    
   242  122  242 1    
   243  122  243 1    
   244  124  125 1    
   245  124  244 1    
   246  124  245 1    
   247  125  126 1    
   248  126  246 1    
   249  126  247 1    
@<TRIPOS>SUBSTRUCTURE
     1 UNK         1 GROUP             0       ****    0 ROOT    
