@<TRIPOS>MOLECULE
3R540
247   249    1
SMALL
USER_CHARGES


@<TRIPOS>ATOM
      1 CA         -2.3789  -12.3436  -47.7864 C.3       0 UNK        -0.1800 
      2 C          -1.5412  -13.5113  -47.2888 C.2       0 UNK         0.5000 
      3 O          -1.0888  -13.4990  -46.1410 O.2       0 UNK        -0.5000 
      4 N          -1.3302  -14.5156  -48.1498 N.am      1 UNK        -0.5000 
      5 CA         -0.6081  -15.7607  -47.8646 C.3       1 UNK         0.1400 
      6 C6         -0.5160  -16.6830  -49.1048 C.3       23 UNK        -0.0398 
      7 S7          0.1864  -15.8488  -50.5713 S.3       23 UNK        -0.2404 
      8 C8          1.7269  -16.7721  -50.8866 C.3       23 UNK        -0.0205 
      9 C9          1.5094  -18.2723  -51.0400 C.ar      23 UNK        -0.0193 
     10 C10         0.6452  -18.7669  -52.0205 C.ar      23 UNK        -0.1150 
     11 C11         0.4493  -20.1425  -52.1653 C.ar      23 UNK        -0.0193 
     12 C12         1.1162  -21.0273  -51.3138 C.ar      23 UNK        -0.1150 
     13 C13         1.9826  -20.5482  -50.3275 C.ar      23 UNK        -0.0193 
     14 C14         2.1829  -19.1697  -50.2051 C.ar      23 UNK        -0.1150 
     15 C15         2.7117  -21.5268  -49.4126 C.3       23 UNK        -0.0205 
     16 S16         2.4389  -21.2028  -47.6380 S.3       23 UNK        -0.2404 
     17 C17         0.6330  -21.4119  -47.4752 C.3       23 UNK        -0.0398 
     18 CA          0.2210  -22.7761  -46.8747 C.3       11 UNK         0.1400 
     19 N           0.8538  -23.0373  -45.5779 N.am      11 UNK        -0.5000 
     20 C           0.8556  -24.2305  -44.9644 C.2       10 UNK         0.5000 
     21 O           0.3210  -25.2347  -45.4315 O.2       10 UNK        -0.5000 
     22 CA          1.5155  -24.3116  -43.5737 C.3       10 UNK         0.1400 
     23 CB          3.0090  -24.6410  -43.7114 C.3       10 UNK        -0.1800 
     24 N           1.3681  -23.0897  -42.7844 N.am      10 UNK        -0.5000 
     25 C           0.2115  -22.4849  -42.4776 C.2       9 UNK         0.5000 
     26 O          -0.8946  -22.9489  -42.7553 O.2       9 UNK        -0.5000 
     27 CA          0.3082  -21.0999  -41.8063 C.3       9 UNK         0.1400 
     28 CB          0.0366  -21.2135  -40.2995 C.3       9 UNK        -0.1800 
     29 N           1.5949  -20.4230  -42.0151 N.am      9 UNK        -0.5000 
     30 C           2.0988  -20.0687  -43.2058 C.2       8 UNK         0.5000 
     31 O           1.5307  -20.2804  -44.2800 O.2       8 UNK        -0.5000 
     32 CA          3.5133  -19.4615  -43.1855 C.3       8 UNK         0.1400 
     33 CB          4.5651  -20.5822  -43.2079 C.3       8 UNK        -0.1800 
     34 N           3.7527  -18.5750  -44.3223 N.am      8 UNK        -0.5000 
     35 C           3.1616  -17.3889  -44.4940 C.2       7 UNK         0.5000 
     36 O           2.3825  -16.8801  -43.6809 O.2       7 UNK        -0.5000 
     37 CA          3.4933  -16.6455  -45.7954 C.3       7 UNK         0.1400 
     38 CB          2.9210  -17.3734  -47.0217 C.3       7 UNK        -0.1800 
     39 N           2.9207  -15.3120  -45.6945 N.am      7 UNK        -0.5000 
     40 C           3.3325  -14.2025  -46.3148 C.2       6 UNK         0.5000 
     41 O           4.2228  -14.1863  -47.1652 O.2       6 UNK        -0.5000 
     42 CA          2.6285  -12.8864  -45.9163 C.3       6 UNK         0.1400 
     43 CB          1.8783  -12.2893  -47.1168 C.3       6 UNK        -0.1800 
     44 N           1.6978  -13.0561  -44.7903 N.am      6 UNK        -0.5000 
     45 C           2.0843  -13.1391  -43.5060 C.2       5 UNK         0.5000 
     46 O           3.2590  -13.0245  -43.1525 O.2       5 UNK        -0.5000 
     47 CA          0.9984  -13.4465  -42.4505 C.3       5 UNK         0.1400 
     48 CB          1.3674  -12.9312  -41.0437 C.3       5 UNK        -0.1800 
     49 N          -0.3472  -13.0060  -42.8277 N.am      5 UNK        -0.5000 
     50 C          -0.7615  -11.7514  -43.0659 C.2       4 UNK         0.5000 
     51 O          -0.0320  -10.7625  -42.9823 O.2       4 UNK        -0.5000 
     52 CA         -2.2358  -11.5753  -43.4781 C.3       4 UNK         0.1400 
     53 CB         -2.3891  -10.5351  -44.6011 C.3       4 UNK        -0.1800 
     54 N          -2.8104  -12.8479  -43.9216 N.am      4 UNK        -0.5000 
     55 C          -3.8522  -13.4653  -43.3523 C.2       3 UNK         0.5000 
     56 O          -4.4966  -12.9989  -42.4120 O.2       3 UNK        -0.5000 
     57 CA         -4.2369  -14.8479  -43.9133 C.3       3 UNK         0.1400 
     58 CB         -5.2042  -14.6908  -45.0966 C.3       3 UNK        -0.1800 
     59 N          -3.1096  -15.6826  -44.3369 N.am      3 UNK        -0.5000 
     60 C          -2.0746  -16.0852  -43.5887 C.2       2 UNK         0.5000 
     61 O          -1.8763  -15.7023  -42.4363 O.2       2 UNK        -0.5000 
     62 CA         -1.0691  -17.0563  -44.2440 C.3       2 UNK         0.1400 
     63 CB         -1.6239  -18.4923  -44.2896 C.3       2 UNK        -0.1800 
     64 N          -0.5933  -16.6104  -45.5612 N.am      2 UNK        -0.5000 
     65 C          -1.2941  -16.4962  -46.6977 C.2       1 UNK         0.5000 
     66 O          -2.4631  -16.8636  -46.8283 O.2       1 UNK        -0.5000 
     67 C          -1.3174  -22.8770  -46.7962 C.2       11 UNK         0.5000 
     68 O          -1.9465  -23.3220  -47.7582 O.2       11 UNK        -0.5000 
     69 N          -1.8959  -22.4774  -45.6545 N.am      12 UNK        -0.5000 
     70 CA         -3.3239  -22.6092  -45.3706 C.3       12 UNK         0.1400 
     71 CB         -3.7456  -21.5938  -44.2991 C.3       12 UNK        -0.1800 
     72 C          -3.6828  -24.0403  -44.9435 C.2       12 UNK         0.5000 
     73 O          -4.7066  -24.5583  -45.3868 O.2       12 UNK        -0.5000 
     74 N          -2.8216  -24.6707  -44.1307 N.am      13 UNK        -0.5000 
     75 CA         -2.9710  -26.0544  -43.6675 C.3       13 UNK         0.1400 
     76 CB         -1.8881  -26.3671  -42.6252 C.3       13 UNK        -0.1800 
     77 C          -2.9340  -27.0825  -44.8154 C.2       13 UNK         0.5000 
     78 O          -3.6999  -28.0463  -44.7958 O.2       13 UNK        -0.5000 
     79 N          -2.0777  -26.8320  -45.8153 N.am      14 UNK        -0.5000 
     80 CA         -1.9917  -27.5954  -47.0623 C.3       14 UNK         0.1400 
     81 CB         -0.6342  -27.3027  -47.7224 C.3       14 UNK        -0.1800 
     82 C          -3.1356  -27.2900  -48.0523 C.2       14 UNK         0.5000 
     83 O          -3.2584  -27.9940  -49.0551 O.2       14 UNK        -0.5000 
     84 N          -3.9239  -26.2382  -47.7770 N.am      15 UNK        -0.5000 
     85 CA         -4.9986  -25.6784  -48.6048 C.3       15 UNK         0.1400 
     86 CB         -6.1620  -26.6803  -48.7551 C.3       15 UNK        -0.1800 
     87 C          -4.4986  -25.1235  -49.9560 C.2       15 UNK         0.5000 
     88 O          -5.2575  -25.0831  -50.9259 O.2       15 UNK        -0.5000 
     89 N          -3.2295  -24.6963  -49.9933 N.am      16 UNK        -0.5000 
     90 CA         -2.5879  -24.0952  -51.1580 C.3       16 UNK         0.1400 
     91 CB         -1.0658  -24.2739  -51.0459 C.3       16 UNK        -0.1800 
     92 C          -2.9606  -22.6107  -51.2830 C.2       16 UNK         0.5000 
     93 O          -3.2439  -22.1436  -52.3865 O.2       16 UNK        -0.5000 
     94 N          -2.9973  -21.9030  -50.1447 N.am      17 UNK        -0.5000 
     95 CA         -3.3353  -20.4820  -50.0246 C.3       17 UNK         0.1400 
     96 CB         -2.7586  -19.9359  -48.7060 C.3       17 UNK        -0.1800 
     97 C          -4.8465  -20.1929  -50.1780 C.2       17 UNK         0.5000 
     98 O          -5.4226  -19.4521  -49.3801 O.2       17 UNK        -0.5000 
     99 N          -5.4661  -20.7657  -51.2172 N.am      18 UNK        -0.5000 
    100 CA        -6.8281  -20.4538  -51.6587 C.3       18 UNK         0.1400 
    101 CB        -7.2999  -21.5489  -52.6270 C.3       18 UNK        -0.1800 
    102 C         -6.9071  -19.0653  -52.3261 C.2       18 UNK         0.5000 
    103 O         -7.9479  -18.4100  -52.2686 O.2       18 UNK        -0.5000 
    104 N         -5.7870  -18.6428  -52.9190 N.am      19 UNK        -0.5000 
    105 CA        -5.5156  -17.3318  -53.4854 C.3       19 UNK         0.1400 
    106 CB        -6.1086  -17.2375  -54.9024 C.3       19 UNK        -0.1800 
    107 C         -3.9892  -17.1762  -53.5164 C.2       19 UNK         0.5000 
    108 O         -3.2764  -18.1837  -53.4803 O.2       19 UNK        -0.5000 
    109 N         -3.5021  -15.9350  -53.6331 N.am      20 UNK        -0.5000 
    110 CA        -2.0696  -15.6255  -53.7377 C.3       20 UNK         0.1400 
    111 CB        -1.8652  -14.1107  -53.5881 C.3       20 UNK        -0.1800 
    112 C         -1.4203  -16.1419  -55.0394 C.2       20 UNK         0.5000 
    113 O         -0.2150  -16.3885  -55.0637 O.2       20 UNK        -0.5000 
    114 N         -2.2400  -16.3215  -56.0844 N.am      21 UNK        -0.5000 
    115 CA        -1.8682  -16.9449  -57.3557 C.3       21 UNK         0.1400 
    116 CB        -2.8296  -16.4365  -58.4427 C.3       21 UNK        -0.1800 
    117 C         -1.8788  -18.4889  -57.3025 C.2       21 UNK         0.5000 
    118 O         -1.4594  -19.1212  -58.2727 O.2       21 UNK        -0.5000 
    119 N         -2.3686  -19.0666  -56.1955 N.am      22 UNK        -0.5000 
    120 CA        -2.4778  -20.5122  -55.9266 C.3       22 UNK         0.1400 
    121 C         -3.5452  -21.2612  -56.7818 C.2       22 UNK         0.5000 
    122 N         -4.4623  -20.5716  -57.4496 N.am      22 UNK        -0.7600 
    123 O         -3.5656  -22.4885  -56.8218 O.2       22 UNK        -0.5000 
    124 C124       -1.1071  -21.2520  -55.9087 C.3       23 UNK        -0.0398 
    125 S125        0.1826  -20.4370  -54.9032 S.3       23 UNK        -0.2404 
    126 C126       -0.4934  -20.6677  -53.2328 C.3       23 UNK        -0.0205 
    127 H127       -1.7736  -11.4381  -47.8217 H         1 UNK         0.0600 
    128 H128       -3.2189  -12.1716  -47.1135 H         1 UNK         0.0600 
    129 H129       -2.7763  -12.5264  -48.7849 H         1 UNK         0.0600 
    130 H130       -1.7242  -14.4571  -49.0774 H         1 UNK         0.3000 
    131 H131        0.4067  -15.4887  -47.5673 H         1 UNK         0.0600 
    132 H132        0.0711  -17.5701  -48.8644 H         1 UNK         0.0800 
    133 H133       -1.5052  -17.0466  -49.3889 H         1 UNK         0.0800 
    134 H134        2.1783  -16.3907  -51.8034 H         1 UNK         0.0800 
    135 H135        2.4364  -16.5574  -50.0887 H         1 UNK         0.0800 
    136 H136        0.1270  -18.0813  -52.6770 H         1 UNK         0.1150 
    137 H137        0.9663  -22.0913  -51.4237 H         1 UNK         0.1150 
    138 H138        2.8639  -18.7995  -49.4538 H         1 UNK         0.1150 
    139 H139        2.4162  -22.5549  -49.6278 H         1 UNK         0.0800 
    140 H140        3.7810  -21.4658  -49.6186 H         1 UNK         0.0800 
    141 H141        0.1740  -21.2848  -48.4553 H         1 UNK         0.0800 
    142 H142        0.2633  -20.5927  -46.8552 H         1 UNK         0.0800 
    143 H143        0.5547  -23.5550  -47.5639 H         1 UNK         0.0600 
    144 H144        1.2923  -22.2413  -45.1277 H         1 UNK         0.3000 
    145 H145        1.0367  -25.1201  -43.0204 H         1 UNK         0.0600 
    146 H146        3.4743  -24.7832  -42.7358 H         1 UNK         0.0600 
    147 H147        3.1548  -25.5624  -44.2769 H         1 UNK         0.0600 
    148 H148        3.5499  -23.8482  -44.2301 H         1 UNK         0.0600 
    149 H149        2.2223  -22.6292  -42.5103 H         1 UNK         0.3000 
    150 H150       -0.4703  -20.4762  -42.2476 H         1 UNK         0.0600 
    151 H151        0.8005  -21.8076  -39.7964 H         1 UNK         0.0600 
    152 H152       -0.9268  -21.6894  -40.1107 H         1 UNK         0.0600 
    153 H153        0.0088  -20.2309  -39.8281 H         1 UNK         0.0600 
    154 H154        2.1333  -20.2298  -41.1826 H         1 UNK         0.3000 
    155 H155        3.6338  -18.8823  -42.2675 H         1 UNK         0.0600 
    156 H156        4.4840  -21.1918  -44.1092 H         1 UNK         0.0600 
    157 H157        4.4522  -21.2471  -42.3506 H         1 UNK         0.0600 
    158 H158        5.5759  -20.1755  -43.1682 H         1 UNK         0.0600 
    159 H159        4.3412  -18.9405  -45.0561 H         1 UNK         0.3000 
    160 H160        4.5790  -16.5669  -45.8819 H         1 UNK         0.0600 
    161 H161        1.8522  -17.5630  -46.9247 H         1 UNK         0.0600 
    162 H162        3.4112  -18.3366  -47.1624 H         1 UNK         0.0600 
    163 H163        3.0836  -16.7936  -47.9281 H         1 UNK         0.0600 
    164 H164        2.2760  -15.2122  -44.9218 H         1 UNK         0.3000 
    165 H165        3.4031  -12.1753  -45.6215 H         1 UNK         0.0600 
    166 H166        1.2636  -11.4376  -46.8244 H         1 UNK         0.0600 
    167 H167        2.5807  -11.9397  -47.8742 H         1 UNK         0.0600 
    168 H168        1.2354  -13.0262  -47.5955 H         1 UNK         0.0600 
    169 H169        0.7148  -13.1462  -45.0238 H         1 UNK         0.3000 
    170 H170        0.9470  -14.5348  -42.3923 H         1 UNK         0.0600 
    171 H171        2.2934  -13.3857  -40.6896 H         1 UNK         0.0600 
    172 H172        1.5092  -11.8502  -41.0319 H         1 UNK         0.0600 
    173 H173        0.5915  -13.1763  -40.3185 H         1 UNK         0.0600 
    174 H174       -1.0408  -13.7422  -42.8818 H         1 UNK         0.3000 
    175 H175       -2.7617  -11.2028  -42.5971 H         1 UNK         0.0600 
    176 H176       -2.1058   -9.5410  -44.2537 H         1 UNK         0.0600 
    177 H177       -1.7556  -10.7732  -45.4551 H         1 UNK         0.0600 
    178 H178       -3.4203  -10.4749  -44.9495 H         1 UNK         0.0600 
    179 H179       -2.3243  -13.2975  -44.6934 H         1 UNK         0.3000 
    180 H180       -4.7552  -15.3875  -43.1184 H         1 UNK         0.0600 
    181 H181       -4.7238  -14.2004  -45.9444 H         1 UNK         0.0600 
    182 H182       -6.0723  -14.0921  -44.8178 H         1 UNK         0.0600 
    183 H183       -5.5732  -15.6590  -45.4356 H         1 UNK         0.0600 
    184 H184       -3.1483  -16.0477  -45.2853 H         1 UNK         0.3000 
    185 H185       -0.1924  -17.0750  -43.5968 H         1 UNK         0.0600 
    186 H186       -1.8819  -18.8398  -43.2891 H         1 UNK         0.0600 
    187 H187       -2.5263  -18.5609  -44.8956 H         1 UNK         0.0600 
    188 H188       -0.8923  -19.1870  -44.7012 H         1 UNK         0.0600 
    189 H189        0.3461  -16.2452  -45.5564 H         1 UNK         0.3000 
    190 H190       -1.3081  -22.1792  -44.8882 H         1 UNK         0.3000 
    191 H191       -3.8880  -22.3853  -46.2789 H         1 UNK         0.0600 
    192 H192       -3.6304  -20.5752  -44.6641 H         1 UNK         0.0600 
    193 H193       -4.7958  -21.7206  -44.0331 H         1 UNK         0.0600 
    194 H194       -3.1616  -21.6946  -43.3843 H         1 UNK         0.0600 
    195 H195       -2.0294  -24.1495  -43.7663 H         1 UNK         0.3000 
    196 H196       -3.9449  -26.1339  -43.1802 H         1 UNK         0.0600 
    197 H197       -2.0491  -27.3504  -42.1817 H         1 UNK         0.0600 
    198 H198       -1.8927  -25.6380  -41.8146 H         1 UNK         0.0600 
    199 H199       -0.8943  -26.3706  -43.0710 H         1 UNK         0.0600 
    200 H200       -1.4194  -26.0646  -45.7134 H         1 UNK         0.3000 
    201 H201       -2.0366  -28.6602  -46.8249 H         1 UNK         0.0600 
    202 H202       -0.5084  -27.8798  -48.6393 H         1 UNK         0.0600 
    203 H203        0.1909  -27.5645  -47.0598 H         1 UNK         0.0600 
    204 H204       -0.5338  -26.2476  -47.9815 H         1 UNK         0.0600 
    205 H205       -3.7642  -25.7474  -46.9062 H         1 UNK         0.3000 
    206 H206       -5.3809  -24.8165  -48.0565 H         1 UNK         0.0600 
    207 H207       -6.4906  -27.0497  -47.7836 H         1 UNK         0.0600 
    208 H208       -7.0238  -26.2102  -49.2301 H         1 UNK         0.0600 
    209 H209       -5.8827  -27.5396  -49.3650 H         1 UNK         0.0600 
    210 H210       -2.6987  -24.6863  -49.1302 H         1 UNK         0.3000 
    211 H211       -2.9262  -24.6112  -52.0592 H         1 UNK         0.0600 
    212 H212       -0.6523  -23.7308  -50.1951 H         1 UNK         0.0600 
    213 H213       -0.5662  -23.9125  -51.9448 H         1 UNK         0.0600 
    214 H214       -0.8011  -25.3251  -50.9306 H         1 UNK         0.0600 
    215 H215       -2.7700  -22.3860  -49.2814 H         1 UNK         0.3000 
    216 H216       -2.8399  -19.9466  -50.8379 H         1 UNK         0.0600 
    217 H217       -3.0098  -18.8837  -48.5710 H         1 UNK         0.0600 
    218 H218       -1.6727  -19.9999  -48.6969 H         1 UNK         0.0600 
    219 H219       -3.1420  -20.4770  -47.8407 H         1 UNK         0.0600 
    220 H220       -4.9079  -21.3621  -51.8214 H         1 UNK         0.3000 
    221 H221       -7.4883  -20.4506  -50.7890 H         1 UNK         0.0600 
    222 H222       -6.6688  -21.6001  -53.5154 H         1 UNK         0.0600 
    223 H223       -7.2860  -22.5291  -52.1497 H         1 UNK         0.0600 
    224 H224       -8.3220  -21.3625  -52.9591 H         1 UNK         0.0600 
    225 H225       -4.9662  -19.2358  -52.8917 H         1 UNK         0.3000 
    226 H226       -5.9412  -16.5592  -52.8420 H         1 UNK         0.0600 
    227 H227       -5.9086  -16.2632  -55.3494 H         1 UNK         0.0600 
    228 H228       -5.6902  -17.9973  -55.5639 H         1 UNK         0.0600 
    229 H229       -7.1906  -17.3689  -54.8875 H         1 UNK         0.0600 
    230 H230       -4.1386  -15.1511  -53.6623 H         1 UNK         0.3000 
    231 H231       -1.5620  -16.1220  -52.9093 H         1 UNK         0.0600 
    232 H232       -2.3704  -13.5556  -54.3794 H         1 UNK         0.0600 
    233 H233       -0.8055  -13.8550  -53.6307 H         1 UNK         0.0600 
    234 H234       -2.2439  -13.7549  -52.6299 H         1 UNK         0.0600 
    235 H235       -3.2108  -16.0696  -55.9743 H         1 UNK         0.3000 
    236 H236       -0.8558  -16.6344  -57.6220 H         1 UNK         0.0600 
    237 H237       -2.7911  -15.3502  -58.5261 H         1 UNK         0.0600 
    238 H238       -2.5682  -16.8440  -59.4201 H         1 UNK         0.0600 
    239 H239       -3.8615  -16.7213  -58.2336 H         1 UNK         0.0600 
    240 H240       -2.6563  -18.4754  -55.4256 H         1 UNK         0.3000 
    241 H241       -2.8811  -20.5733  -54.9161 H         1 UNK         0.0600 
    242 H242       -4.4605  -19.5654  -57.4327 H         1 UNK         0.3800 
    243 H243       -5.1537  -21.0642  -57.9930 H         1 UNK         0.3800 
    244 H244       -1.2308  -22.2692  -55.5335 H         1 UNK         0.0800 
    245 H245       -0.7219  -21.3535  -56.9241 H         1 UNK         0.0800 
    246 H246       -1.4479  -20.1489  -53.1437 H         1 UNK         0.0800 
    247 H247       -0.6929  -21.7278  -53.0797 H         1 UNK         0.0800 
@<TRIPOS>BOND
     1    1    2 1    
     2    1  127 1    
     3    1  128 1    
     4    1  129 1    
     5    2    3 2    
     6    2    4 am   BACKBONE|DICT|INTERRES
     7    4    5 1    
     8    4  130 1    
     9    5    6 1    
    10    5   65 1    
    11    5  131 1    
    12    6    7 1    
    13    6  132 1    
    14    6  133 1    
    15    7    8 1    
    16    8    9 1    
    17    8  134 1    
    18    8  135 1    
    19    9   10 ar   
    20    9   14 ar   
    21   10   11 ar   
    22   10  136 1    
    23   11   12 ar   
    24   11  126 1    
    25   12   13 ar   
    26   12  137 1    
    27   13   14 ar   
    28   13   15 1    
    29   14  138 1    
    30   15   16 1    
    31   15  139 1    
    32   15  140 1    
    33   16   17 1    
    34   17   18 1    
    35   17  141 1    
    36   17  142 1    
    37   18   19 1    
    38   18   67 1    
    39   18  143 1    
    40   19   20 am   BACKBONE|DICT|INTERRES
    41   19  144 1    
    42   20   21 2    
    43   20   22 1    
    44   22   23 1    
    45   22   24 1    
    46   22  145 1    
    47   23  146 1    
    48   23  147 1    
    49   23  148 1    
    50   24   25 am   BACKBONE|DICT|INTERRES
    51   24  149 1    
    52   25   26 2    
    53   25   27 1    
    54   27   28 1    
    55   27   29 1    
    56   27  150 1    
    57   28  151 1    
    58   28  152 1    
    59   28  153 1    
    60   29   30 am   BACKBONE|DICT|INTERRES
    61   29  154 1    
    62   30   31 2    
    63   30   32 1    
    64   32   33 1    
    65   32   34 1    
    66   32  155 1    
    67   33  156 1    
    68   33  157 1    
    69   33  158 1    
    70   34   35 am   BACKBONE|DICT|INTERRES
    71   34  159 1    
    72   35   36 2    
    73   35   37 1    
    74   37   38 1    
    75   37   39 1    
    76   37  160 1    
    77   38  161 1    
    78   38  162 1    
    79   38  163 1    
    80   39   40 am   BACKBONE|DICT|INTERRES
    81   39  164 1    
    82   40   41 2    
    83   40   42 1    
    84   42   43 1    
    85   42   44 1    
    86   42  165 1    
    87   43  166 1    
    88   43  167 1    
    89   43  168 1    
    90   44   45 am   BACKBONE|DICT|INTERRES
    91   44  169 1    
    92   45   46 2    
    93   45   47 1    
    94   47   48 1    
    95   47   49 1    
    96   47  170 1    
    97   48  171 1    
    98   48  172 1    
    99   48  173 1    
   100   49   50 am   BACKBONE|DICT|INTERRES
   101   49  174 1    
   102   50   51 2    
   103   50   52 1    
   104   52   53 1    
   105   52   54 1    
   106   52  175 1    
   107   53  176 1    
   108   53  177 1    
   109   53  178 1    
   110   54   55 am   BACKBONE|DICT|INTERRES
   111   54  179 1    
   112   55   56 2    
   113   55   57 1    
   114   57   58 1    
   115   57   59 1    
   116   57  180 1    
   117   58  181 1    
   118   58  182 1    
   119   58  183 1    
   120   59   60 am   BACKBONE|DICT|INTERRES
   121   59  184 1    
   122   60   61 2    
   123   60   62 1    
   124   62   63 1    
   125   62   64 1    
   126   62  185 1    
   127   63  186 1    
   128   63  187 1    
   129   63  188 1    
   130   64   65 am   BACKBONE|DICT|INTERRES
   131   64  189 1    
   132   65   66 2    
   133   67   68 2    
   134   67   69 am   BACKBONE|DICT|INTERRES
   135   69   70 1    
   136   69  190 1    
   137   70   71 1    
   138   70   72 1    
   139   70  191 1    
   140   71  192 1    
   141   71  193 1    
   142   71  194 1    
   143   72   73 2    
   144   72   74 am   BACKBONE|DICT|INTERRES
   145   74   75 1    
   146   74  195 1    
   147   75   76 1    
   148   75   77 1    
   149   75  196 1    
   150   76  197 1    
   151   76  198 1    
   152   76  199 1    
   153   77   78 2    
   154   77   79 am   BACKBONE|DICT|INTERRES
   155   79   80 1    
   156   79  200 1    
   157   80   81 1    
   158   80   82 1    
   159   80  201 1    
   160   81  202 1    
   161   81  203 1    
   162   81  204 1    
   163   82   83 2    
   164   82   84 am   BACKBONE|DICT|INTERRES
   165   84   85 1    
   166   84  205 1    
   167   85   86 1    
   168   85   87 1    
   169   85  206 1    
   170   86  207 1    
   171   86  208 1    
   172   86  209 1    
   173   87   88 2    
   174   87   89 am   BACKBONE|DICT|INTERRES
   175   89   90 1    
   176   89  210 1    
   177   90   91 1    
   178   90   92 1    
   179   90  211 1    
   180   91  212 1    
   181   91  213 1    
   182   91  214 1    
   183   92   93 2    
   184   92   94 am   BACKBONE|DICT|INTERRES
   185   94   95 1    
   186   94  215 1    
   187   95   96 1    
   188   95   97 1    
   189   95  216 1    
   190   96  217 1    
   191   96  218 1    
   192   96  219 1    
   193   97   98 2    
   194   97   99 am   BACKBONE|DICT|INTERRES
   195   99  100 1    
   196   99  220 1    
   197  100  101 1    
   198  100  102 1    
   199  100  221 1    
   200  101  222 1    
   201  101  223 1    
   202  101  224 1    
   203  102  103 2    
   204  102  104 am   BACKBONE|DICT|INTERRES
   205  104  105 1    
   206  104  225 1    
   207  105  106 1    
   208  105  107 1    
   209  105  226 1    
   210  106  227 1    
   211  106  228 1    
   212  106  229 1    
   213  107  108 2    
   214  107  109 am   BACKBONE|DICT|INTERRES
   215  109  110 1    
   216  109  230 1    
   217  110  111 1    
   218  110  112 1    
   219  110  231 1    
   220  111  232 1    
   221  111  233 1    
   222  111  234 1    
   223  112  113 2    
   224  112  114 am   BACKBONE|DICT|INTERRES
   225  114  115 1    
   226  114  235 1    
   227  115  116 1    
   228  115  117 1    
   229  115  236 1    
   230  116  237 1    
   231  116  238 1    
   232  116  239 1    
   233  117  118 2    
   234  117  119 am   BACKBONE|DICT|INTERRES
   235  119  120 1    
   236  119  240 1    
   237  120  121 1    
   238  120  124 1    
   239  120  241 1    
   240  121  122 am   BACKBONE|DICT|INTERRES
   241  121  123 2    
   242  122  242 1    
   243  122  243 1    
   244  124  125 1    
   245  124  244 1    
   246  124  245 1    
   247  125  126 1    
   248  126  246 1    
   249  126  247 1    
@<TRIPOS>SUBSTRUCTURE
     1 UNK         1 GROUP             0       ****    0 ROOT    
