@<TRIPOS>MOLECULE
3R540
247   249    1
SMALL
USER_CHARGES


@<TRIPOS>ATOM
      1 CA         -1.2272  -13.4434  -53.0751 C.3       0 UNK        -0.1800 
      2 C          -0.0174  -13.6151  -52.1690 C.2       0 UNK         0.5000 
      3 O          -0.1764  -13.9575  -50.9989 O.2       0 UNK        -0.5000 
      4 N           1.1821  -13.3797  -52.7170 N.am      1 UNK        -0.5000 
      5 CA          2.4958  -13.4449  -52.0649 C.3       1 UNK         0.1400 
      6 C6          3.0836  -14.8917  -51.9868 C.3       23 UNK        -0.0398 
      7 S7          2.4794  -16.0100  -50.6709 S.3       23 UNK        -0.2404 
      8 C8          1.2636  -17.0410  -51.5373 C.3       23 UNK        -0.0205 
      9 C9          0.5245  -17.9020  -50.5293 C.ar      23 UNK        -0.0193 
     10 C10        -0.6214  -17.4164  -49.8928 C.ar      23 UNK        -0.1150 
     11 C11        -1.2606  -18.1629  -48.8972 C.ar      23 UNK        -0.0193 
     12 C12        -0.7364  -19.4158  -48.5520 C.ar      23 UNK        -0.1150 
     13 C13         0.4072  -19.9121  -49.1855 C.ar      23 UNK        -0.0193 
     14 C14         1.0275  -19.1565  -50.1813 C.ar      23 UNK        -0.1150 
     15 C15         0.9970  -21.2428  -48.7566 C.3       23 UNK        -0.0205 
     16 S16         1.8071  -21.0882  -47.1328 S.3       23 UNK        -0.2404 
     17 C17         2.2350  -22.8210  -46.7491 C.3       23 UNK        -0.0398 
     18 CA          1.1608  -23.5825  -45.9303 C.3       11 UNK         0.1400 
     19 N           0.7688  -22.8717  -44.7053 N.am      11 UNK        -0.5000 
     20 C           0.1177  -23.4333  -43.6763 C.2       10 UNK         0.5000 
     21 O          -0.1930  -24.6256  -43.6483 O.2       10 UNK        -0.5000 
     22 CA         -0.2968  -22.5032  -42.5177 C.3       10 UNK         0.1400 
     23 CB         -0.5110  -23.2570  -41.1886 C.3       10 UNK        -0.1800 
     24 N           0.5895  -21.3522  -42.3252 N.am      10 UNK        -0.5000 
     25 C           1.8809  -21.3601  -41.9594 C.2       9 UNK         0.5000 
     26 O           2.5454  -22.3859  -41.8084 O.2       9 UNK        -0.5000 
     27 CA          2.5455  -19.9914  -41.6976 C.3       9 UNK         0.1400 
     28 CB          3.5405  -19.6428  -42.8162 C.3       9 UNK        -0.1800 
     29 N           1.5789  -18.8994  -41.5441 N.am      9 UNK        -0.5000 
     30 C           0.7988  -18.7183  -40.4681 C.2       8 UNK         0.5000 
     31 O           0.8735  -19.4078  -39.4504 O.2       8 UNK        -0.5000 
     32 CA         -0.2635  -17.6036  -40.5450 C.3       8 UNK         0.1400 
     33 CB          0.2909  -16.2934  -39.9664 C.3       8 UNK        -0.1800 
     34 N          -0.7673  -17.3629  -41.8998 N.am      8 UNK        -0.5000 
     35 C          -1.4754  -18.2410  -42.6264 C.2       7 UNK         0.5000 
     36 O          -1.8083  -19.3539  -42.2195 O.2       7 UNK        -0.5000 
     37 CA         -1.8095  -17.8317  -44.0743 C.3       7 UNK         0.1400 
     38 CB         -2.9946  -16.8553  -44.1087 C.3       7 UNK        -0.1800 
     39 N          -0.6598  -17.2372  -44.7571 N.am      7 UNK        -0.5000 
     40 C           0.4998  -17.8717  -44.9825 C.2       6 UNK         0.5000 
     41 O           0.6931  -19.0524  -44.6940 O.2       6 UNK        -0.5000 
     42 CA          1.6573  -17.0225  -45.5391 C.3       6 UNK         0.1400 
     43 CB          1.6001  -16.9156  -47.0678 C.3       6 UNK        -0.1800 
     44 N           1.6629  -15.6816  -44.9535 N.am      6 UNK        -0.5000 
     45 C           2.0785  -15.4103  -43.7084 C.2       5 UNK         0.5000 
     46 O           2.5677  -16.2526  -42.9567 O.2       5 UNK        -0.5000 
     47 CA          1.8794  -13.9700  -43.1997 C.3       5 UNK         0.1400 
     48 CB          3.1061  -13.1018  -43.5042 C.3       5 UNK        -0.1800 
     49 N           0.6821  -13.3384  -43.7561 N.am      5 UNK        -0.5000 
     50 C          -0.5633  -13.6659  -43.3843 C.2       4 UNK         0.5000 
     51 O          -0.8127  -14.5068  -42.5216 O.2       4 UNK        -0.5000 
     52 CA         -1.7280  -12.9776  -44.1208 C.3       4 UNK         0.1400 
     53 CB         -2.1313  -11.6847  -43.3973 C.3       4 UNK        -0.1800 
     54 N          -1.4509  -12.6760  -45.5261 N.am      4 UNK        -0.5000 
     55 C          -1.1200  -13.5756  -46.4622 C.2       3 UNK         0.5000 
     56 O          -0.9855  -14.7765  -46.2298 O.2       3 UNK        -0.5000 
     57 CA         -0.8773  -13.0546  -47.8912 C.3       3 UNK         0.1400 
     58 CB         -1.4775  -11.6577  -48.1597 C.3       3 UNK        -0.1800 
     59 N           0.5379  -13.0689  -48.2698 N.am      3 UNK        -0.5000 
     60 C           1.5742  -12.5061  -47.6261 C.2       2 UNK         0.5000 
     61 O           1.4792  -11.9666  -46.5219 O.2       2 UNK        -0.5000 
     62 CA          2.9557  -12.5409  -48.3198 C.3       2 UNK         0.1400 
     63 CB          3.9921  -13.2828  -47.4612 C.3       2 UNK        -0.1800 
     64 N           2.9254  -13.1649  -49.6421 N.am      2 UNK        -0.5000 
     65 C           2.5583  -12.5726  -50.7831 C.2       1 UNK         0.5000 
     66 O           2.2684  -11.3765  -50.8588 O.2       1 UNK        -0.5000 
     67 C          -0.0420  -23.9659  -46.8188 C.2       11 UNK         0.5000 
     68 O           0.1073  -24.8194  -47.6932 O.2       11 UNK        -0.5000 
     69 N          -1.2026  -23.3289  -46.5985 N.am      12 UNK        -0.5000 
     70 CA         -2.4357  -23.4745  -47.3760 C.3       12 UNK         0.1400 
     71 CB         -3.5245  -22.5927  -46.7499 C.3       12 UNK        -0.1800 
     72 C          -2.9349  -24.9245  -47.5157 C.2       12 UNK         0.5000 
     73 O          -3.4610  -25.2834  -48.5681 O.2       12 UNK        -0.5000 
     74 N          -2.7182  -25.7399  -46.4747 N.am      13 UNK        -0.5000 
     75 CA         -3.0492  -27.1654  -46.4507 C.3       13 UNK         0.1400 
     76 CB         -2.8997  -27.6866  -45.0134 C.3       13 UNK        -0.1800 
     77 C          -2.2004  -28.0107  -47.4220 C.2       13 UNK         0.5000 
     78 O          -2.6895  -29.0243  -47.9218 O.2       13 UNK        -0.5000 
     79 N          -0.9563  -27.5824  -47.6745 N.am      14 UNK        -0.5000 
     80 CA         -0.0369  -28.2166  -48.6179 C.3       14 UNK         0.1400 
     81 CB          1.4037  -28.0620  -48.1048 C.3       14 UNK        -0.1800 
     82 C          -0.1795  -27.6138  -50.0251 C.2       14 UNK         0.5000 
     83 O          -0.1354  -28.3532  -51.0088 O.2       14 UNK        -0.5000 
     84 N          -0.3504  -26.2856  -50.0956 N.am      15 UNK        -0.5000 
     85 CA         -0.5005  -25.5255  -51.3375 C.3       15 UNK         0.1400 
     86 CB         -0.3521  -24.0272  -51.0314 C.3       15 UNK        -0.1800 
     87 C          -1.8308  -25.7958  -52.0646 C.2       15 UNK         0.5000 
     88 O          -1.8726  -25.7048  -53.2922 O.2       15 UNK        -0.5000 
     89 N          -2.8872  -26.1027  -51.2973 N.am      16 UNK        -0.5000 
     90 CA         -4.2655  -26.4171  -51.6920 C.3       16 UNK         0.1400 
     91 CB         -4.3286  -27.6590  -52.6018 C.3       16 UNK        -0.1800 
     92 C          -5.0270  -25.2240  -52.2991 C.2       16 UNK         0.5000 
     93 O          -6.0886  -24.8614  -51.7914 O.2       16 UNK        -0.5000 
     94 N          -4.4716  -24.6270  -53.3604 N.am      17 UNK        -0.5000 
     95 CA         -4.9857  -23.4172  -54.0026 C.3       17 UNK         0.1400 
     96 CB         -4.3846  -23.2961  -55.4109 C.3       17 UNK        -0.1800 
     97 C          -4.6826  -22.1535  -53.1789 C.2       17 UNK         0.5000 
     98 O          -5.4838  -21.2184  -53.1904 O.2       17 UNK        -0.5000 
     99 N          -3.5269  -22.1521  -52.4918 N.am      18 UNK        -0.5000 
    100 CA        -3.0417  -21.1201  -51.5637 C.3       18 UNK         0.1400 
    101 CB        -3.8439  -21.1987  -50.2543 C.3       18 UNK        -0.1800 
    102 C         -3.0273  -19.7031  -52.1801 C.2       18 UNK         0.5000 
    103 O         -3.4575  -18.7346  -51.5481 O.2       18 UNK        -0.5000 
    104 N         -2.6118  -19.6414  -53.4565 N.am      19 UNK        -0.5000 
    105 CA        -2.5720  -18.4684  -54.3419 C.3       19 UNK         0.1400 
    106 CB        -1.4966  -17.4784  -53.8516 C.3       19 UNK        -0.1800 
    107 C         -3.9376  -17.7736  -54.5579 C.2       19 UNK         0.5000 
    108 O         -3.9666  -16.6365  -55.0304 O.2       19 UNK        -0.5000 
    109 N         -5.0362  -18.4472  -54.1764 N.am      20 UNK        -0.5000 
    110 CA        -6.4020  -17.9305  -54.0325 C.3       20 UNK         0.1400 
    111 CB        -6.9962  -17.5519  -55.4048 C.3       20 UNK        -0.1800 
    112 C         -6.5228  -16.7899  -52.9927 C.2       20 UNK         0.5000 
    113 O         -7.5070  -16.0488  -53.0161 O.2       20 UNK        -0.5000 
    114 N         -5.5275  -16.6628  -52.1033 N.am      21 UNK        -0.5000 
    115 CA        -5.4018  -15.5732  -51.1372 C.3       21 UNK         0.1400 
    116 CB        -3.9406  -15.0998  -51.1222 C.3       21 UNK        -0.1800 
    117 C         -5.8609  -15.9782  -49.7283 C.2       21 UNK         0.5000 
    118 O         -6.2647  -15.1048  -48.9592 O.2       21 UNK        -0.5000 
    119 N         -5.8034  -17.2764  -49.4092 N.am      22 UNK        -0.5000 
    120 CA        -6.1961  -17.8271  -48.1018 C.3       22 UNK         0.1400 
    121 C         -6.8639  -19.2310  -48.1808 C.2       22 UNK         0.5000 
    122 N         -7.2642  -19.7083  -49.3538 N.am      22 UNK        -0.7600 
    123 O         -7.0583  -19.8875  -47.1614 O.2       22 UNK        -0.5000 
    124 C124       -5.0579  -17.7146  -47.0501 C.3       23 UNK        -0.0398 
    125 S125       -3.6025  -18.7518  -47.4157 S.3       23 UNK        -0.2404 
    126 C126       -2.4653  -17.5501  -48.1819 C.3       23 UNK        -0.0205 
    127 H127       -1.6574  -14.4163  -53.3102 H         1 UNK         0.0600 
    128 H128       -1.9867  -12.8406  -52.5772 H         1 UNK         0.0600 
    129 H129       -0.9658  -12.9516  -54.0122 H         1 UNK         0.0600 
    130 H130        1.2109  -13.0766  -53.6801 H         1 UNK         0.3000 
    131 H131        3.1480  -12.9153  -52.7612 H         1 UNK         0.0600 
    132 H132        4.1643  -14.8190  -51.8552 H         1 UNK         0.0800 
    133 H133        2.9549  -15.3875  -52.9498 H         1 UNK         0.0800 
    134 H134        1.7668  -17.6629  -52.2788 H         1 UNK         0.0800 
    135 H135        0.5599  -16.4112  -52.0793 H         1 UNK         0.0800 
    136 H136       -0.9919  -16.4337  -50.1487 H         1 UNK         0.1150 
    137 H137       -1.1884  -19.9988  -47.7630 H         1 UNK         0.1150 
    138 H138        1.9267  -19.5233  -50.6557 H         1 UNK         0.1150 
    139 H139        0.1967  -21.9792  -48.7223 H         1 UNK         0.0800 
    140 H140        1.7206  -21.6029  -49.4894 H         1 UNK         0.0800 
    141 H141        3.1624  -22.8002  -46.1755 H         1 UNK         0.0800 
    142 H142        2.4803  -23.3518  -47.6712 H         1 UNK         0.0800 
    143 H143        1.6121  -24.5281  -45.6221 H         1 UNK         0.0600 
    144 H144        0.9804  -21.8825  -44.6726 H         1 UNK         0.3000 
    145 H145       -1.2611  -22.0852  -42.8094 H         1 UNK         0.0600 
    146 H146       -0.8191  -22.5755  -40.3955 H         1 UNK         0.0600 
    147 H147       -1.2923  -24.0116  -41.2867 H         1 UNK         0.0600 
    148 H148        0.3954  -23.7665  -40.8607 H         1 UNK         0.0600 
    149 H149        0.1451  -20.4494  -42.4404 H         1 UNK         0.3000 
    150 H150        3.1086  -20.0781  -40.7661 H         1 UNK         0.0600 
    151 H151        4.3284  -20.3940  -42.8824 H         1 UNK         0.0600 
    152 H152        4.0227  -18.6826  -42.6323 H         1 UNK         0.0600 
    153 H153        3.0575  -19.5951  -43.7913 H         1 UNK         0.0600 
    154 H154        1.4829  -18.2662  -42.3272 H         1 UNK         0.3000 
    155 H155       -1.1091  -17.9153  -39.9286 H         1 UNK         0.0600 
    156 H156        1.1237  -15.9139  -40.5587 H         1 UNK         0.0600 
    157 H157        0.6510  -16.4368  -38.9469 H         1 UNK         0.0600 
    158 H158       -0.4771  -15.5204  -39.9331 H         1 UNK         0.0600 
    159 H159       -0.5914  -16.4407  -42.2878 H         1 UNK         0.3000 
    160 H160       -2.0893  -18.7307  -44.6273 H         1 UNK         0.0600 
    161 H161       -3.1735  -16.4837  -45.1167 H         1 UNK         0.0600 
    162 H162       -2.8306  -15.9937  -43.4629 H         1 UNK         0.0600 
    163 H163       -3.9083  -17.3458  -43.7719 H         1 UNK         0.0600 
    164 H164       -0.7581  -16.2799  -45.0830 H         1 UNK         0.3000 
    165 H165        2.5922  -17.5223  -45.2769 H         1 UNK         0.0600 
    166 H166        2.4461  -16.3521  -47.4591 H         1 UNK         0.0600 
    167 H167        1.6373  -17.9048  -47.5227 H         1 UNK         0.0600 
    168 H168        0.6873  -16.4302  -47.4120 H         1 UNK         0.0600 
    169 H169        1.1967  -14.9565  -45.4808 H         1 UNK         0.3000 
    170 H170        1.7701  -14.0187  -42.1142 H         1 UNK         0.0600 
    171 H171        4.0166  -13.5549  -43.1097 H         1 UNK         0.0600 
    172 H172        3.2401  -12.9683  -44.5751 H         1 UNK         0.0600 
    173 H173        3.0110  -12.1138  -43.0535 H         1 UNK         0.0600 
    174 H174        0.8155  -12.6692  -44.5059 H         1 UNK         0.3000 
    175 H175       -2.5793  -13.6601  -44.0966 H         1 UNK         0.0600 
    176 H176       -3.0165  -11.2379  -43.8504 H         1 UNK         0.0600 
    177 H177       -2.3676  -11.8804  -42.3504 H         1 UNK         0.0600 
    178 H178       -1.3306  -10.9444  -43.4206 H         1 UNK         0.0600 
    179 H179       -1.5028  -11.7051  -45.7972 H         1 UNK         0.3000 
    180 H180       -1.3803  -13.7603  -48.5540 H         1 UNK         0.0600 
    181 H181       -0.9763  -10.8751  -47.5890 H         1 UNK         0.0600 
    182 H182       -2.5393  -11.6290  -47.9116 H         1 UNK         0.0600 
    183 H183       -1.3895  -11.3996  -49.2154 H         1 UNK         0.0600 
    184 H184        0.7138  -13.4997  -49.1715 H         1 UNK         0.3000 
    185 H185        3.2893  -11.5073  -48.4313 H         1 UNK         0.0600 
    186 H186        3.6370  -14.2665  -47.1528 H         1 UNK         0.0600 
    187 H187        4.9309  -13.4178  -47.9988 H         1 UNK         0.0600 
    188 H188        4.2248  -12.7133  -46.5627 H         1 UNK         0.0600 
    189 H189        3.0909  -14.1639  -49.6689 H         1 UNK         0.3000 
    190 H190       -1.2185  -22.6373  -45.8643 H         1 UNK         0.3000 
    191 H191       -2.2282  -23.0989  -48.3783 H         1 UNK         0.0600 
    192 H192       -3.7756  -22.9176  -45.7395 H         1 UNK         0.0600 
    193 H193       -4.4404  -22.6184  -47.3420 H         1 UNK         0.0600 
    194 H194       -3.2042  -21.5534  -46.6958 H         1 UNK         0.0600 
    195 H195       -2.2608  -25.3646  -45.6559 H         1 UNK         0.3000 
    196 H196       -4.0946  -27.2742  -46.7473 H         1 UNK         0.0600 
    197 H197       -3.1562  -28.7451  -44.9522 H         1 UNK         0.0600 
    198 H198       -3.5604  -27.1532  -44.3296 H         1 UNK         0.0600 
    199 H199       -1.8776  -27.5739  -44.6491 H         1 UNK         0.0600 
    200 H200       -0.6509  -26.7044  -47.2729 H         1 UNK         0.3000 
    201 H201       -0.2548  -29.2848  -48.6844 H         1 UNK         0.0600 
    202 H202        1.5228  -28.5222  -47.1239 H         1 UNK         0.0600 
    203 H203        1.6962  -27.0148  -48.0207 H         1 UNK         0.0600 
    204 H204        2.1109  -28.5465  -48.7792 H         1 UNK         0.0600 
    205 H205       -0.3119  -25.7476  -49.2336 H         1 UNK         0.3000 
    206 H206        0.3084  -25.8173  -52.0105 H         1 UNK         0.0600 
    207 H207        0.6052  -23.8171  -50.5542 H         1 UNK         0.0600 
    208 H208       -0.3957  -23.4341  -51.9456 H         1 UNK         0.0600 
    209 H209       -1.1418  -23.6728  -50.3696 H         1 UNK         0.0600 
    210 H210       -2.7580  -26.0505  -50.2919 H         1 UNK         0.3000 
    211 H211       -4.7784  -26.6731  -50.7634 H         1 UNK         0.0600 
    212 H212       -3.8443  -27.4912  -53.5640 H         1 UNK         0.0600 
    213 H213       -5.3631  -27.9387  -52.8039 H         1 UNK         0.0600 
    214 H214       -3.8464  -28.5151  -52.1298 H         1 UNK         0.0600 
    215 H215       -3.5788  -24.9897  -53.6846 H         1 UNK         0.3000 
    216 H216       -6.0702  -23.5030  -54.0990 H         1 UNK         0.0600 
    217 H217       -4.7559  -22.4051  -55.9191 H         1 UNK         0.0600 
    218 H218       -4.6508  -24.1553  -56.0267 H         1 UNK         0.0600 
    219 H219       -3.2962  -23.2296  -55.3817 H         1 UNK         0.0600 
    220 H220       -2.9432  -22.9702  -52.5807 H         1 UNK         0.3000 
    221 H221       -2.0042  -21.3648  -51.3324 H         1 UNK         0.0600 
    222 H222       -4.8579  -20.8187  -50.3774 H         1 UNK         0.0600 
    223 H223       -3.9155  -22.2240  -49.8925 H         1 UNK         0.0600 
    224 H224       -3.3585  -20.6132  -49.4775 H         1 UNK         0.0600 
    225 H225       -2.3243  -20.5091  -53.8861 H         1 UNK         0.3000 
    226 H226       -2.2640  -18.8354  -55.3218 H         1 UNK         0.0600 
    227 H227       -0.5350  -17.9764  -53.7310 H         1 UNK         0.0600 
    228 H228       -1.3507  -16.6656  -54.5637 H         1 UNK         0.0600 
    229 H229       -1.7671  -17.0315  -52.8941 H         1 UNK         0.0600 
    230 H230       -4.9102  -19.3848  -53.8076 H         1 UNK         0.3000 
    231 H231       -6.9920  -18.7582  -53.6367 H         1 UNK         0.0600 
    232 H232       -6.8943  -18.3702  -56.1176 H         1 UNK         0.0600 
    233 H233       -6.5106  -16.6731  -55.8297 H         1 UNK         0.0600 
    234 H234       -8.0600  -17.3270  -55.3218 H         1 UNK         0.0600 
    235 H235       -4.7675  -17.3368  -52.1202 H         1 UNK         0.3000 
    236 H236       -6.0188  -14.7261  -51.4444 H         1 UNK         0.0600 
    237 H237       -3.7679  -14.3511  -50.3478 H         1 UNK         0.0600 
    238 H238       -3.2479  -15.9234  -50.9519 H         1 UNK         0.0600 
    239 H239       -3.6818  -14.6455  -52.0772 H         1 UNK         0.0600 
    240 H240       -5.4026  -17.9314  -50.0664 H         1 UNK         0.3000 
    241 H241       -7.0122  -17.2061  -47.7279 H         1 UNK         0.0600 
    242 H242       -7.7059  -20.6133  -49.3866 H         1 UNK         0.3800 
    243 H243       -7.1830  -19.1636  -50.1955 H         1 UNK         0.3800 
    244 H244       -4.7447  -16.6744  -46.9546 H         1 UNK         0.0800 
    245 H245       -5.4304  -17.9964  -46.0642 H         1 UNK         0.0800 
    246 H246       -3.0312  -16.9478  -48.8902 H         1 UNK         0.0800 
    247 H247       -2.1022  -16.8702  -47.4118 H         1 UNK         0.0800 
@<TRIPOS>BOND
     1    1    2 1    
     2    1  127 1    
     3    1  128 1    
     4    1  129 1    
     5    2    3 2    
     6    2    4 am   BACKBONE|DICT|INTERRES
     7    4    5 1    
     8    4  130 1    
     9    5    6 1    
    10    5   65 1    
    11    5  131 1    
    12    6    7 1    
    13    6  132 1    
    14    6  133 1    
    15    7    8 1    
    16    8    9 1    
    17    8  134 1    
    18    8  135 1    
    19    9   10 ar   
    20    9   14 ar   
    21   10   11 ar   
    22   10  136 1    
    23   11   12 ar   
    24   11  126 1    
    25   12   13 ar   
    26   12  137 1    
    27   13   14 ar   
    28   13   15 1    
    29   14  138 1    
    30   15   16 1    
    31   15  139 1    
    32   15  140 1    
    33   16   17 1    
    34   17   18 1    
    35   17  141 1    
    36   17  142 1    
    37   18   19 1    
    38   18   67 1    
    39   18  143 1    
    40   19   20 am   BACKBONE|DICT|INTERRES
    41   19  144 1    
    42   20   21 2    
    43   20   22 1    
    44   22   23 1    
    45   22   24 1    
    46   22  145 1    
    47   23  146 1    
    48   23  147 1    
    49   23  148 1    
    50   24   25 am   BACKBONE|DICT|INTERRES
    51   24  149 1    
    52   25   26 2    
    53   25   27 1    
    54   27   28 1    
    55   27   29 1    
    56   27  150 1    
    57   28  151 1    
    58   28  152 1    
    59   28  153 1    
    60   29   30 am   BACKBONE|DICT|INTERRES
    61   29  154 1    
    62   30   31 2    
    63   30   32 1    
    64   32   33 1    
    65   32   34 1    
    66   32  155 1    
    67   33  156 1    
    68   33  157 1    
    69   33  158 1    
    70   34   35 am   BACKBONE|DICT|INTERRES
    71   34  159 1    
    72   35   36 2    
    73   35   37 1    
    74   37   38 1    
    75   37   39 1    
    76   37  160 1    
    77   38  161 1    
    78   38  162 1    
    79   38  163 1    
    80   39   40 am   BACKBONE|DICT|INTERRES
    81   39  164 1    
    82   40   41 2    
    83   40   42 1    
    84   42   43 1    
    85   42   44 1    
    86   42  165 1    
    87   43  166 1    
    88   43  167 1    
    89   43  168 1    
    90   44   45 am   BACKBONE|DICT|INTERRES
    91   44  169 1    
    92   45   46 2    
    93   45   47 1    
    94   47   48 1    
    95   47   49 1    
    96   47  170 1    
    97   48  171 1    
    98   48  172 1    
    99   48  173 1    
   100   49   50 am   BACKBONE|DICT|INTERRES
   101   49  174 1    
   102   50   51 2    
   103   50   52 1    
   104   52   53 1    
   105   52   54 1    
   106   52  175 1    
   107   53  176 1    
   108   53  177 1    
   109   53  178 1    
   110   54   55 am   BACKBONE|DICT|INTERRES
   111   54  179 1    
   112   55   56 2    
   113   55   57 1    
   114   57   58 1    
   115   57   59 1    
   116   57  180 1    
   117   58  181 1    
   118   58  182 1    
   119   58  183 1    
   120   59   60 am   BACKBONE|DICT|INTERRES
   121   59  184 1    
   122   60   61 2    
   123   60   62 1    
   124   62   63 1    
   125   62   64 1    
   126   62  185 1    
   127   63  186 1    
   128   63  187 1    
   129   63  188 1    
   130   64   65 am   BACKBONE|DICT|INTERRES
   131   64  189 1    
   132   65   66 2    
   133   67   68 2    
   134   67   69 am   BACKBONE|DICT|INTERRES
   135   69   70 1    
   136   69  190 1    
   137   70   71 1    
   138   70   72 1    
   139   70  191 1    
   140   71  192 1    
   141   71  193 1    
   142   71  194 1    
   143   72   73 2    
   144   72   74 am   BACKBONE|DICT|INTERRES
   145   74   75 1    
   146   74  195 1    
   147   75   76 1    
   148   75   77 1    
   149   75  196 1    
   150   76  197 1    
   151   76  198 1    
   152   76  199 1    
   153   77   78 2    
   154   77   79 am   BACKBONE|DICT|INTERRES
   155   79   80 1    
   156   79  200 1    
   157   80   81 1    
   158   80   82 1    
   159   80  201 1    
   160   81  202 1    
   161   81  203 1    
   162   81  204 1    
   163   82   83 2    
   164   82   84 am   BACKBONE|DICT|INTERRES
   165   84   85 1    
   166   84  205 1    
   167   85   86 1    
   168   85   87 1    
   169   85  206 1    
   170   86  207 1    
   171   86  208 1    
   172   86  209 1    
   173   87   88 2    
   174   87   89 am   BACKBONE|DICT|INTERRES
   175   89   90 1    
   176   89  210 1    
   177   90   91 1    
   178   90   92 1    
   179   90  211 1    
   180   91  212 1    
   181   91  213 1    
   182   91  214 1    
   183   92   93 2    
   184   92   94 am   BACKBONE|DICT|INTERRES
   185   94   95 1    
   186   94  215 1    
   187   95   96 1    
   188   95   97 1    
   189   95  216 1    
   190   96  217 1    
   191   96  218 1    
   192   96  219 1    
   193   97   98 2    
   194   97   99 am   BACKBONE|DICT|INTERRES
   195   99  100 1    
   196   99  220 1    
   197  100  101 1    
   198  100  102 1    
   199  100  221 1    
   200  101  222 1    
   201  101  223 1    
   202  101  224 1    
   203  102  103 2    
   204  102  104 am   BACKBONE|DICT|INTERRES
   205  104  105 1    
   206  104  225 1    
   207  105  106 1    
   208  105  107 1    
   209  105  226 1    
   210  106  227 1    
   211  106  228 1    
   212  106  229 1    
   213  107  108 2    
   214  107  109 am   BACKBONE|DICT|INTERRES
   215  109  110 1    
   216  109  230 1    
   217  110  111 1    
   218  110  112 1    
   219  110  231 1    
   220  111  232 1    
   221  111  233 1    
   222  111  234 1    
   223  112  113 2    
   224  112  114 am   BACKBONE|DICT|INTERRES
   225  114  115 1    
   226  114  235 1    
   227  115  116 1    
   228  115  117 1    
   229  115  236 1    
   230  116  237 1    
   231  116  238 1    
   232  116  239 1    
   233  117  118 2    
   234  117  119 am   BACKBONE|DICT|INTERRES
   235  119  120 1    
   236  119  240 1    
   237  120  121 1    
   238  120  124 1    
   239  120  241 1    
   240  121  122 am   BACKBONE|DICT|INTERRES
   241  121  123 2    
   242  122  242 1    
   243  122  243 1    
   244  124  125 1    
   245  124  244 1    
   246  124  245 1    
   247  125  126 1    
   248  126  246 1    
   249  126  247 1    
@<TRIPOS>SUBSTRUCTURE
     1 UNK         1 GROUP             0       ****    0 ROOT    
