@<TRIPOS>MOLECULE
3R540
247   249    1
SMALL
USER_CHARGES


@<TRIPOS>ATOM
      1 CA         -2.5540  -15.2930  -46.1165 C.3       0 UNK        -0.1800 
      2 C          -1.1793  -14.6684  -46.3020 C.2       0 UNK         0.5000 
      3 O          -0.2933  -14.8912  -45.4798 O.2       0 UNK        -0.5000 
      4 N          -1.0023  -13.8878  -47.3778 N.am      1 UNK        -0.5000 
      5 CA          0.2052  -13.1411  -47.7703 C.3       1 UNK         0.1400 
      6 C6          1.4823  -14.0081  -47.9467 C.3       23 UNK        -0.0398 
      7 S7          1.3964  -15.1695  -49.3566 S.3       23 UNK        -0.2404 
      8 C8          0.5701  -16.6033  -48.6054 C.3       23 UNK        -0.0205 
      9 C9          0.7917  -17.8816  -49.3988 C.ar      23 UNK        -0.0193 
     10 C10        -0.1045  -18.2508  -50.4056 C.ar      23 UNK        -0.1150 
     11 C11         0.0764  -19.4414  -51.1154 C.ar      23 UNK        -0.0193 
     12 C12         1.1616  -20.2682  -50.8088 C.ar      23 UNK        -0.1150 
     13 C13         2.0675  -19.9085  -49.8063 C.ar      23 UNK        -0.0193 
     14 C14         1.8765  -18.7129  -49.1059 C.ar      23 UNK        -0.1150 
     15 C15         3.2733  -20.7910  -49.5090 C.3       23 UNK        -0.0205 
     16 S16         2.8384  -22.3175  -48.6124 S.3       23 UNK        -0.2404 
     17 C17         2.3541  -21.6690  -46.9756 C.3       23 UNK        -0.0398 
     18 CA          1.0637  -22.3070  -46.4070 C.3       11 UNK         0.1400 
     19 N           0.8398  -21.9196  -45.0108 N.am      11 UNK        -0.5000 
     20 C          -0.1017  -22.4390  -44.2096 C.2       10 UNK         0.5000 
     21 O          -0.8456  -23.3613  -44.5404 O.2       10 UNK        -0.5000 
     22 CA         -0.2761  -21.7904  -42.8236 C.3       10 UNK         0.1400 
     23 CB          0.7564  -22.3393  -41.8282 C.3       10 UNK        -0.1800 
     24 N          -0.1910  -20.3299  -42.8725 N.am      10 UNK        -0.5000 
     25 C          -1.0636  -19.5406  -43.5166 C.2       9 UNK         0.5000 
     26 O          -2.0797  -19.9608  -44.0703 O.2       9 UNK        -0.5000 
     27 CA         -0.7106  -18.0431  -43.6128 C.3       9 UNK         0.1400 
     28 CB         -1.1141  -17.2890  -42.3381 C.3       9 UNK        -0.1800 
     29 N           0.7090  -17.8217  -43.8871 N.am      9 UNK        -0.5000 
     30 C           1.3335  -18.2271  -45.0005 C.2       8 UNK         0.5000 
     31 O           0.7631  -18.7870  -45.9338 O.2       8 UNK        -0.5000 
     32 CA          2.8595  -18.0487  -45.0516 C.3       8 UNK         0.1400 
     33 CB          3.2469  -16.6345  -45.5059 C.3       8 UNK        -0.1800 
     34 N           3.4692  -18.3453  -43.7562 N.am      8 UNK        -0.5000 
     35 C           3.6057  -19.5830  -43.2604 C.2       7 UNK         0.5000 
     36 O           3.2686  -20.5987  -43.8687 O.2       7 UNK        -0.5000 
     37 CA          4.1831  -19.7060  -41.8375 C.3       7 UNK         0.1400 
     38 CB          5.7181  -19.7290  -41.8789 C.3       7 UNK        -0.1800 
     39 N           3.7391  -18.6301  -40.9498 N.am      7 UNK        -0.5000 
     40 C           2.4778  -18.4740  -40.5238 C.2       6 UNK         0.5000 
     41 O           1.5652  -19.2519  -40.7995 O.2       6 UNK        -0.5000 
     42 CA          2.1740  -17.2095  -39.6953 C.3       6 UNK         0.1400 
     43 CB          2.4300  -17.4671  -38.2033 C.3       6 UNK        -0.1800 
     44 N           2.9248  -16.0218  -40.1174 N.am      6 UNK        -0.5000 
     45 C           2.9088  -15.4998  -41.3510 C.2       5 UNK         0.5000 
     46 O           2.2793  -15.9924  -42.2870 O.2       5 UNK        -0.5000 
     47 CA          3.7282  -14.2165  -41.5571 C.3       5 UNK         0.1400 
     48 CB          3.9912  -13.9125  -43.0425 C.3       5 UNK        -0.1800 
     49 N           3.0230  -13.0879  -40.9597 N.am      5 UNK        -0.5000 
     50 C           3.1863  -12.6603  -39.7006 C.2       4 UNK         0.5000 
     51 O           3.9537  -13.1956  -38.8991 O.2       4 UNK        -0.5000 
     52 CA          2.3726  -11.4285  -39.2561 C.3       4 UNK         0.1400 
     53 CB          3.2593  -10.1735  -39.2631 C.3       4 UNK        -0.1800 
     54 N           1.2010  -11.1789  -40.0966 N.am      4 UNK        -0.5000 
     55 C           0.0471  -11.8543  -40.0145 C.2       3 UNK         0.5000 
     56 O          -0.1739  -12.7332  -39.1808 O.2       3 UNK        -0.5000 
     57 CA         -1.0374  -11.4961  -41.0504 C.3       3 UNK         0.1400 
     58 CB         -1.9904  -10.4320  -40.4849 C.3       3 UNK        -0.1800 
     59 N          -0.5026  -11.0283  -42.3355 N.am      3 UNK        -0.5000 
     60 C           0.2243  -11.7825  -43.1695 C.2       2 UNK         0.5000 
     61 O           0.5803  -12.9325  -42.9112 O.2       2 UNK        -0.5000 
     62 CA          0.6554  -11.1423  -44.4935 C.3       2 UNK         0.1400 
     63 CB          2.0916  -10.5964  -44.3998 C.3       2 UNK        -0.1800 
     64 N           0.5561  -12.1551  -45.5380 N.am      2 UNK        -0.5000 
     65 C           0.4601  -11.9251  -46.8511 C.2       1 UNK         0.5000 
     66 O           0.5284  -10.7998  -47.3481 O.2       1 UNK        -0.5000 
     67 C          -0.1792  -22.0265  -47.2799 C.2       11 UNK         0.5000 
     68 O          -0.6121  -22.9157  -48.0117 O.2       11 UNK        -0.5000 
     69 N          -0.7716  -20.8326  -47.1365 N.am      12 UNK        -0.5000 
     70 CA         -2.0084  -20.4312  -47.8077 C.3       12 UNK         0.1400 
     71 CB         -2.3246  -18.9665  -47.4768 C.3       12 UNK        -0.1800 
     72 C          -3.2029  -21.3290  -47.4414 C.2       12 UNK         0.5000 
     73 O          -3.9543  -21.7283  -48.3305 O.2       12 UNK        -0.5000 
     74 N          -3.3372  -21.6562  -46.1484 N.am      13 UNK        -0.5000 
     75 CA         -4.3607  -22.5607  -45.6240 C.3       13 UNK         0.1400 
     76 CB         -4.3502  -22.5135  -44.0888 C.3       13 UNK        -0.1800 
     77 C          -4.2031  -24.0072  -46.1298 C.2       13 UNK         0.5000 
     78 O          -5.2078  -24.6540  -46.4261 O.2       13 UNK        -0.5000 
     79 N          -2.9539  -24.4814  -46.2348 N.am      14 UNK        -0.5000 
     80 CA         -2.6081  -25.7938  -46.7811 C.3       14 UNK         0.1400 
     81 CB         -1.1500  -26.1288  -46.4309 C.3       14 UNK        -0.1800 
     82 C          -2.8417  -25.8819  -48.3008 C.2       14 UNK         0.5000 
     83 O          -3.3480  -26.8989  -48.7764 O.2       14 UNK        -0.5000 
     84 N          -2.4764  -24.8177  -49.0294 N.am      15 UNK        -0.5000 
     85 CA         -2.6801  -24.6734  -50.4716 C.3       15 UNK         0.1400 
     86 CB         -1.8955  -23.4473  -50.9660 C.3       15 UNK        -0.1800 
     87 C          -4.1726  -24.5748  -50.8431 C.2       15 UNK         0.5000 
     88 O          -4.6142  -25.2470  -51.7772 O.2       15 UNK        -0.5000 
     89 N          -4.9180  -23.7727  -50.0683 N.am      16 UNK        -0.5000 
     90 CA         -6.3675  -23.5710  -50.1162 C.3       16 UNK         0.1400 
     91 CB         -7.0898  -24.8671  -49.6841 C.3       16 UNK        -0.1800 
     92 C          -6.8735  -23.0227  -51.4696 C.2       16 UNK         0.5000 
     93 O          -6.0954  -22.4880  -52.2628 O.2       16 UNK        -0.5000 
     94 N          -8.1847  -23.1589  -51.7104 N.am      17 UNK        -0.5000 
     95 CA         -8.8571  -22.7640  -52.9517 C.3       17 UNK         0.1400 
     96 CB        -10.3751  -22.7601  -52.7136 C.3       17 UNK        -0.1800 
     97 C          -8.5014  -23.6615  -54.1546 C.2       17 UNK         0.5000 
     98 O          -8.7092  -23.2488  -55.2959 O.2       17 UNK        -0.5000 
     99 N          -7.9706  -24.8639  -53.8832 N.am      18 UNK        -0.5000 
    100 CA        -7.4798  -25.8160  -54.8806 C.3       18 UNK         0.1400 
    101 CB        -7.1266  -27.1387  -54.1842 C.3       18 UNK        -0.1800 
    102 C         -6.2715  -25.2775  -55.6689 C.2       18 UNK         0.5000 
    103 O         -6.1710  -25.5190  -56.8727 O.2       18 UNK        -0.5000 
    104 N         -5.4051  -24.5106  -54.9942 N.am      19 UNK        -0.5000 
    105 CA        -4.2799  -23.7881  -55.5832 C.3       19 UNK         0.1400 
    106 CB        -3.2011  -23.5976  -54.5059 C.3       19 UNK        -0.1800 
    107 C         -4.7503  -22.4498  -56.1870 C.2       19 UNK         0.5000 
    108 O         -4.2764  -21.3861  -55.7874 O.2       19 UNK        -0.5000 
    109 N         -5.6850  -22.5232  -57.1436 N.am      20 UNK        -0.5000 
    110 CA        -6.3582  -21.3822  -57.7745 C.3       20 UNK         0.1400 
    111 CB        -7.4550  -21.9132  -58.7098 C.3       20 UNK        -0.1800 
    112 C         -5.4218  -20.4166  -58.5309 C.2       20 UNK         0.5000 
    113 O         -5.7755  -19.2518  -58.7175 O.2       20 UNK        -0.5000 
    114 N         -4.2458  -20.9094  -58.9414 N.am      21 UNK        -0.5000 
    115 CA        -3.1812  -20.1258  -59.5679 C.3       21 UNK         0.1400 
    116 CB        -2.2354  -21.0866  -60.3058 C.3       21 UNK        -0.1800 
    117 C         -2.3901  -19.2527  -58.5702 C.2       21 UNK         0.5000 
    118 O         -1.7031  -18.3273  -59.0056 O.2       21 UNK        -0.5000 
    119 N         -2.4708  -19.5613  -57.2681 N.am      22 UNK        -0.5000 
    120 CA        -1.8137  -18.8117  -56.1894 C.3       22 UNK         0.1400 
    121 C         -2.5031  -17.4430  -55.9252 C.2       22 UNK         0.5000 
    122 N         -1.7362  -16.3865  -55.6922 N.am      22 UNK        -0.7600 
    123 O         -3.7272  -17.3360  -55.8990 O.2       22 UNK        -0.5000 
    124 C124       -1.7197  -19.6693  -54.9006 C.3       23 UNK        -0.0398 
    125 S125       -0.3472  -19.1512  -53.8182 S.3       23 UNK        -0.2404 
    126 C126       -0.8941  -19.8246  -52.2207 C.3       23 UNK        -0.0205 
    127 H127       -2.4815  -16.3777  -46.1721 H         1 UNK         0.0600 
    128 H128       -3.2588  -14.9595  -46.8783 H         1 UNK         0.0600 
    129 H129       -2.9569  -15.0277  -45.1392 H         1 UNK         0.0600 
    130 H130       -1.7910  -13.7427  -47.9925 H         1 UNK         0.3000 
    131 H131       -0.0296  -12.7230  -48.7507 H         1 UNK         0.0600 
    132 H132        1.7262  -14.5480  -47.0327 H         1 UNK         0.0800 
    133 H133        2.3423  -13.3639  -48.1384 H         1 UNK         0.0800 
    134 H134       -0.4975  -16.3946  -48.5450 H         1 UNK         0.0800 
    135 H135        0.9134  -16.7379  -47.5813 H         1 UNK         0.0800 
    136 H136       -0.9424  -17.6091  -50.6391 H         1 UNK         0.1150 
    137 H137        1.3086  -21.1877  -51.3580 H         1 UNK         0.1150 
    138 H138        2.5708  -18.4263  -48.3292 H         1 UNK         0.1150 
    139 H139        3.7513  -21.0649  -50.4506 H         1 UNK         0.0800 
    140 H140        4.0242  -20.2414  -48.9392 H         1 UNK         0.0800 
    141 H141        2.2528  -20.5869  -47.0232 H         1 UNK         0.0800 
    142 H142        3.1862  -21.8595  -46.2968 H         1 UNK         0.0800 
    143 H143        1.2110  -23.3891  -46.4049 H         1 UNK         0.0600 
    144 H144        1.4452  -21.1954  -44.6411 H         1 UNK         0.3000 
    145 H145       -1.2705  -22.0536  -42.4575 H         1 UNK         0.0600 
    146 H146        0.5887  -21.9407  -40.8275 H         1 UNK         0.0600 
    147 H147        1.7752  -22.0867  -42.1218 H         1 UNK         0.0600 
    148 H148        0.6935  -23.4260  -41.7605 H         1 UNK         0.0600 
    149 H149        0.5846  -19.9005  -42.3773 H         1 UNK         0.3000 
    150 H150       -1.2746  -17.6225  -44.4470 H         1 UNK         0.0600 
    151 H151       -2.1842  -17.3852  -42.1516 H         1 UNK         0.0600 
    152 H152       -0.8909  -16.2248  -42.4250 H         1 UNK         0.0600 
    153 H153       -0.5917  -17.6707  -41.4613 H         1 UNK         0.0600 
    154 H154        1.2413  -17.3009  -43.1951 H         1 UNK         0.3000 
    155 H155        3.2616  -18.7524  -45.7831 H         1 UNK         0.0600 
    156 H156        3.0089  -16.4931  -46.5593 H         1 UNK         0.0600 
    157 H157        4.3168  -16.4588  -45.3950 H         1 UNK         0.0600 
    158 H158        2.7158  -15.8663  -44.9433 H         1 UNK         0.0600 
    159 H159        3.6773  -17.5539  -43.1640 H         1 UNK         0.3000 
    160 H160        3.8392  -20.6550  -41.4207 H         1 UNK         0.0600 
    161 H161        6.1259  -18.7947  -42.2667 H         1 UNK         0.0600 
    162 H162        6.0786  -20.5354  -42.5190 H         1 UNK         0.0600 
    163 H163        6.1369  -19.8923  -40.8858 H         1 UNK         0.0600 
    164 H164        4.4286  -17.9456  -40.6763 H         1 UNK         0.3000 
    165 H165        1.1137  -16.9838  -39.8231 H         1 UNK         0.0600 
    166 H166        2.1224  -16.6146  -37.5974 H         1 UNK         0.0600 
    167 H167        1.8657  -18.3329  -37.8539 H         1 UNK         0.0600 
    168 H168        3.4847  -17.6593  -38.0028 H         1 UNK         0.0600 
    169 H169        3.4446  -15.5343  -39.3997 H         1 UNK         0.3000 
    170 H170        4.6982  -14.3528  -41.0742 H         1 UNK         0.0600 
    171 H171        3.0646  -13.7874  -43.6037 H         1 UNK         0.0600 
    172 H172        4.5784  -13.0017  -43.1597 H         1 UNK         0.0600 
    173 H173        4.5528  -14.7216  -43.5100 H         1 UNK         0.0600 
    174 H174        2.2918  -12.6776  -41.5265 H         1 UNK         0.3000 
    175 H175        2.0406  -11.6050  -38.2308 H         1 UNK         0.0600 
    176 H176        3.6210   -9.9413  -40.2656 H         1 UNK         0.0600 
    177 H177        2.7161   -9.3044  -38.8915 H         1 UNK         0.0600 
    178 H178        4.1319  -10.3075  -38.6222 H         1 UNK         0.0600 
    179 H179        1.2912  -10.4666  -40.8060 H         1 UNK         0.3000 
    180 H180       -1.6152  -12.4031  -41.2413 H         1 UNK         0.0600 
    181 H181       -2.8157  -10.2366  -41.1699 H         1 UNK         0.0600 
    182 H182       -1.4759   -9.4884  -40.2992 H         1 UNK         0.0600 
    183 H183       -2.4258  -10.7599  -39.5399 H         1 UNK         0.0600 
    184 H184       -0.7459  -10.0863  -42.6071 H         1 UNK         0.3000 
    185 H185       -0.0294  -10.3243  -44.7269 H         1 UNK         0.0600 
    186 H186        2.1822   -9.8679  -43.5933 H         1 UNK         0.0600 
    187 H187        2.8120  -11.3915  -44.2077 H         1 UNK         0.0600 
    188 H188        2.3871  -10.0956  -45.3217 H         1 UNK         0.0600 
    189 H189        0.4410  -13.1101  -45.2002 H         1 UNK         0.3000 
    190 H190       -0.3218  -20.1315  -46.5514 H         1 UNK         0.3000 
    191 H191       -1.8377  -20.5125  -48.8831 H         1 UNK         0.0600 
    192 H192       -1.4719  -18.3245  -47.6818 H         1 UNK         0.0600 
    193 H193       -2.5879  -18.8366  -46.4275 H         1 UNK         0.0600 
    194 H194       -3.1617  -18.6034  -48.0738 H         1 UNK         0.0600 
    195 H195       -2.7039  -21.2404  -45.4719 H         1 UNK         0.3000 
    196 H196       -5.3314  -22.1959  -45.9663 H         1 UNK         0.0600 
    197 H197       -4.5310  -21.5021  -43.7243 H         1 UNK         0.0600 
    198 H198       -3.3965  -22.8494  -43.6816 H         1 UNK         0.0600 
    199 H199       -5.1289  -23.1540  -43.6731 H         1 UNK         0.0600 
    200 H200       -2.1835  -23.9067  -45.9071 H         1 UNK         0.3000 
    201 H201       -3.2480  -26.5382  -46.3027 H         1 UNK         0.0600 
    202 H202       -0.9975  -26.1406  -45.3516 H         1 UNK         0.0600 
    203 H203       -0.4554  -25.4049  -46.8576 H         1 UNK         0.0600 
    204 H204       -0.8734  -27.1133  -46.8101 H         1 UNK         0.0600 
    205 H205       -1.9974  -24.0507  -48.5630 H         1 UNK         0.3000 
    206 H206       -2.2698  -25.5597  -50.9596 H         1 UNK         0.0600 
    207 H207       -2.2750  -22.5218  -50.5316 H         1 UNK         0.0600 
    208 H208       -1.9521  -23.3524  -52.0481 H         1 UNK         0.0600 
    209 H209       -0.8388  -23.5254  -50.7092 H         1 UNK         0.0600 
    210 H210       -4.4382  -23.2035  -49.3751 H         1 UNK         0.3000 
    211 H211       -6.5835  -22.8023  -49.3731 H         1 UNK         0.0600 
    212 H212       -7.0167  -25.6452  -50.4450 H         1 UNK         0.0600 
    213 H213       -8.1475  -24.6928  -49.4857 H         1 UNK         0.0600 
    214 H214       -6.6599  -25.2654  -48.7647 H         1 UNK         0.0600 
    215 H215       -8.7641  -23.5942  -51.0072 H         1 UNK         0.3000 
    216 H216       -8.5467  -21.7471  -53.2009 H         1 UNK         0.0600 
    217 H217      -10.9104  -22.4392  -53.6083 H         1 UNK         0.0600 
    218 H218      -10.6474  -22.0741  -51.9113 H         1 UNK         0.0600 
    219 H219      -10.7438  -23.7519  -52.4489 H         1 UNK         0.0600 
    220 H220       -7.8394  -25.1169  -52.9154 H         1 UNK         0.3000 
    221 H221       -8.2856  -26.0051  -55.5928 H         1 UNK         0.0600 
    222 H222       -6.3418  -27.0038  -53.4383 H         1 UNK         0.0600 
    223 H223       -7.9958  -27.5660  -53.6839 H         1 UNK         0.0600 
    224 H224       -6.7716  -27.8765  -54.9049 H         1 UNK         0.0600 
    225 H225       -5.5766  -24.3369  -54.0119 H         1 UNK         0.3000 
    226 H226       -3.8464  -24.3827  -56.3899 H         1 UNK         0.0600 
    227 H227       -2.3166  -23.1087  -54.9153 H         1 UNK         0.0600 
    228 H228       -3.5707  -22.9828  -53.6840 H         1 UNK         0.0600 
    229 H229       -2.8826  -24.5551  -54.0935 H         1 UNK         0.0600 
    230 H230       -6.0221  -23.4445  -57.3973 H         1 UNK         0.3000 
    231 H231       -6.8374  -20.8077  -56.9791 H         1 UNK         0.0600 
    232 H232       -8.1792  -22.5180  -58.1632 H         1 UNK         0.0600 
    233 H233       -7.0383  -22.5273  -59.5091 H         1 UNK         0.0600 
    234 H234       -8.0039  -21.0938  -59.1759 H         1 UNK         0.0600 
    235 H235       -4.0461  -21.8808  -58.7546 H         1 UNK         0.3000 
    236 H236       -3.6293  -19.4564  -60.3053 H         1 UNK         0.0600 
    237 H237       -1.7586  -21.7878  -59.6198 H         1 UNK         0.0600 
    238 H238       -2.7693  -21.6641  -61.0607 H         1 UNK         0.0600 
    239 H239       -1.4432  -20.5391  -60.8184 H         1 UNK         0.0600 
    240 H240       -3.1167  -20.2840  -56.9682 H         1 UNK         0.3000 
    241 H241       -0.7953  -18.6148  -56.5318 H         1 UNK         0.0600 
    242 H242       -2.1700  -15.4953  -55.5082 H         1 UNK         0.3800 
    243 H243       -0.7305  -16.4590  -55.6844 H         1 UNK         0.3800 
    244 H244       -1.5367  -20.7136  -55.1571 H         1 UNK         0.0800 
    245 H245       -2.6626  -19.6569  -54.3505 H         1 UNK         0.0800 
    246 H246       -0.9743  -20.9101  -52.2930 H         1 UNK         0.0800 
    247 H247       -1.8928  -19.4531  -51.9857 H         1 UNK         0.0800 
@<TRIPOS>BOND
     1    1    2 1    
     2    1  127 1    
     3    1  128 1    
     4    1  129 1    
     5    2    3 2    
     6    2    4 am   BACKBONE|DICT|INTERRES
     7    4    5 1    
     8    4  130 1    
     9    5    6 1    
    10    5   65 1    
    11    5  131 1    
    12    6    7 1    
    13    6  132 1    
    14    6  133 1    
    15    7    8 1    
    16    8    9 1    
    17    8  134 1    
    18    8  135 1    
    19    9   10 ar   
    20    9   14 ar   
    21   10   11 ar   
    22   10  136 1    
    23   11   12 ar   
    24   11  126 1    
    25   12   13 ar   
    26   12  137 1    
    27   13   14 ar   
    28   13   15 1    
    29   14  138 1    
    30   15   16 1    
    31   15  139 1    
    32   15  140 1    
    33   16   17 1    
    34   17   18 1    
    35   17  141 1    
    36   17  142 1    
    37   18   19 1    
    38   18   67 1    
    39   18  143 1    
    40   19   20 am   BACKBONE|DICT|INTERRES
    41   19  144 1    
    42   20   21 2    
    43   20   22 1    
    44   22   23 1    
    45   22   24 1    
    46   22  145 1    
    47   23  146 1    
    48   23  147 1    
    49   23  148 1    
    50   24   25 am   BACKBONE|DICT|INTERRES
    51   24  149 1    
    52   25   26 2    
    53   25   27 1    
    54   27   28 1    
    55   27   29 1    
    56   27  150 1    
    57   28  151 1    
    58   28  152 1    
    59   28  153 1    
    60   29   30 am   BACKBONE|DICT|INTERRES
    61   29  154 1    
    62   30   31 2    
    63   30   32 1    
    64   32   33 1    
    65   32   34 1    
    66   32  155 1    
    67   33  156 1    
    68   33  157 1    
    69   33  158 1    
    70   34   35 am   BACKBONE|DICT|INTERRES
    71   34  159 1    
    72   35   36 2    
    73   35   37 1    
    74   37   38 1    
    75   37   39 1    
    76   37  160 1    
    77   38  161 1    
    78   38  162 1    
    79   38  163 1    
    80   39   40 am   BACKBONE|DICT|INTERRES
    81   39  164 1    
    82   40   41 2    
    83   40   42 1    
    84   42   43 1    
    85   42   44 1    
    86   42  165 1    
    87   43  166 1    
    88   43  167 1    
    89   43  168 1    
    90   44   45 am   BACKBONE|DICT|INTERRES
    91   44  169 1    
    92   45   46 2    
    93   45   47 1    
    94   47   48 1    
    95   47   49 1    
    96   47  170 1    
    97   48  171 1    
    98   48  172 1    
    99   48  173 1    
   100   49   50 am   BACKBONE|DICT|INTERRES
   101   49  174 1    
   102   50   51 2    
   103   50   52 1    
   104   52   53 1    
   105   52   54 1    
   106   52  175 1    
   107   53  176 1    
   108   53  177 1    
   109   53  178 1    
   110   54   55 am   BACKBONE|DICT|INTERRES
   111   54  179 1    
   112   55   56 2    
   113   55   57 1    
   114   57   58 1    
   115   57   59 1    
   116   57  180 1    
   117   58  181 1    
   118   58  182 1    
   119   58  183 1    
   120   59   60 am   BACKBONE|DICT|INTERRES
   121   59  184 1    
   122   60   61 2    
   123   60   62 1    
   124   62   63 1    
   125   62   64 1    
   126   62  185 1    
   127   63  186 1    
   128   63  187 1    
   129   63  188 1    
   130   64   65 am   BACKBONE|DICT|INTERRES
   131   64  189 1    
   132   65   66 2    
   133   67   68 2    
   134   67   69 am   BACKBONE|DICT|INTERRES
   135   69   70 1    
   136   69  190 1    
   137   70   71 1    
   138   70   72 1    
   139   70  191 1    
   140   71  192 1    
   141   71  193 1    
   142   71  194 1    
   143   72   73 2    
   144   72   74 am   BACKBONE|DICT|INTERRES
   145   74   75 1    
   146   74  195 1    
   147   75   76 1    
   148   75   77 1    
   149   75  196 1    
   150   76  197 1    
   151   76  198 1    
   152   76  199 1    
   153   77   78 2    
   154   77   79 am   BACKBONE|DICT|INTERRES
   155   79   80 1    
   156   79  200 1    
   157   80   81 1    
   158   80   82 1    
   159   80  201 1    
   160   81  202 1    
   161   81  203 1    
   162   81  204 1    
   163   82   83 2    
   164   82   84 am   BACKBONE|DICT|INTERRES
   165   84   85 1    
   166   84  205 1    
   167   85   86 1    
   168   85   87 1    
   169   85  206 1    
   170   86  207 1    
   171   86  208 1    
   172   86  209 1    
   173   87   88 2    
   174   87   89 am   BACKBONE|DICT|INTERRES
   175   89   90 1    
   176   89  210 1    
   177   90   91 1    
   178   90   92 1    
   179   90  211 1    
   180   91  212 1    
   181   91  213 1    
   182   91  214 1    
   183   92   93 2    
   184   92   94 am   BACKBONE|DICT|INTERRES
   185   94   95 1    
   186   94  215 1    
   187   95   96 1    
   188   95   97 1    
   189   95  216 1    
   190   96  217 1    
   191   96  218 1    
   192   96  219 1    
   193   97   98 2    
   194   97   99 am   BACKBONE|DICT|INTERRES
   195   99  100 1    
   196   99  220 1    
   197  100  101 1    
   198  100  102 1    
   199  100  221 1    
   200  101  222 1    
   201  101  223 1    
   202  101  224 1    
   203  102  103 2    
   204  102  104 am   BACKBONE|DICT|INTERRES
   205  104  105 1    
   206  104  225 1    
   207  105  106 1    
   208  105  107 1    
   209  105  226 1    
   210  106  227 1    
   211  106  228 1    
   212  106  229 1    
   213  107  108 2    
   214  107  109 am   BACKBONE|DICT|INTERRES
   215  109  110 1    
   216  109  230 1    
   217  110  111 1    
   218  110  112 1    
   219  110  231 1    
   220  111  232 1    
   221  111  233 1    
   222  111  234 1    
   223  112  113 2    
   224  112  114 am   BACKBONE|DICT|INTERRES
   225  114  115 1    
   226  114  235 1    
   227  115  116 1    
   228  115  117 1    
   229  115  236 1    
   230  116  237 1    
   231  116  238 1    
   232  116  239 1    
   233  117  118 2    
   234  117  119 am   BACKBONE|DICT|INTERRES
   235  119  120 1    
   236  119  240 1    
   237  120  121 1    
   238  120  124 1    
   239  120  241 1    
   240  121  122 am   BACKBONE|DICT|INTERRES
   241  121  123 2    
   242  122  242 1    
   243  122  243 1    
   244  124  125 1    
   245  124  244 1    
   246  124  245 1    
   247  125  126 1    
   248  126  246 1    
   249  126  247 1    
@<TRIPOS>SUBSTRUCTURE
     1 UNK         1 GROUP             0       ****    0 ROOT    
