@<TRIPOS>MOLECULE
3R540
247   249    1
SMALL
USER_CHARGES


@<TRIPOS>ATOM
      1 CA          3.3736  -15.8453  -47.9073 C.3       0 UNK        -0.1800 
      2 C           2.0012  -15.4160  -48.4082 C.2       0 UNK         0.5000 
      3 O           1.9007  -14.4033  -49.0996 O.2       0 UNK        -0.5000 
      4 N           0.9670  -16.1984  -48.0695 N.am      1 UNK        -0.5000 
      5 CA         -0.4624  -15.9583  -48.3004 C.3       1 UNK         0.1400 
      6 C6         -0.8734  -15.7184  -49.7810 C.3       23 UNK        -0.0398 
      7 S7         -0.8405  -17.2649  -50.7562 S.3       23 UNK        -0.2404 
      8 C8          0.5294  -17.0052  -51.9296 C.3       23 UNK        -0.0205 
      9 C9          1.5054  -18.1699  -51.8777 C.ar      23 UNK        -0.0193 
     10 C10         1.3598  -19.2734  -52.7244 C.ar      23 UNK        -0.1150 
     11 C11         2.2400  -20.3579  -52.6297 C.ar      23 UNK        -0.0193 
     12 C12         3.2575  -20.3409  -51.6711 C.ar      23 UNK        -0.1150 
     13 C13         3.4047  -19.2464  -50.8172 C.ar      23 UNK        -0.0193 
     14 C14         2.5473  -18.1529  -50.9511 C.ar      23 UNK        -0.1150 
     15 C15         4.4618  -19.2520  -49.7235 C.3       23 UNK        -0.0205 
     16 S16         4.0043  -20.3181  -48.3129 S.3       23 UNK        -0.2404 
     17 C17         2.3496  -19.7086  -47.8323 C.3       23 UNK        -0.0398 
     18 CA          1.3542  -20.8749  -47.5994 C.3       11 UNK         0.1400 
     19 N           1.2784  -21.2294  -46.1800 N.am      11 UNK        -0.5000 
     20 C           0.6278  -22.2872  -45.6787 C.2       10 UNK         0.5000 
     21 O           0.0879  -23.1522  -46.3691 O.2       10 UNK        -0.5000 
     22 CA          0.5067  -22.3441  -44.1438 C.3       10 UNK         0.1400 
     23 CB          1.7901  -22.8977  -43.5075 C.3       10 UNK        -0.1800 
     24 N           0.1915  -21.0326  -43.5690 N.am      10 UNK        -0.5000 
     25 C          -0.9554  -20.3742  -43.7918 C.2       9 UNK         0.5000 
     26 O          -1.8925  -20.8501  -44.4302 O.2       9 UNK        -0.5000 
     27 CA         -1.0676  -18.9358  -43.2552 C.3       9 UNK         0.1400 
     28 CB         -1.5326  -18.9388  -41.7917 C.3       9 UNK        -0.1800 
     29 N           0.1813  -18.1857  -43.3699 N.am      9 UNK        -0.5000 
     30 C           0.7680  -17.8269  -44.5206 C.2       8 UNK         0.5000 
     31 O           0.3143  -18.0723  -45.6376 O.2       8 UNK        -0.5000 
     32 CA          2.1381  -17.1389  -44.4103 C.3       8 UNK         0.1400 
     33 CB          1.9907  -15.6371  -44.1316 C.3       8 UNK        -0.1800 
     34 N           2.9828  -17.7646  -43.3940 N.am      8 UNK        -0.5000 
     35 C           3.4709  -19.0105  -43.4871 C.2       7 UNK         0.5000 
     36 O           3.2836  -19.7472  -44.4556 O.2       7 UNK        -0.5000 
     37 CA          4.2611  -19.5323  -42.2739 C.3       7 UNK         0.1400 
     38 CB          5.7197  -19.0545  -42.3305 C.3       7 UNK        -0.1800 
     39 N           3.6626  -19.1205  -41.0029 N.am      7 UNK        -0.5000 
     40 C           2.4814  -19.5618  -40.5472 C.2       6 UNK         0.5000 
     41 O           1.7915  -20.3956  -41.1334 O.2       6 UNK        -0.5000 
     42 CA          1.9629  -18.9196  -39.2455 C.3       6 UNK         0.1400 
     43 CB          2.5726  -19.6125  -38.0179 C.3       6 UNK        -0.1800 
     44 N           2.2220  -17.4767  -39.1736 N.am      6 UNK        -0.5000 
     45 C           1.7187  -16.5820  -40.0330 C.2       5 UNK         0.5000 
     46 O           0.9789  -16.8856  -40.9732 O.2       5 UNK        -0.5000 
     47 CA          2.1409  -15.1177  -39.8494 C.3       5 UNK         0.1400 
     48 CB          3.6102  -14.9200  -40.2715 C.3       5 UNK        -0.1800 
     49 N           1.2632  -14.3086  -40.6852 N.am      5 UNK        -0.5000 
     50 C           1.1208  -12.9804  -40.6815 C.2       4 UNK         0.5000 
     51 O           1.7298  -12.2259  -39.9223 O.2       4 UNK        -0.5000 
     52 CA          0.1275  -12.3958  -41.7056 C.3       4 UNK         0.1400 
     53 CB          0.8724  -11.9107  -42.9589 C.3       4 UNK        -0.1800 
     54 N          -0.9022  -13.3540  -42.1157 N.am      4 UNK        -0.5000 
     55 C          -1.9640  -13.7056  -41.3804 C.2       3 UNK         0.5000 
     56 O          -2.1993  -13.2311  -40.2678 O.2       3 UNK        -0.5000 
     57 CA         -2.9220  -14.7489  -42.0010 C.3       3 UNK         0.1400 
     58 CB         -4.2362  -14.8938  -41.2130 C.3       3 UNK        -0.1800 
     59 N          -3.2441  -14.4685  -43.4050 N.am      3 UNK        -0.5000 
     60 C          -2.4541  -14.7544  -44.4463 C.2       2 UNK         0.5000 
     61 O          -1.3384  -15.2576  -44.3102 O.2       2 UNK        -0.5000 
     62 CA         -3.0116  -14.4132  -45.8456 C.3       2 UNK         0.1400 
     63 CB         -3.0879  -12.8892  -46.0710 C.3       2 UNK        -0.1800 
     64 N          -2.2843  -15.0895  -46.9295 N.am      2 UNK        -0.5000 
     65 C          -1.0211  -14.8856  -47.3369 C.2       1 UNK         0.5000 
     66 O          -0.3216  -13.9388  -46.9704 O.2       1 UNK        -0.5000 
     67 C          -0.0433  -20.5781  -48.1911 C.2       11 UNK         0.5000 
     68 O          -0.3489  -21.0576  -49.2820 O.2       11 UNK        -0.5000 
     69 N          -0.8864  -19.8481  -47.4430 N.am      12 UNK        -0.5000 
     70 CA         -2.2836  -19.5793  -47.7874 C.3       12 UNK         0.1400 
     71 CB         -2.9302  -18.6344  -46.7578 C.3       12 UNK        -0.1800 
     72 C          -3.1027  -20.8720  -47.9058 C.2       12 UNK         0.5000 
     73 O          -3.7932  -21.0522  -48.9054 O.2       12 UNK        -0.5000 
     74 N          -2.9901  -21.7575  -46.9063 N.am      13 UNK        -0.5000 
     75 CA         -3.6523  -23.0619  -46.8608 C.3       13 UNK         0.1400 
     76 CB         -3.3622  -23.7446  -45.5162 C.3       13 UNK        -0.1800 
     77 C          -3.2658  -23.9729  -48.0397 C.2       13 UNK         0.5000 
     78 O          -4.1485  -24.5881  -48.6394 O.2       13 UNK        -0.5000 
     79 N          -1.9717  -23.9912  -48.3918 N.am      14 UNK        -0.5000 
     80 CA         -1.4398  -24.6840  -49.5689 C.3       14 UNK         0.1400 
     81 CB          0.0947  -24.6191  -49.5532 C.3       14 UNK        -0.1800 
     82 C          -2.0011  -24.1350  -50.8966 C.2       14 UNK         0.5000 
     83 O          -2.2561  -24.9136  -51.8147 O.2       14 UNK        -0.5000 
     84 N          -2.2388  -22.8187  -50.9487 N.am      15 UNK        -0.5000 
     85 CA         -2.8572  -22.0980  -52.0613 C.3       15 UNK         0.1400 
     86 CB         -2.2399  -20.6914  -52.1312 C.3       15 UNK        -0.1800 
     87 C          -4.4013  -22.0536  -51.9823 C.2       15 UNK         0.5000 
     88 O          -5.0117  -21.1882  -52.6127 O.2       15 UNK        -0.5000 
     89 N          -5.0099  -22.9731  -51.2159 N.am      16 UNK        -0.5000 
     90 CA         -6.4519  -23.1625  -51.0190 C.3       16 UNK         0.1400 
     91 CB         -7.1298  -23.5948  -52.3362 C.3       16 UNK        -0.1800 
     92 C          -7.1241  -21.9342  -50.3747 C.2       16 UNK         0.5000 
     93 O          -8.0628  -21.3704  -50.9363 O.2       16 UNK        -0.5000 
     94 N          -6.5881  -21.5159  -49.2203 N.am      17 UNK        -0.5000 
     95 CA         -6.9357  -20.3013  -48.4686 C.3       17 UNK         0.1400 
     96 CB         -8.3819  -20.3674  -47.9350 C.3       17 UNK        -0.1800 
     97 C          -6.6385  -19.0164  -49.2725 C.2       17 UNK         0.5000 
     98 O          -7.3825  -18.0388  -49.1853 O.2       17 UNK        -0.5000 
     99 N          -5.5557  -19.0719  -50.0624 N.am      18 UNK        -0.5000 
    100 CA        -5.0678  -18.0701  -51.0152 C.3       18 UNK         0.1400 
    101 CB        -4.6066  -16.7978  -50.2748 C.3       18 UNK        -0.1800 
    102 C         -6.0412  -17.7651  -52.1777 C.2       18 UNK         0.5000 
    103 O         -5.8692  -16.7515  -52.8570 O.2       18 UNK        -0.5000 
    104 N         -7.0385  -18.6331  -52.4027 N.am      19 UNK        -0.5000 
    105 CA        -8.0318  -18.4891  -53.4681 C.3       19 UNK         0.1400 
    106 CB        -9.3373  -19.1755  -53.0386 C.3       19 UNK        -0.1800 
    107 C         -7.5483  -19.0571  -54.8148 C.2       19 UNK         0.5000 
    108 O         -8.1150  -18.7007  -55.8494 O.2       19 UNK        -0.5000 
    109 N         -6.5332  -19.9284  -54.7873 N.am      20 UNK        -0.5000 
    110 CA        -5.9380  -20.5686  -55.9545 C.3       20 UNK         0.1400 
    111 CB        -6.4200  -22.0331  -56.0226 C.3       20 UNK        -0.1800 
    112 C         -4.4079  -20.4109  -55.8878 C.2       20 UNK         0.5000 
    113 O         -3.9190  -19.3378  -55.5279 O.2       20 UNK        -0.5000 
    114 N         -3.6779  -21.4696  -56.2458 N.am      21 UNK        -0.5000 
    115 CA        -2.2265  -21.5718  -56.1861 C.3       21 UNK         0.1400 
    116 CB        -1.6309  -21.2415  -57.5648 C.3       21 UNK        -0.1800 
    117 C         -1.8643  -22.9960  -55.7442 C.2       21 UNK         0.5000 
    118 O         -2.7032  -23.8981  -55.8252 O.2       21 UNK        -0.5000 
    119 N         -0.6297  -23.1578  -55.2631 N.am      22 UNK        -0.5000 
    120 CA        -0.0816  -24.4158  -54.7367 C.3       22 UNK         0.1400 
    121 C          0.0288  -25.5313  -55.8131 C.2       22 UNK         0.5000 
    122 N         -0.2762  -26.7734  -55.4631 N.am      22 UNK        -0.7600 
    123 O          0.4325  -25.2868  -56.9481 O.2       22 UNK        -0.5000 
    124 C124        1.2911  -24.1925  -54.0544 C.3       23 UNK        -0.0398 
    125 S125        1.2376  -22.9299  -52.7362 S.3       23 UNK        -0.2404 
    126 C126        2.0990  -21.5531  -53.5557 C.3       23 UNK        -0.0205 
    127 H127        4.1211  -15.7069  -48.6886 H         1 UNK         0.0600 
    128 H128        3.3889  -16.8939  -47.6135 H         1 UNK         0.0600 
    129 H129        3.6635  -15.2420  -47.0470 H         1 UNK         0.0600 
    130 H130        1.1353  -16.9820  -47.4543 H         1 UNK         0.3000 
    131 H131       -0.9253  -16.8949  -47.9950 H         1 UNK         0.0600 
    132 H132       -0.2739  -14.9418  -50.2534 H         1 UNK         0.0800 
    133 H133       -1.8999  -15.3525  -49.8332 H         1 UNK         0.0800 
    134 H134        0.1218  -16.8977  -52.9357 H         1 UNK         0.0800 
    135 H135        1.0570  -16.0758  -51.7114 H         1 UNK         0.0800 
    136 H136        0.5555  -19.2921  -53.4462 H         1 UNK         0.1150 
    137 H137        3.9207  -21.1892  -51.5751 H         1 UNK         0.1150 
    138 H138        2.6606  -17.3025  -50.2991 H         1 UNK         0.1150 
    139 H139        5.4082  -19.6024  -50.1378 H         1 UNK         0.0800 
    140 H140        4.6470  -18.2401  -49.3612 H         1 UNK         0.0800 
    141 H141        1.9764  -19.0167  -48.5828 H         1 UNK         0.0800 
    142 H142        2.4631  -19.1046  -46.9335 H         1 UNK         0.0800 
    143 H143        1.7135  -21.7599  -48.1295 H         1 UNK         0.0600 
    144 H144        1.7399  -20.5987  -45.5334 H         1 UNK         0.3000 
    145 H145       -0.3123  -23.0239  -43.8997 H         1 UNK         0.0600 
    146 H146        1.6837  -22.9932  -42.4268 H         1 UNK         0.0600 
    147 H147        2.0238  -23.8878  -43.9009 H         1 UNK         0.0600 
    148 H148        2.6492  -22.2561  -43.7026 H         1 UNK         0.0600 
    149 H149        0.8922  -20.6109  -42.9690 H         1 UNK         0.3000 
    150 H150       -1.8201  -18.4138  -43.8496 H         1 UNK         0.0600 
    151 H151       -2.4910  -19.4489  -41.6878 H         1 UNK         0.0600 
    152 H152       -1.6603  -17.9247  -41.4146 H         1 UNK         0.0600 
    153 H153       -0.8176  -19.4461  -41.1437 H         1 UNK         0.0600 
    154 H154        0.6056  -17.8843  -42.4967 H         1 UNK         0.3000 
    155 H155        2.6444  -17.2492  -45.3695 H         1 UNK         0.0600 
    156 H156        1.4401  -15.1481  -44.9367 H         1 UNK         0.0600 
    157 H157        1.4440  -15.4501  -43.2093 H         1 UNK         0.0600 
    158 H158        2.9613  -15.1471  -44.0567 H         1 UNK         0.0600 
    159 H159        3.1429  -17.2428  -42.5466 H         1 UNK         0.3000 
    160 H160        4.2568  -20.6236  -42.3171 H         1 UNK         0.0600 
    161 H161        5.7929  -17.9682  -42.2662 H         1 UNK         0.0600 
    162 H162        6.1939  -19.3611  -43.2639 H         1 UNK         0.0600 
    163 H163        6.3052  -19.4796  -41.5151 H         1 UNK         0.0600 
    164 H164        4.1667  -18.4375  -40.4573 H         1 UNK         0.3000 
    165 H165        0.8811  -19.0661  -39.2158 H         1 UNK         0.0600 
    166 H166        2.1436  -19.2255  -37.0934 H         1 UNK         0.0600 
    167 H167        2.3791  -20.6858  -38.0398 H         1 UNK         0.0600 
    168 H168        3.6534  -19.4744  -37.9707 H         1 UNK         0.0600 
    169 H169        2.8237  -17.1609  -38.4264 H         1 UNK         0.3000 
    170 H170        2.0042  -14.8375  -38.8033 H         1 UNK         0.0600 
    171 H171        3.7642  -15.1736  -41.3210 H         1 UNK         0.0600 
    172 H172        3.9301  -13.8878  -40.1298 H         1 UNK         0.0600 
    173 H173        4.2805  -15.5439  -39.6793 H         1 UNK         0.0600 
    174 H174        0.6864  -14.8630  -41.3061 H         1 UNK         0.3000 
    175 H175       -0.3597  -11.5353  -41.2423 H         1 UNK         0.0600 
    176 H176        0.1893  -11.4395  -43.6659 H         1 UNK         0.0600 
    177 H177        1.3723  -12.7319  -43.4739 H         1 UNK         0.0600 
    178 H178        1.6331  -11.1727  -42.7009 H         1 UNK         0.0600 
    179 H179       -0.7810  -13.8135  -43.0124 H         1 UNK         0.3000 
    180 H180       -2.4061  -15.7094  -41.9493 H         1 UNK         0.0600 
    181 H181       -4.8700  -15.6695  -41.6431 H         1 UNK         0.0600 
    182 H182       -4.8039  -13.9626  -41.2031 H         1 UNK         0.0600 
    183 H183       -4.0447  -15.1748  -40.1766 H         1 UNK         0.0600 
    184 H184       -4.1333  -14.0207  -43.5738 H         1 UNK         0.3000 
    185 H185       -4.0281  -14.8075  -45.8854 H         1 UNK         0.0600 
    186 H186       -3.7961  -12.4271  -45.3827 H         1 UNK         0.0600 
    187 H187       -2.1252  -12.4022  -45.9133 H         1 UNK         0.0600 
    188 H188       -3.4216  -12.6554  -47.0819 H         1 UNK         0.0600 
    189 H189       -2.7667  -15.8931  -47.3019 H         1 UNK         0.3000 
    190 H190       -0.5381  -19.4322  -46.5837 H         1 UNK         0.3000 
    191 H191       -2.2869  -19.0832  -48.7597 H         1 UNK         0.0600 
    192 H192       -2.2590  -17.8358  -46.4509 H         1 UNK         0.0600 
    193 H193       -3.8288  -18.1757  -47.1715 H         1 UNK         0.0600 
    194 H194       -3.2329  -19.1571  -45.8513 H         1 UNK         0.0600 
    195 H195       -2.4311  -21.5035  -46.0949 H         1 UNK         0.3000 
    196 H196       -4.7276  -22.8831  -46.9213 H         1 UNK         0.0600 
    197 H197       -3.8763  -24.7039  -45.4464 H         1 UNK         0.0600 
    198 H198       -3.7025  -23.1310  -44.6818 H         1 UNK         0.0600 
    199 H199       -2.2974  -23.9319  -45.3792 H         1 UNK         0.0600 
    200 H200       -1.3046  -23.4801  -47.8217 H         1 UNK         0.3000 
    201 H201       -1.7347  -25.7326  -49.4954 H         1 UNK         0.0600 
    202 H202        0.5001  -25.0610  -48.6430 H         1 UNK         0.0600 
    203 H203        0.4555  -23.5923  -49.6156 H         1 UNK         0.0600 
    204 H204        0.5166  -25.1646  -50.3983 H         1 UNK         0.0600 
    205 H205       -1.9754  -22.2516  -50.1503 H         1 UNK         0.3000 
    206 H206       -2.6120  -22.6127  -52.9901 H         1 UNK         0.0600 
    207 H207       -1.1584  -20.7480  -52.2527 H         1 UNK         0.0600 
    208 H208       -2.6309  -20.1207  -52.9743 H         1 UNK         0.0600 
    209 H209       -2.4370  -20.1232  -51.2220 H         1 UNK         0.0600 
    210 H210       -4.4190  -23.6048  -50.6905 H         1 UNK         0.3000 
    211 H211       -6.5592  -23.9836  -50.3088 H         1 UNK         0.0600 
    212 H212       -7.1316  -22.7927  -53.0743 H         1 UNK         0.0600 
    213 H213       -8.1691  -23.8760  -52.1628 H         1 UNK         0.0600 
    214 H214       -6.6280  -24.4564  -52.7764 H         1 UNK         0.0600 
    215 H215       -5.7392  -21.9748  -48.9149 H         1 UNK         0.3000 
    216 H216       -6.2701  -20.2771  -47.6047 H         1 UNK         0.0600 
    217 H217       -8.5840  -19.5389  -47.2553 H         1 UNK         0.0600 
    218 H218       -8.5560  -21.2901  -47.3817 H         1 UNK         0.0600 
    219 H219       -9.1162  -20.3138  -48.7391 H         1 UNK         0.0600 
    220 H220       -5.0078  -19.9253  -50.0152 H         1 UNK         0.3000 
    221 H221       -4.1870  -18.5094  -51.4834 H         1 UNK         0.0600 
    222 H222       -5.4441  -16.2621  -49.8275 H         1 UNK         0.0600 
    223 H223       -3.8987  -17.0396  -49.4829 H         1 UNK         0.0600 
    224 H224       -4.1046  -16.1096  -50.9556 H         1 UNK         0.0600 
    225 H225       -7.1149  -19.4578  -51.8200 H         1 UNK         0.3000 
    226 H226       -8.2465  -17.4282  -53.6128 H         1 UNK         0.0600 
    227 H227       -9.6666  -18.8281  -52.0590 H         1 UNK         0.0600 
    228 H228      -10.1385  -18.9626  -53.7472 H         1 UNK         0.0600 
    229 H229       -9.2259  -20.2591  -52.9927 H         1 UNK         0.0600 
    230 H230       -6.0875  -20.1488  -53.9003 H         1 UNK         0.3000 
    231 H231       -6.2548  -20.0617  -56.8679 H         1 UNK         0.0600 
    232 H232       -6.0318  -22.6245  -55.1924 H         1 UNK         0.0600 
    233 H233       -6.1081  -22.5121  -56.9513 H         1 UNK         0.0600 
    234 H234       -7.5082  -22.0890  -55.9877 H         1 UNK         0.0600 
    235 H235       -4.1424  -22.3437  -56.4581 H         1 UNK         0.3000 
    236 H236       -1.8340  -20.8757  -55.4412 H         1 UNK         0.0600 
    237 H237       -1.8921  -20.2292  -57.8736 H         1 UNK         0.0600 
    238 H238       -0.5423  -21.3050  -57.5491 H         1 UNK         0.0600 
    239 H239       -1.9898  -21.9289  -58.3318 H         1 UNK         0.0600 
    240 H240       -0.0006  -22.3709  -55.2517 H         1 UNK         0.3000 
    241 H241       -0.7787  -24.7626  -53.9730 H         1 UNK         0.0600 
    242 H242       -0.6087  -26.9952  -54.5370 H         1 UNK         0.3800 
    243 H243       -0.1940  -27.5096  -56.1474 H         1 UNK         0.3800 
    244 H244        2.0479  -23.9216  -54.7928 H         1 UNK         0.0800 
    245 H245        1.6370  -25.1220  -53.5990 H         1 UNK         0.0800 
    246 H246        1.5622  -21.2670  -54.4606 H         1 UNK         0.0800 
    247 H247        3.0894  -21.8822  -53.8744 H         1 UNK         0.0800 
@<TRIPOS>BOND
     1    1    2 1    
     2    1  127 1    
     3    1  128 1    
     4    1  129 1    
     5    2    3 2    
     6    2    4 am   BACKBONE|DICT|INTERRES
     7    4    5 1    
     8    4  130 1    
     9    5    6 1    
    10    5   65 1    
    11    5  131 1    
    12    6    7 1    
    13    6  132 1    
    14    6  133 1    
    15    7    8 1    
    16    8    9 1    
    17    8  134 1    
    18    8  135 1    
    19    9   10 ar   
    20    9   14 ar   
    21   10   11 ar   
    22   10  136 1    
    23   11   12 ar   
    24   11  126 1    
    25   12   13 ar   
    26   12  137 1    
    27   13   14 ar   
    28   13   15 1    
    29   14  138 1    
    30   15   16 1    
    31   15  139 1    
    32   15  140 1    
    33   16   17 1    
    34   17   18 1    
    35   17  141 1    
    36   17  142 1    
    37   18   19 1    
    38   18   67 1    
    39   18  143 1    
    40   19   20 am   BACKBONE|DICT|INTERRES
    41   19  144 1    
    42   20   21 2    
    43   20   22 1    
    44   22   23 1    
    45   22   24 1    
    46   22  145 1    
    47   23  146 1    
    48   23  147 1    
    49   23  148 1    
    50   24   25 am   BACKBONE|DICT|INTERRES
    51   24  149 1    
    52   25   26 2    
    53   25   27 1    
    54   27   28 1    
    55   27   29 1    
    56   27  150 1    
    57   28  151 1    
    58   28  152 1    
    59   28  153 1    
    60   29   30 am   BACKBONE|DICT|INTERRES
    61   29  154 1    
    62   30   31 2    
    63   30   32 1    
    64   32   33 1    
    65   32   34 1    
    66   32  155 1    
    67   33  156 1    
    68   33  157 1    
    69   33  158 1    
    70   34   35 am   BACKBONE|DICT|INTERRES
    71   34  159 1    
    72   35   36 2    
    73   35   37 1    
    74   37   38 1    
    75   37   39 1    
    76   37  160 1    
    77   38  161 1    
    78   38  162 1    
    79   38  163 1    
    80   39   40 am   BACKBONE|DICT|INTERRES
    81   39  164 1    
    82   40   41 2    
    83   40   42 1    
    84   42   43 1    
    85   42   44 1    
    86   42  165 1    
    87   43  166 1    
    88   43  167 1    
    89   43  168 1    
    90   44   45 am   BACKBONE|DICT|INTERRES
    91   44  169 1    
    92   45   46 2    
    93   45   47 1    
    94   47   48 1    
    95   47   49 1    
    96   47  170 1    
    97   48  171 1    
    98   48  172 1    
    99   48  173 1    
   100   49   50 am   BACKBONE|DICT|INTERRES
   101   49  174 1    
   102   50   51 2    
   103   50   52 1    
   104   52   53 1    
   105   52   54 1    
   106   52  175 1    
   107   53  176 1    
   108   53  177 1    
   109   53  178 1    
   110   54   55 am   BACKBONE|DICT|INTERRES
   111   54  179 1    
   112   55   56 2    
   113   55   57 1    
   114   57   58 1    
   115   57   59 1    
   116   57  180 1    
   117   58  181 1    
   118   58  182 1    
   119   58  183 1    
   120   59   60 am   BACKBONE|DICT|INTERRES
   121   59  184 1    
   122   60   61 2    
   123   60   62 1    
   124   62   63 1    
   125   62   64 1    
   126   62  185 1    
   127   63  186 1    
   128   63  187 1    
   129   63  188 1    
   130   64   65 am   BACKBONE|DICT|INTERRES
   131   64  189 1    
   132   65   66 2    
   133   67   68 2    
   134   67   69 am   BACKBONE|DICT|INTERRES
   135   69   70 1    
   136   69  190 1    
   137   70   71 1    
   138   70   72 1    
   139   70  191 1    
   140   71  192 1    
   141   71  193 1    
   142   71  194 1    
   143   72   73 2    
   144   72   74 am   BACKBONE|DICT|INTERRES
   145   74   75 1    
   146   74  195 1    
   147   75   76 1    
   148   75   77 1    
   149   75  196 1    
   150   76  197 1    
   151   76  198 1    
   152   76  199 1    
   153   77   78 2    
   154   77   79 am   BACKBONE|DICT|INTERRES
   155   79   80 1    
   156   79  200 1    
   157   80   81 1    
   158   80   82 1    
   159   80  201 1    
   160   81  202 1    
   161   81  203 1    
   162   81  204 1    
   163   82   83 2    
   164   82   84 am   BACKBONE|DICT|INTERRES
   165   84   85 1    
   166   84  205 1    
   167   85   86 1    
   168   85   87 1    
   169   85  206 1    
   170   86  207 1    
   171   86  208 1    
   172   86  209 1    
   173   87   88 2    
   174   87   89 am   BACKBONE|DICT|INTERRES
   175   89   90 1    
   176   89  210 1    
   177   90   91 1    
   178   90   92 1    
   179   90  211 1    
   180   91  212 1    
   181   91  213 1    
   182   91  214 1    
   183   92   93 2    
   184   92   94 am   BACKBONE|DICT|INTERRES
   185   94   95 1    
   186   94  215 1    
   187   95   96 1    
   188   95   97 1    
   189   95  216 1    
   190   96  217 1    
   191   96  218 1    
   192   96  219 1    
   193   97   98 2    
   194   97   99 am   BACKBONE|DICT|INTERRES
   195   99  100 1    
   196   99  220 1    
   197  100  101 1    
   198  100  102 1    
   199  100  221 1    
   200  101  222 1    
   201  101  223 1    
   202  101  224 1    
   203  102  103 2    
   204  102  104 am   BACKBONE|DICT|INTERRES
   205  104  105 1    
   206  104  225 1    
   207  105  106 1    
   208  105  107 1    
   209  105  226 1    
   210  106  227 1    
   211  106  228 1    
   212  106  229 1    
   213  107  108 2    
   214  107  109 am   BACKBONE|DICT|INTERRES
   215  109  110 1    
   216  109  230 1    
   217  110  111 1    
   218  110  112 1    
   219  110  231 1    
   220  111  232 1    
   221  111  233 1    
   222  111  234 1    
   223  112  113 2    
   224  112  114 am   BACKBONE|DICT|INTERRES
   225  114  115 1    
   226  114  235 1    
   227  115  116 1    
   228  115  117 1    
   229  115  236 1    
   230  116  237 1    
   231  116  238 1    
   232  116  239 1    
   233  117  118 2    
   234  117  119 am   BACKBONE|DICT|INTERRES
   235  119  120 1    
   236  119  240 1    
   237  120  121 1    
   238  120  124 1    
   239  120  241 1    
   240  121  122 am   BACKBONE|DICT|INTERRES
   241  121  123 2    
   242  122  242 1    
   243  122  243 1    
   244  124  125 1    
   245  124  244 1    
   246  124  245 1    
   247  125  126 1    
   248  126  246 1    
   249  126  247 1    
@<TRIPOS>SUBSTRUCTURE
     1 UNK         1 GROUP             0       ****    0 ROOT    
