@<TRIPOS>MOLECULE
3R540
247   249    1
SMALL
USER_CHARGES


@<TRIPOS>ATOM
      1 CA          4.4039  -16.3877  -42.0730 C.3       0 UNK        -0.1800 
      2 C           3.5814  -15.3467  -42.8191 C.2       0 UNK         0.5000 
      3 O           3.1226  -14.3737  -42.2196 O.2       0 UNK        -0.5000 
      4 N           3.3826  -15.5526  -44.1249 N.am      1 UNK        -0.5000 
      5 CA          2.6519  -14.6487  -45.0083 C.3       1 UNK         0.1400 
      6 C6          1.9315  -15.4138  -46.1422 C.3       23 UNK        -0.0398 
      7 S7          0.5672  -14.4309  -46.8462 S.3       23 UNK        -0.2404 
      8 C8          0.8838  -14.5841  -48.6279 C.3       23 UNK        -0.0205 
      9 C9          0.3175  -15.8829  -49.1779 C.ar      23 UNK        -0.0193 
     10 C10        -0.9869  -15.9165  -49.6787 C.ar      23 UNK        -0.1150 
     11 C11        -1.5127  -17.0968  -50.2099 C.ar      23 UNK        -0.0193 
     12 C12        -0.7254  -18.2498  -50.2338 C.ar      23 UNK        -0.1150 
     13 C13         0.5778  -18.2338  -49.7261 C.ar      23 UNK        -0.0193 
     14 C14         1.0939  -17.0451  -49.2010 C.ar      23 UNK        -0.1150 
     15 C15         1.4428  -19.4849  -49.7758 C.3       23 UNK        -0.0205 
     16 S16         0.6843  -20.8843  -48.8961 S.3       23 UNK        -0.2404 
     17 C17         2.0420  -22.1090  -48.9669 C.3       23 UNK        -0.0398 
     18 CA          2.3237  -22.7997  -47.6046 C.3       11 UNK         0.1400 
     19 N           2.5804  -21.8241  -46.5385 N.am      11 UNK        -0.5000 
     20 C           3.7822  -21.2851  -46.3037 C.2       10 UNK         0.5000 
     21 O           4.8247  -21.6801  -46.8274 O.2       10 UNK        -0.5000 
     22 CA          3.8315  -20.0718  -45.3591 C.3       10 UNK         0.1400 
     23 CB          3.4113  -18.8038  -46.1164 C.3       10 UNK        -0.1800 
     24 N           3.0083  -20.2161  -44.1580 N.am      10 UNK        -0.5000 
     25 C           3.2823  -21.0558  -43.1487 C.2       9 UNK         0.5000 
     26 O           4.2282  -21.8440  -43.1500 O.2       9 UNK        -0.5000 
     27 CA          2.3486  -21.0004  -41.9275 C.3       9 UNK         0.1400 
     28 CB          2.7621  -19.8638  -40.9790 C.3       9 UNK        -0.1800 
     29 N           0.9567  -20.8151  -42.3347 N.am      9 UNK        -0.5000 
     30 C           0.1184  -21.8231  -42.6116 C.2       8 UNK         0.5000 
     31 O           0.4085  -23.0085  -42.4569 O.2       8 UNK        -0.5000 
     32 CA         -1.2708  -21.4606  -43.1769 C.3       8 UNK         0.1400 
     33 CB         -2.3130  -21.4032  -42.0511 C.3       8 UNK        -0.1800 
     34 N          -1.2959  -20.1971  -43.9125 N.am      8 UNK        -0.5000 
     35 C          -0.6160  -19.9394  -45.0391 C.2       7 UNK         0.5000 
     36 O           0.0707  -20.7764  -45.6245 O.2       7 UNK        -0.5000 
     37 CA         -0.6595  -18.4823  -45.5449 C.3       7 UNK         0.1400 
     38 CB         -1.8033  -18.2908  -46.5502 C.3       7 UNK        -0.1800 
     39 N          -0.7913  -17.5057  -44.4538 N.am      7 UNK        -0.5000 
     40 C           0.0660  -17.3786  -43.4319 C.2       6 UNK         0.5000 
     41 O           1.1351  -17.9907  -43.3743 O.2       6 UNK        -0.5000 
     42 CA         -0.3808  -16.4768  -42.2641 C.3       6 UNK         0.1400 
     43 CB          0.4211  -16.7429  -40.9784 C.3       6 UNK        -0.1800 
     44 N          -0.3211  -15.0495  -42.5756 N.am      6 UNK        -0.5000 
     45 C          -1.2027  -14.3896  -43.3378 C.2       5 UNK         0.5000 
     46 O          -2.1089  -14.9473  -43.9603 O.2       5 UNK        -0.5000 
     47 CA         -1.0916  -12.8560  -43.3977 C.3       5 UNK         0.1400 
     48 CB          0.0949  -12.2504  -42.6169 C.3       5 UNK        -0.1800 
     49 N          -1.0416  -12.4307  -44.7923 N.am      5 UNK        -0.5000 
     50 C          -1.6210  -11.3308  -45.2817 C.2       4 UNK         0.5000 
     51 O          -2.2505  -10.5218  -44.5975 O.2       4 UNK        -0.5000 
     52 CA         -1.3759  -11.0571  -46.7716 C.3       4 UNK         0.1400 
     53 CB         -2.3769  -10.0508  -47.3744 C.3       4 UNK        -0.1800 
     54 N          -0.0125  -10.5538  -46.8962 N.am      4 UNK        -0.5000 
     55 C           0.7307  -10.5758  -48.0090 C.2       3 UNK         0.5000 
     56 O           0.3462  -11.0255  -49.0880 O.2       3 UNK        -0.5000 
     57 CA          2.1561  -10.0243  -47.8770 C.3       3 UNK         0.1400 
     58 CB          2.1455   -8.4834  -47.8342 C.3       3 UNK        -0.1800 
     59 N           2.7903  -10.5868  -46.6855 N.am      3 UNK        -0.5000 
     60 C           4.0965  -10.5465  -46.3966 C.2       2 UNK         0.5000 
     61 O           4.9371   -9.9681  -47.0861 O.2       2 UNK        -0.5000 
     62 CA          4.5438  -11.2948  -45.1241 C.3       2 UNK         0.1400 
     63 CB          4.5729  -10.3387  -43.9220 C.3       2 UNK        -0.1800 
     64 N           3.6980  -12.4463  -44.7943 N.am      2 UNK        -0.5000 
     65 C           3.6153  -13.5650  -45.5268 C.2       1 UNK         0.5000 
     66 O           4.2792  -13.7672  -46.5447 O.2       1 UNK        -0.5000 
     67 C           1.2322  -23.8243  -47.2387 C.2       11 UNK         0.5000 
     68 O           0.8619  -24.6240  -48.0957 O.2       11 UNK        -0.5000 
     69 N           0.7242  -23.7889  -45.9976 N.am      12 UNK        -0.5000 
     70 CA         -0.3918  -24.5975  -45.4825 C.3       12 UNK         0.1400 
     71 CB         -0.0911  -26.1086  -45.5663 C.3       12 UNK        -0.1800 
     72 C          -1.7649  -24.2288  -46.0896 C.2       12 UNK         0.5000 
     73 O          -2.7306  -24.9693  -45.8946 O.2       12 UNK        -0.5000 
     74 N          -1.8390  -23.0730  -46.7691 N.am      13 UNK        -0.5000 
     75 CA         -3.0259  -22.4526  -47.3599 C.3       13 UNK         0.1400 
     76 CB         -3.8574  -21.7725  -46.2487 C.3       13 UNK        -0.1800 
     77 C          -3.8406  -23.4266  -48.2402 C.2       13 UNK         0.5000 
     78 O          -3.3543  -23.8638  -49.2854 O.2       13 UNK        -0.5000 
     79 N          -5.0681  -23.7459  -47.8114 N.am      14 UNK        -0.5000 
     80 CA         -6.0167  -24.6138  -48.5064 C.3       14 UNK         0.1400 
     81 CB         -7.3762  -24.5346  -47.7970 C.3       14 UNK        -0.1800 
     82 C          -5.5607  -26.0779  -48.6399 C.2       14 UNK         0.5000 
     83 O          -6.0013  -26.7472  -49.5740 O.2       14 UNK        -0.5000 
     84 N          -4.6695  -26.5485  -47.7536 N.am      15 UNK        -0.5000 
     85 CA         -4.1299  -27.9131  -47.7874 C.3       15 UNK         0.1400 
     86 CB         -3.3821  -28.2059  -46.4795 C.3       15 UNK        -0.1800 
     87 C          -3.2189  -28.1741  -49.0035 C.2       15 UNK         0.5000 
     88 O          -3.1382  -29.3124  -49.4660 O.2       15 UNK        -0.5000 
     89 N          -2.5804  -27.1133  -49.5142 N.am      16 UNK        -0.5000 
     90 CA         -1.7784  -27.1227  -50.7391 C.3       16 UNK         0.1400 
     91 CB         -0.5105  -26.2928  -50.4881 C.3       16 UNK        -0.1800 
     92 C          -2.5570  -26.5612  -51.9460 C.2       16 UNK         0.5000 
     93 O          -1.9833  -26.4511  -53.0299 O.2       16 UNK        -0.5000 
     94 N          -3.8265  -26.1772  -51.7322 N.am      17 UNK        -0.5000 
     95 CA         -4.7164  -25.4574  -52.6519 C.3       17 UNK         0.1400 
     96 CB         -5.0417  -26.3064  -53.8974 C.3       17 UNK        -0.1800 
     97 C          -4.2148  -24.0412  -53.0126 C.2       17 UNK         0.5000 
     98 O          -4.6647  -23.4627  -54.0022 O.2       17 UNK        -0.5000 
     99 N          -3.3208  -23.4785  -52.1881 N.am      18 UNK        -0.5000 
    100 CA        -2.7397  -22.1515  -52.3791 C.3       18 UNK         0.1400 
    101 CB        -1.4863  -22.0193  -51.5051 C.3       18 UNK        -0.1800 
    102 C         -3.7553  -21.0363  -52.0796 C.2       18 UNK         0.5000 
    103 O         -3.7335  -20.0003  -52.7403 O.2       18 UNK        -0.5000 
    104 N         -4.6768  -21.2930  -51.1397 N.am      19 UNK        -0.5000 
    105 CA        -5.8153  -20.4201  -50.8449 C.3       19 UNK         0.1400 
    106 CB        -6.5340  -20.9185  -49.5836 C.3       19 UNK        -0.1800 
    107 C         -6.7990  -20.3187  -52.0261 C.2       19 UNK         0.5000 
    108 O         -7.3208  -19.2358  -52.2909 O.2       19 UNK        -0.5000 
    109 N         -6.9993  -21.4361  -52.7400 N.am      20 UNK        -0.5000 
    110 CA        -7.8184  -21.5051  -53.9511 C.3       20 UNK         0.1400 
    111 CB        -8.1412  -22.9727  -54.2726 C.3       20 UNK        -0.1800 
    112 C         -7.1515  -20.8080  -55.1520 C.2       20 UNK         0.5000 
    113 O         -7.8583  -20.2425  -55.9867 O.2       20 UNK        -0.5000 
    114 N         -5.8114  -20.8371  -55.2062 N.am      21 UNK        -0.5000 
    115 CA        -5.0085  -20.1014  -56.1836 C.3       21 UNK         0.1400 
    116 CB        -3.5634  -20.6235  -56.1741 C.3       21 UNK        -0.1800 
    117 C         -5.0569  -18.5794  -55.9454 C.2       21 UNK         0.5000 
    118 O         -5.1907  -17.8248  -56.9101 O.2       21 UNK        -0.5000 
    119 N         -4.9763  -18.1584  -54.6747 N.am      22 UNK        -0.5000 
    120 CA        -5.1847  -16.7648  -54.2471 C.3       22 UNK         0.1400 
    121 C         -6.6427  -16.2722  -54.4679 C.2       22 UNK         0.5000 
    122 N         -7.6530  -17.0393  -54.0784 N.am      22 UNK        -0.7600 
    123 O         -6.8583  -15.1842  -54.9949 O.2       22 UNK        -0.5000 
    124 C124       -4.7610  -16.5276  -52.7764 C.3       23 UNK        -0.0398 
    125 S125       -2.9640  -16.6826  -52.5197 S.3       23 UNK        -0.2404 
    126 C126       -2.9297  -17.1247  -50.7563 C.3       23 UNK        -0.0205 
    127 H127        5.3978  -15.9960  -41.8581 H         1 UNK         0.0600 
    128 H128        4.5121  -17.3053  -42.6523 H         1 UNK         0.0600 
    129 H129        3.9257  -16.6414  -41.1273 H         1 UNK         0.0600 
    130 H130        3.8156  -16.3484  -44.5688 H         1 UNK         0.3000 
    131 H131        1.8754  -14.1594  -44.4199 H         1 UNK         0.0600 
    132 H132        1.4883  -16.3261  -45.7495 H         1 UNK         0.0800 
    133 H133        2.6296  -15.7367  -46.9152 H         1 UNK         0.0800 
    134 H134        1.9526  -14.5070  -48.8331 H         1 UNK         0.0800 
    135 H135        0.4191  -13.7395  -49.1380 H         1 UNK         0.0800 
    136 H136       -1.5914  -15.0205  -49.6618 H         1 UNK         0.1150 
    137 H137       -1.1305  -19.1607  -50.6471 H         1 UNK         0.1150 
    138 H138        2.1048  -17.0213  -48.8209 H         1 UNK         0.1150 
    139 H139        2.4240  -19.2847  -49.3426 H         1 UNK         0.0800 
    140 H140        1.6094  -19.7626  -50.8174 H         1 UNK         0.0800 
    141 H141        2.9542  -21.6149  -49.3027 H         1 UNK         0.0800 
    142 H142        1.8119  -22.8397  -49.7442 H         1 UNK         0.0800 
    143 H143        3.2183  -23.4125  -47.7329 H         1 UNK         0.0600 
    144 H144        1.7563  -21.3942  -46.1238 H         1 UNK         0.3000 
    145 H145        4.8670  -19.9420  -45.0371 H         1 UNK         0.0600 
    146 H146        3.4307  -17.9346  -45.4636 H         1 UNK         0.0600 
    147 H147        4.0881  -18.6042  -46.9481 H         1 UNK         0.0600 
    148 H148        2.4080  -18.8955  -46.5310 H         1 UNK         0.0600 
    149 H149        2.2394  -19.5649  -44.0491 H         1 UNK         0.3000 
    150 H150        2.4523  -21.9405  -41.3814 H         1 UNK         0.0600 
    151 H151        3.7870  -20.0003  -40.6320 H         1 UNK         0.0600 
    152 H152        2.1216  -19.8338  -40.0976 H         1 UNK         0.0600 
    153 H153        2.7098  -18.8893  -41.4636 H         1 UNK         0.0600 
    154 H154        0.6702  -19.8645  -42.5285 H         1 UNK         0.3000 
    155 H155       -1.5645  -22.2508  -43.8681 H         1 UNK         0.0600 
    156 H156       -2.3424  -22.3429  -41.4977 H         1 UNK         0.0600 
    157 H157       -3.3135  -21.2312  -42.4486 H         1 UNK         0.0600 
    158 H158       -2.0919  -20.6084  -41.3376 H         1 UNK         0.0600 
    159 H159       -1.8389  -19.4505  -43.5055 H         1 UNK         0.3000 
    160 H160        0.2771  -18.2874  -46.0656 H         1 UNK         0.0600 
    161 H161       -2.7796  -18.4364  -46.0869 H         1 UNK         0.0600 
    162 H162       -1.7190  -18.9992  -47.3759 H         1 UNK         0.0600 
    163 H163       -1.7805  -17.2898  -46.9818 H         1 UNK         0.0600 
    164 H164       -1.6064  -16.9017  -44.4662 H         1 UNK         0.3000 
    165 H165       -1.4197  -16.7339  -42.0464 H         1 UNK         0.0600 
    166 H166        1.4715  -16.4796  -41.0926 H         1 UNK         0.0600 
    167 H167        0.0235  -16.1699  -40.1407 H         1 UNK         0.0600 
    168 H168        0.3753  -17.7962  -40.6987 H         1 UNK         0.0600 
    169 H169        0.4214  -14.5295  -42.1286 H         1 UNK         0.3000 
    170 H170       -2.0120  -12.4851  -42.9418 H         1 UNK         0.0600 
    171 H171        0.0637  -12.5314  -41.5635 H         1 UNK         0.0600 
    172 H172        1.0570  -12.5616  -43.0193 H         1 UNK         0.0600 
    173 H173        0.0648  -11.1612  -42.6516 H         1 UNK         0.0600 
    174 H174       -0.5867  -13.0713  -45.4321 H         1 UNK         0.3000 
    175 H175       -1.4676  -12.0042  -47.3081 H         1 UNK         0.0600 
    176 H176       -3.4036  -10.3891  -47.2306 H         1 UNK         0.0600 
    177 H177       -2.2854   -9.0660  -46.9147 H         1 UNK         0.0600 
    178 H178       -2.2227   -9.9331  -48.4470 H         1 UNK         0.0600 
    179 H179        0.3649  -10.1329  -46.0585 H         1 UNK         0.3000 
    180 H180        2.7195  -10.3493  -48.7543 H         1 UNK         0.0600 
    181 H181        1.6071   -8.0735  -48.6898 H         1 UNK         0.0600 
    182 H182        1.6628   -8.1080  -46.9313 H         1 UNK         0.0600 
    183 H183        3.1551   -8.0746  -47.8667 H         1 UNK         0.0600 
    184 H184        2.1933  -11.1398  -46.0887 H         1 UNK         0.3000 
    185 H185        5.5590  -11.6588  -45.2959 H         1 UNK         0.0600 
    186 H186        5.2149   -9.4796  -44.1215 H         1 UNK         0.0600 
    187 H187        3.5786   -9.9576  -43.6858 H         1 UNK         0.0600 
    188 H188        4.9630  -10.8344  -43.0328 H         1 UNK         0.0600 
    189 H189        3.1870  -12.3953  -43.9240 H         1 UNK         0.3000 
    190 H190        1.0909  -23.0969  -45.3597 H         1 UNK         0.3000 
    191 H191       -0.4706  -24.3585  -44.4243 H         1 UNK         0.0600 
    192 H192       -0.1632  -26.4851  -46.5871 H         1 UNK         0.0600 
    193 H193       -0.7969  -26.6764  -44.9596 H         1 UNK         0.0600 
    194 H194        0.9073  -26.3350  -45.1924 H         1 UNK         0.0600 
    195 H195       -0.9833  -22.5415  -46.8639 H         1 UNK         0.3000 
    196 H196       -2.6652  -21.6704  -48.0295 H         1 UNK         0.0600 
    197 H197       -4.7374  -21.2719  -46.6531 H         1 UNK         0.0600 
    198 H198       -3.2737  -21.0077  -45.7408 H         1 UNK         0.0600 
    199 H199       -4.1910  -22.4823  -45.4907 H         1 UNK         0.0600 
    200 H200       -5.3732  -23.3711  -46.9250 H         1 UNK         0.3000 
    201 H201       -6.1390  -24.2261  -49.5196 H         1 UNK         0.0600 
    202 H202       -8.1218  -25.1437  -48.3100 H         1 UNK         0.0600 
    203 H203       -7.3133  -24.8903  -46.7678 H         1 UNK         0.0600 
    204 H204       -7.7533  -23.5119  -47.7769 H         1 UNK         0.0600 
    205 H205       -4.3038  -25.9303  -47.0372 H         1 UNK         0.3000 
    206 H206       -4.9731  -28.6041  -47.8539 H         1 UNK         0.0600 
    207 H207       -4.0135  -28.0231  -45.6099 H         1 UNK         0.0600 
    208 H208       -3.0628  -29.2480  -46.4386 H         1 UNK         0.0600 
    209 H209       -2.4903  -27.5887  -46.3847 H         1 UNK         0.0600 
    210 H210       -2.7088  -26.2120  -49.0722 H         1 UNK         0.3000 
    211 H211       -1.4755  -28.1409  -50.9907 H         1 UNK         0.0600 
    212 H212        0.1428  -26.2897  -51.3612 H         1 UNK         0.0600 
    213 H213        0.0650  -26.7010  -49.6573 H         1 UNK         0.0600 
    214 H214       -0.7505  -25.2547  -50.2524 H         1 UNK         0.0600 
    215 H215       -4.2187  -26.3622  -50.8182 H         1 UNK         0.3000 
    216 H216       -5.6500  -25.3103  -52.1074 H         1 UNK         0.0600 
    217 H217       -5.8279  -25.8412  -54.4931 H         1 UNK         0.0600 
    218 H218       -5.3941  -27.2989  -53.6167 H         1 UNK         0.0600 
    219 H219       -4.1734  -26.4280  -54.5453 H         1 UNK         0.0600 
    220 H220       -3.0557  -23.9697  -51.3420 H         1 UNK         0.3000 
    221 H221       -2.4349  -22.0602  -53.4237 H         1 UNK         0.0600 
    222 H222       -0.9365  -21.1124  -51.7546 H         1 UNK         0.0600 
    223 H223       -1.7328  -21.9794  -50.4439 H         1 UNK         0.0600 
    224 H224       -0.8051  -22.8568  -51.6572 H         1 UNK         0.0600 
    225 H225       -4.6208  -22.1723  -50.6475 H         1 UNK         0.3000 
    226 H226       -5.4325  -19.4177  -50.6447 H         1 UNK         0.0600 
    227 H227       -7.3655  -20.2617  -49.3248 H         1 UNK         0.0600 
    228 H228       -6.9403  -21.9208  -49.7186 H         1 UNK         0.0600 
    229 H229       -5.8604  -20.9373  -48.7283 H         1 UNK         0.0600 
    230 H230       -6.5049  -22.2753  -52.4803 H         1 UNK         0.3000 
    231 H231       -8.7611  -20.9903  -53.7529 H         1 UNK         0.0600 
    232 H232       -8.6452  -23.4590  -53.4373 H         1 UNK         0.0600 
    233 H233       -7.2443  -23.5463  -54.5046 H         1 UNK         0.0600 
    234 H234       -8.8037  -23.0428  -55.1362 H         1 UNK         0.0600 
    235 H235       -5.3092  -21.3789  -54.5152 H         1 UNK         0.3000 
    236 H236       -5.4257  -20.2975  -57.1736 H         1 UNK         0.0600 
    237 H237       -3.5311  -21.7014  -56.3347 H         1 UNK         0.0600 
    238 H238       -2.9795  -20.1573  -56.9684 H         1 UNK         0.0600 
    239 H239       -3.0581  -20.4095  -55.2332 H         1 UNK         0.0600 
    240 H240       -4.7764  -18.8336  -53.9437 H         1 UNK         0.3000 
    241 H241       -4.5479  -16.1383  -54.8751 H         1 UNK         0.0600 
    242 H242       -7.4897  -17.9034  -53.5666 H         1 UNK         0.3800 
    243 H243       -8.5979  -16.7236  -54.2268 H         1 UNK         0.3800 
    244 H244       -5.0436  -15.5250  -52.4495 H         1 UNK         0.0800 
    245 H245       -5.2851  -17.2230  -52.1187 H         1 UNK         0.0800 
    246 H246       -3.3622  -18.1169  -50.6230 H         1 UNK         0.0800 
    247 H247       -3.5574  -16.4329  -50.1923 H         1 UNK         0.0800 
@<TRIPOS>BOND
     1    1    2 1    
     2    1  127 1    
     3    1  128 1    
     4    1  129 1    
     5    2    3 2    
     6    2    4 am   BACKBONE|DICT|INTERRES
     7    4    5 1    
     8    4  130 1    
     9    5    6 1    
    10    5   65 1    
    11    5  131 1    
    12    6    7 1    
    13    6  132 1    
    14    6  133 1    
    15    7    8 1    
    16    8    9 1    
    17    8  134 1    
    18    8  135 1    
    19    9   10 ar   
    20    9   14 ar   
    21   10   11 ar   
    22   10  136 1    
    23   11   12 ar   
    24   11  126 1    
    25   12   13 ar   
    26   12  137 1    
    27   13   14 ar   
    28   13   15 1    
    29   14  138 1    
    30   15   16 1    
    31   15  139 1    
    32   15  140 1    
    33   16   17 1    
    34   17   18 1    
    35   17  141 1    
    36   17  142 1    
    37   18   19 1    
    38   18   67 1    
    39   18  143 1    
    40   19   20 am   BACKBONE|DICT|INTERRES
    41   19  144 1    
    42   20   21 2    
    43   20   22 1    
    44   22   23 1    
    45   22   24 1    
    46   22  145 1    
    47   23  146 1    
    48   23  147 1    
    49   23  148 1    
    50   24   25 am   BACKBONE|DICT|INTERRES
    51   24  149 1    
    52   25   26 2    
    53   25   27 1    
    54   27   28 1    
    55   27   29 1    
    56   27  150 1    
    57   28  151 1    
    58   28  152 1    
    59   28  153 1    
    60   29   30 am   BACKBONE|DICT|INTERRES
    61   29  154 1    
    62   30   31 2    
    63   30   32 1    
    64   32   33 1    
    65   32   34 1    
    66   32  155 1    
    67   33  156 1    
    68   33  157 1    
    69   33  158 1    
    70   34   35 am   BACKBONE|DICT|INTERRES
    71   34  159 1    
    72   35   36 2    
    73   35   37 1    
    74   37   38 1    
    75   37   39 1    
    76   37  160 1    
    77   38  161 1    
    78   38  162 1    
    79   38  163 1    
    80   39   40 am   BACKBONE|DICT|INTERRES
    81   39  164 1    
    82   40   41 2    
    83   40   42 1    
    84   42   43 1    
    85   42   44 1    
    86   42  165 1    
    87   43  166 1    
    88   43  167 1    
    89   43  168 1    
    90   44   45 am   BACKBONE|DICT|INTERRES
    91   44  169 1    
    92   45   46 2    
    93   45   47 1    
    94   47   48 1    
    95   47   49 1    
    96   47  170 1    
    97   48  171 1    
    98   48  172 1    
    99   48  173 1    
   100   49   50 am   BACKBONE|DICT|INTERRES
   101   49  174 1    
   102   50   51 2    
   103   50   52 1    
   104   52   53 1    
   105   52   54 1    
   106   52  175 1    
   107   53  176 1    
   108   53  177 1    
   109   53  178 1    
   110   54   55 am   BACKBONE|DICT|INTERRES
   111   54  179 1    
   112   55   56 2    
   113   55   57 1    
   114   57   58 1    
   115   57   59 1    
   116   57  180 1    
   117   58  181 1    
   118   58  182 1    
   119   58  183 1    
   120   59   60 am   BACKBONE|DICT|INTERRES
   121   59  184 1    
   122   60   61 2    
   123   60   62 1    
   124   62   63 1    
   125   62   64 1    
   126   62  185 1    
   127   63  186 1    
   128   63  187 1    
   129   63  188 1    
   130   64   65 am   BACKBONE|DICT|INTERRES
   131   64  189 1    
   132   65   66 2    
   133   67   68 2    
   134   67   69 am   BACKBONE|DICT|INTERRES
   135   69   70 1    
   136   69  190 1    
   137   70   71 1    
   138   70   72 1    
   139   70  191 1    
   140   71  192 1    
   141   71  193 1    
   142   71  194 1    
   143   72   73 2    
   144   72   74 am   BACKBONE|DICT|INTERRES
   145   74   75 1    
   146   74  195 1    
   147   75   76 1    
   148   75   77 1    
   149   75  196 1    
   150   76  197 1    
   151   76  198 1    
   152   76  199 1    
   153   77   78 2    
   154   77   79 am   BACKBONE|DICT|INTERRES
   155   79   80 1    
   156   79  200 1    
   157   80   81 1    
   158   80   82 1    
   159   80  201 1    
   160   81  202 1    
   161   81  203 1    
   162   81  204 1    
   163   82   83 2    
   164   82   84 am   BACKBONE|DICT|INTERRES
   165   84   85 1    
   166   84  205 1    
   167   85   86 1    
   168   85   87 1    
   169   85  206 1    
   170   86  207 1    
   171   86  208 1    
   172   86  209 1    
   173   87   88 2    
   174   87   89 am   BACKBONE|DICT|INTERRES
   175   89   90 1    
   176   89  210 1    
   177   90   91 1    
   178   90   92 1    
   179   90  211 1    
   180   91  212 1    
   181   91  213 1    
   182   91  214 1    
   183   92   93 2    
   184   92   94 am   BACKBONE|DICT|INTERRES
   185   94   95 1    
   186   94  215 1    
   187   95   96 1    
   188   95   97 1    
   189   95  216 1    
   190   96  217 1    
   191   96  218 1    
   192   96  219 1    
   193   97   98 2    
   194   97   99 am   BACKBONE|DICT|INTERRES
   195   99  100 1    
   196   99  220 1    
   197  100  101 1    
   198  100  102 1    
   199  100  221 1    
   200  101  222 1    
   201  101  223 1    
   202  101  224 1    
   203  102  103 2    
   204  102  104 am   BACKBONE|DICT|INTERRES
   205  104  105 1    
   206  104  225 1    
   207  105  106 1    
   208  105  107 1    
   209  105  226 1    
   210  106  227 1    
   211  106  228 1    
   212  106  229 1    
   213  107  108 2    
   214  107  109 am   BACKBONE|DICT|INTERRES
   215  109  110 1    
   216  109  230 1    
   217  110  111 1    
   218  110  112 1    
   219  110  231 1    
   220  111  232 1    
   221  111  233 1    
   222  111  234 1    
   223  112  113 2    
   224  112  114 am   BACKBONE|DICT|INTERRES
   225  114  115 1    
   226  114  235 1    
   227  115  116 1    
   228  115  117 1    
   229  115  236 1    
   230  116  237 1    
   231  116  238 1    
   232  116  239 1    
   233  117  118 2    
   234  117  119 am   BACKBONE|DICT|INTERRES
   235  119  120 1    
   236  119  240 1    
   237  120  121 1    
   238  120  124 1    
   239  120  241 1    
   240  121  122 am   BACKBONE|DICT|INTERRES
   241  121  123 2    
   242  122  242 1    
   243  122  243 1    
   244  124  125 1    
   245  124  244 1    
   246  124  245 1    
   247  125  126 1    
   248  126  246 1    
   249  126  247 1    
@<TRIPOS>SUBSTRUCTURE
     1 UNK         1 GROUP             0       ****    0 ROOT    
