@<TRIPOS>MOLECULE
3R540
247   249    1
SMALL
USER_CHARGES


@<TRIPOS>ATOM
      1 CA         -0.9853  -13.0964  -51.2430 C.3       0 UNK        -0.1800 
      2 C           0.2014  -12.9202  -50.3075 C.2       0 UNK         0.5000 
      3 O           1.0383  -12.0475  -50.5361 O.2       0 UNK        -0.5000 
      4 N           0.2751  -13.7476  -49.2560 N.am      1 UNK        -0.5000 
      5 CA          1.3374  -13.7214  -48.2390 C.3       1 UNK         0.1400 
      6 C6          1.4556  -15.0911  -47.5095 C.3       23 UNK        -0.0398 
      7 S7          3.1175  -15.8387  -47.5850 S.3       23 UNK        -0.2404 
      8 C8          3.3738  -16.1481  -49.3630 C.3       23 UNK        -0.0205 
      9 C9          2.3883  -17.1444  -49.9580 C.ar      23 UNK        -0.0193 
     10 C10         1.3387  -16.6935  -50.7621 C.ar      23 UNK        -0.1150 
     11 C11         0.4732  -17.5986  -51.3795 C.ar      23 UNK        -0.0193 
     12 C12         0.6677  -18.9695  -51.1934 C.ar      23 UNK        -0.1150 
     13 C13         1.7180  -19.4388  -50.3956 C.ar      23 UNK        -0.0193 
     14 C14         2.5676  -18.5185  -49.7714 C.ar      23 UNK        -0.1150 
     15 C15         1.9905  -20.9338  -50.2684 C.3       23 UNK        -0.0205 
     16 S16         0.5155  -21.9041  -49.8262 S.3       23 UNK        -0.2404 
     17 C17         0.2271  -21.3826  -48.1018 C.3       23 UNK        -0.0398 
     18 CA         -0.2130  -22.5707  -47.2140 C.3       11 UNK         0.1400 
     19 N           0.0956  -22.3521  -45.7996 N.am      11 UNK        -0.5000 
     20 C           0.0329  -23.3039  -44.8579 C.2       10 UNK         0.5000 
     21 O          -0.2772  -24.4713  -45.0885 O.2       10 UNK        -0.5000 
     22 CA          0.3057  -22.8722  -43.4077 C.3       10 UNK         0.1400 
     23 CB          1.8112  -22.7008  -43.1590 C.3       10 UNK        -0.1800 
     24 N          -0.4068  -21.6451  -43.0532 N.am      10 UNK        -0.5000 
     25 C          -1.7427  -21.5308  -43.0333 C.2       9 UNK         0.5000 
     26 O          -2.5112  -22.4675  -43.2547 O.2       9 UNK        -0.5000 
     27 CA         -2.3181  -20.1291  -42.7641 C.3       9 UNK         0.1400 
     28 CB         -2.3269  -19.8252  -41.2588 C.3       9 UNK        -0.1800 
     29 N          -1.6013  -19.0704  -43.4771 N.am      9 UNK        -0.5000 
     30 C          -1.5234  -18.9625  -44.8120 C.2       8 UNK         0.5000 
     31 O          -2.0655  -19.7392  -45.5960 O.2       8 UNK        -0.5000 
     32 CA         -0.6465  -17.8257  -45.3663 C.3       8 UNK         0.1400 
     33 CB         -1.3656  -16.4742  -45.2263 C.3       8 UNK        -0.1800 
     34 N           0.6644  -17.7765  -44.7165 N.am      8 UNK        -0.5000 
     35 C           1.5567  -18.7790  -44.7361 C.2       7 UNK         0.5000 
     36 O           1.4002  -19.8237  -45.3673 O.2       7 UNK        -0.5000 
     37 CA          2.8022  -18.6214  -43.8490 C.3       7 UNK         0.1400 
     38 CB          3.8936  -17.8124  -44.5616 C.3       7 UNK        -0.1800 
     39 N           2.4787  -18.0017  -42.5644 N.am      7 UNK        -0.5000 
     40 C           1.7919  -18.6114  -41.5877 C.2       6 UNK         0.5000 
     41 O           1.3925  -19.7732  -41.6557 O.2       6 UNK        -0.5000 
     42 CA          1.4598  -17.7668  -40.3442 C.3       6 UNK         0.1400 
     43 CB          2.6495  -17.7369  -39.3734 C.3       6 UNK        -0.1800 
     44 N           1.0759  -16.3971  -40.6868 N.am      6 UNK        -0.5000 
     45 C          -0.0396  -16.0717  -41.3547 C.2       5 UNK         0.5000 
     46 O          -0.8870  -16.8909  -41.7071 O.2       5 UNK        -0.5000 
     47 CA         -0.2157  -14.5904  -41.7333 C.3       5 UNK         0.1400 
     48 CB         -0.9368  -13.8261  -40.6140 C.3       5 UNK        -0.1800 
     49 N           1.0425  -13.9109  -42.0474 N.am      5 UNK        -0.5000 
     50 C           1.8753  -14.2390  -43.0435 C.2       4 UNK         0.5000 
     51 O           1.7001  -15.2108  -43.7800 O.2       4 UNK        -0.5000 
     52 CA          3.0829  -13.3026  -43.2493 C.3       4 UNK         0.1400 
     53 CB          4.0679  -13.8147  -44.3131 C.3       4 UNK        -0.1800 
     54 N           2.6242  -11.9661  -43.6247 N.am      4 UNK        -0.5000 
     55 C           2.1795  -11.0411  -42.7619 C.2       3 UNK         0.5000 
     56 O           2.1964  -11.1944  -41.5393 O.2       3 UNK        -0.5000 
     57 CA          1.5767   -9.7507  -43.3485 C.3       3 UNK         0.1400 
     58 CB          2.6264   -8.6295  -43.3720 C.3       3 UNK        -0.1800 
     59 N           1.0244   -9.9138  -44.6940 N.am      3 UNK        -0.5000 
     60 C          -0.0148  -10.6935  -45.0246 C.2       2 UNK         0.5000 
     61 O          -0.6483  -11.3735  -44.2163 O.2       2 UNK        -0.5000 
     62 CA         -0.4181  -10.7237  -46.5126 C.3       2 UNK         0.1400 
     63 CB          0.1021   -9.5162  -47.3245 C.3       2 UNK        -0.1800 
     64 N          -0.0382  -11.9701  -47.1833 N.am      2 UNK        -0.5000 
     65 C           1.1818  -12.5282  -47.2636 C.2       1 UNK         0.5000 
     66 O           2.1665  -12.1159  -46.6484 O.2       1 UNK        -0.5000 
     67 C          -1.6964  -22.9348  -47.4369 C.2       11 UNK         0.5000 
     68 O          -1.9856  -23.8132  -48.2508 O.2       11 UNK        -0.5000 
     69 N          -2.6116  -22.2879  -46.7004 N.am      12 UNK        -0.5000 
     70 CA         -4.0458  -22.5866  -46.6973 C.3       12 UNK         0.1400 
     71 CB         -4.7995  -21.5547  -45.8464 C.3       12 UNK        -0.1800 
     72 C          -4.3556  -24.0199  -46.2321 C.2       12 UNK         0.5000 
     73 O          -5.2062  -24.6785  -46.8297 O.2       12 UNK        -0.5000 
     74 N          -3.6394  -24.4876  -45.2029 N.am      13 UNK        -0.5000 
     75 CA         -3.7345  -25.8535  -44.6959 C.3       13 UNK         0.1400 
     76 CB         -3.0974  -25.9229  -43.2991 C.3       13 UNK        -0.1800 
     77 C          -3.0936  -26.8844  -45.6445 C.2       13 UNK         0.5000 
     78 O          -3.7059  -27.9169  -45.9202 O.2       13 UNK        -0.5000 
     79 N          -1.8669  -26.6028  -46.1028 N.am      14 UNK        -0.5000 
     80 CA         -1.0325  -27.5521  -46.8387 C.3       14 UNK         0.1400 
     81 CB          0.4432  -27.1522  -46.6830 C.3       14 UNK        -0.1800 
     82 C          -1.3819  -27.6844  -48.3301 C.2       14 UNK         0.5000 
     83 O          -1.2934  -28.7912  -48.8641 O.2       14 UNK        -0.5000 
     84 N          -1.7188  -26.5677  -48.9875 N.am      15 UNK        -0.5000 
     85 CA         -1.7907  -26.4722  -50.4486 C.3       15 UNK         0.1400 
     86 CB         -0.4658  -25.8785  -50.9647 C.3       15 UNK        -0.1800 
     87 C          -2.9998  -25.6601  -50.9412 C.2       15 UNK         0.5000 
     88 O          -3.0139  -25.2577  -52.1057 O.2       15 UNK        -0.5000 
     89 N          -3.9775  -25.3983  -50.0597 N.am      16 UNK        -0.5000 
     90 CA         -5.1785  -24.5872  -50.3086 C.3       16 UNK         0.1400 
     91 CB         -6.1452  -25.3272  -51.2559 C.3       16 UNK        -0.1800 
     92 C          -4.8511  -23.1505  -50.7757 C.2       16 UNK         0.5000 
     93 O          -5.5684  -22.5889  -51.6055 O.2       16 UNK        -0.5000 
     94 N          -3.7496  -22.6010  -50.2391 N.am      17 UNK        -0.5000 
     95 CA         -3.1566  -21.3032  -50.5649 C.3       17 UNK         0.1400 
     96 CB         -4.0303  -20.1450  -50.0425 C.3       17 UNK        -0.1800 
     97 C          -2.7566  -21.2284  -52.0522 C.2       17 UNK         0.5000 
     98 O          -3.2446  -20.3825  -52.8030 O.2       17 UNK        -0.5000 
     99 N          -1.8934  -22.1792  -52.4417 N.am      18 UNK        -0.5000 
    100 CA        -1.3713  -22.4158  -53.7909 C.3       18 UNK         0.1400 
    101 CB        -0.4531  -21.2568  -54.2326 C.3       18 UNK        -0.1800 
    102 C         -2.4825  -22.7378  -54.8117 C.2       18 UNK         0.5000 
    103 O         -2.4524  -22.2372  -55.9374 O.2       18 UNK        -0.5000 
    104 N         -3.4562  -23.5549  -54.3822 N.am      19 UNK        -0.5000 
    105 CA        -4.6520  -24.0480  -55.0815 C.3       19 UNK         0.1400 
    106 CB        -4.2615  -24.9171  -56.2911 C.3       19 UNK        -0.1800 
    107 C         -5.6816  -22.9725  -55.4889 C.2       19 UNK         0.5000 
    108 O         -6.8840  -23.2124  -55.3787 O.2       19 UNK        -0.5000 
    109 N         -5.2033  -21.8164  -55.9560 N.am      20 UNK        -0.5000 
    110 CA        -5.9872  -20.6904  -56.4605 C.3       20 UNK         0.1400 
    111 CB        -5.1317  -19.9475  -57.5012 C.3       20 UNK        -0.1800 
    112 C         -6.4618  -19.7234  -55.3577 C.2       20 UNK         0.5000 
    113 O         -7.0230  -18.6771  -55.6876 O.2       20 UNK        -0.5000 
    114 N         -6.1940  -20.0450  -54.0829 N.am      21 UNK        -0.5000 
    115 CA        -6.4554  -19.2240  -52.8937 C.3       21 UNK         0.1400 
    116 CB        -7.9703  -19.1065  -52.6282 C.3       21 UNK        -0.1800 
    117 C         -5.7371  -17.8574  -52.9562 C.2       21 UNK         0.5000 
    118 O         -6.3174  -16.8268  -52.6103 O.2       21 UNK        -0.5000 
    119 N         -4.4977  -17.8874  -53.4610 N.am      22 UNK        -0.5000 
    120 CA        -3.6534  -16.7406  -53.8307 C.3       22 UNK         0.1400 
    121 C         -4.2204  -15.8356  -54.9714 C.2       22 UNK         0.5000 
    122 N         -5.2612  -16.2289  -55.6971 N.am      22 UNK        -0.7600 
    123 O         -3.6811  -14.7646  -55.2366 O.2       22 UNK        -0.5000 
    124 C124       -3.1617  -15.9159  -52.6073 C.3       23 UNK        -0.0398 
    125 S125       -2.2040  -16.8900  -51.3940 S.3       23 UNK        -0.2404 
    126 C126       -0.6341  -17.0920  -52.2893 C.3       23 UNK        -0.0205 
    127 H127       -1.4923  -12.1431  -51.3922 H         1 UNK         0.0600 
    128 H128       -1.7106  -13.8059  -50.8448 H         1 UNK         0.0600 
    129 H129       -0.6465  -13.4599  -52.2130 H         1 UNK         0.0600 
    130 H130       -0.4418  -14.4483  -49.1311 H         1 UNK         0.3000 
    131 H131        2.2727  -13.5268  -48.7662 H         1 UNK         0.0600 
    132 H132        1.2081  -15.0009  -46.4516 H         1 UNK         0.0800 
    133 H133        0.7494  -15.8221  -47.9056 H         1 UNK         0.0800 
    134 H134        3.3421  -15.2060  -49.9110 H         1 UNK         0.0800 
    135 H135        4.3862  -16.5307  -49.4993 H         1 UNK         0.0800 
    136 H136        1.2127  -15.6356  -50.9344 H         1 UNK         0.1150 
    137 H137        0.0111  -19.6715  -51.6865 H         1 UNK         0.1150 
    138 H138        3.3929  -18.8686  -49.1673 H         1 UNK         0.1150 
    139 H139        2.3654  -21.2951  -51.2267 H         1 UNK         0.0800 
    140 H140        2.7781  -21.1294  -49.5390 H         1 UNK         0.0800 
    141 H141       -0.4946  -20.5638  -48.0755 H         1 UNK         0.0800 
    142 H142        1.1610  -20.9678  -47.7215 H         1 UNK         0.0800 
    143 H143        0.3723  -23.4436  -47.5127 H         1 UNK         0.0600 
    144 H144        0.3890  -21.4142  -45.5366 H         1 UNK         0.3000 
    145 H145       -0.0558  -23.6672  -42.7521 H         1 UNK         0.0600 
    146 H146        2.0138  -22.4712  -42.1128 H         1 UNK         0.0600 
    147 H147        2.3530  -23.6157  -43.4017 H         1 UNK         0.0600 
    148 H148        2.2327  -21.8992  -43.7652 H         1 UNK         0.0600 
    149 H149        0.1620  -20.8423  -42.8034 H         1 UNK         0.3000 
    150 H150       -3.3514  -20.1224  -43.1161 H         1 UNK         0.0600 
    151 H151       -2.8649  -20.5968  -40.7068 H         1 UNK         0.0600 
    152 H152       -2.8191  -18.8747  -41.0524 H         1 UNK         0.0600 
    153 H153       -1.3163  -19.7730  -40.8525 H         1 UNK         0.0600 
    154 H154       -1.1578  -18.3597  -42.9012 H         1 UNK         0.3000 
    155 H155       -0.4795  -18.0153  -46.4288 H         1 UNK         0.0600 
    156 H156       -2.3013  -16.4763  -45.7865 H         1 UNK         0.0600 
    157 H157       -0.7642  -15.6516  -45.6065 H         1 UNK         0.0600 
    158 H158       -1.6110  -16.2507  -44.1890 H         1 UNK         0.0600 
    159 H159        0.9030  -16.9266  -44.2139 H         1 UNK         0.3000 
    160 H160        3.2013  -19.6189  -43.6542 H         1 UNK         0.0600 
    161 H161        3.5570  -16.8033  -44.7933 H         1 UNK         0.0600 
    162 H162        4.1753  -18.2849  -45.5035 H         1 UNK         0.0600 
    163 H163        4.7937  -17.7362  -43.9517 H         1 UNK         0.0600 
    164 H164        2.7105  -17.0249  -42.4618 H         1 UNK         0.3000 
    165 H165        0.6165  -18.2395  -39.8361 H         1 UNK         0.0600 
    166 H166        2.3966  -17.2042  -38.4565 H         1 UNK         0.0600 
    167 H167        2.9460  -18.7476  -39.0895 H         1 UNK         0.0600 
    168 H168        3.5204  -17.2511  -39.8152 H         1 UNK         0.0600 
    169 H169        1.7182  -15.6608  -40.4341 H         1 UNK         0.3000 
    170 H170       -0.8398  -14.5505  -42.6279 H         1 UNK         0.0600 
    171 H171       -1.8915  -14.2954  -40.3725 H         1 UNK         0.0600 
    172 H172       -0.3435  -13.7961  -39.6993 H         1 UNK         0.0600 
    173 H173       -1.1470  -12.7986  -40.9122 H         1 UNK         0.0600 
    174 H174        1.2532  -13.0717  -41.5192 H         1 UNK         0.3000 
    175 H175        3.6237  -13.2470  -42.3023 H         1 UNK         0.0600 
    176 H176        3.5844  -13.9531  -45.2797 H         1 UNK         0.0600 
    177 H177        4.8959  -13.1196  -44.4514 H         1 UNK         0.0600 
    178 H178        4.4965  -14.7721  -44.0171 H         1 UNK         0.0600 
    179 H179        2.5189  -11.7954  -44.6199 H         1 UNK         0.3000 
    180 H180        0.7617   -9.4435  -42.6900 H         1 UNK         0.0600 
    181 H181        3.4568   -8.8703  -44.0369 H         1 UNK         0.0600 
    182 H182        3.0406   -8.4608  -42.3770 H         1 UNK         0.0600 
    183 H183        2.1908   -7.6870  -43.7046 H         1 UNK         0.0600 
    184 H184        1.4962   -9.4160  -45.4349 H         1 UNK         0.3000 
    185 H185       -1.5081  -10.6823  -46.5302 H         1 UNK         0.0600 
    186 H186       -0.1887   -8.5726  -46.8607 H         1 UNK         0.0600 
    187 H187        1.1880   -9.5209  -47.4247 H         1 UNK         0.0600 
    188 H188       -0.3163   -9.5191  -48.3312 H         1 UNK         0.0600 
    189 H189       -0.7761  -12.4116  -47.7123 H         1 UNK         0.3000 
    190 H190       -2.3106  -21.5201  -46.1044 H         1 UNK         0.3000 
    191 H191       -4.4128  -22.4885  -47.7172 H         1 UNK         0.0600 
    192 H192       -4.6475  -20.5445  -46.2269 H         1 UNK         0.0600 
    193 H193       -5.8728  -21.7479  -45.8599 H         1 UNK         0.0600 
    194 H194       -4.4770  -21.5736  -44.8063 H         1 UNK         0.0600 
    195 H195       -2.9896  -23.8655  -44.7338 H         1 UNK         0.3000 
    196 H196       -4.7917  -26.1078  -44.5929 H         1 UNK         0.0600 
    197 H197       -3.1668  -26.9304  -42.8870 H         1 UNK         0.0600 
    198 H198       -3.6013  -25.2509  -42.6041 H         1 UNK         0.0600 
    199 H199       -2.0425  -25.6476  -43.3203 H         1 UNK         0.0600 
    200 H200       -1.4126  -25.7437  -45.7997 H         1 UNK         0.3000 
    201 H201       -1.1545  -28.5383  -46.3850 H         1 UNK         0.0600 
    202 H202        0.7366  -27.1272  -45.6334 H         1 UNK         0.0600 
    203 H203        0.6397  -26.1673  -47.1090 H         1 UNK         0.0600 
    204 H204        1.0981  -27.8644  -47.1867 H         1 UNK         0.0600 
    205 H205       -1.7766  -25.6846  -48.4858 H         1 UNK         0.3000 
    206 H206       -1.9125  -27.4640  -50.8878 H         1 UNK         0.0600 
    207 H207        0.3846  -26.4877  -50.6583 H         1 UNK         0.0600 
    208 H208       -0.4474  -25.8279  -52.0540 H         1 UNK         0.0600 
    209 H209       -0.3072  -24.8691  -50.5835 H         1 UNK         0.0600 
    210 H210       -3.8736  -25.7539  -49.1195 H         1 UNK         0.3000 
    211 H211       -5.6887  -24.4779  -49.3526 H         1 UNK         0.0600 
    212 H212       -5.7148  -25.4695  -52.2460 H         1 UNK         0.0600 
    213 H213       -7.0769  -24.7739  -51.3795 H         1 UNK         0.0600 
    214 H214       -6.4039  -26.3096  -50.8613 H         1 UNK         0.0600 
    215 H215       -3.2124  -23.1709  -49.5912 H         1 UNK         0.3000 
    216 H216       -2.2213  -21.2399  -50.0130 H         1 UNK         0.0600 
    217 H217       -3.7741  -19.1972  -50.5142 H         1 UNK         0.0600 
    218 H218       -3.8840  -20.0166  -48.9698 H         1 UNK         0.0600 
    219 H219       -5.0923  -20.3213  -50.1943 H         1 UNK         0.0600 
    220 H220       -1.5924  -22.8462  -51.7459 H         1 UNK         0.3000 
    221 H221       -0.7560  -23.3144  -53.7265 H         1 UNK         0.0600 
    222 H222       -0.9967  -20.3155  -54.3176 H         1 UNK         0.0600 
    223 H223        0.3634  -21.1132  -53.5255 H         1 UNK         0.0600 
    224 H224       -0.0016  -21.4625  -55.2037 H         1 UNK         0.0600 
    225 H225       -3.3494  -23.9317  -53.4432 H         1 UNK         0.3000 
    226 H226       -5.1563  -24.6978  -54.3663 H         1 UNK         0.0600 
    227 H227       -3.6031  -25.7330  -55.9926 H         1 UNK         0.0600 
    228 H228       -5.1442  -25.3634  -56.7506 H         1 UNK         0.0600 
    229 H229       -3.7514  -24.3381  -57.0615 H         1 UNK         0.0600 
    230 H230       -4.1907  -21.7321  -56.0178 H         1 UNK         0.3000 
    231 H231       -6.8787  -21.0733  -56.9611 H         1 UNK         0.0600 
    232 H232       -4.2366  -19.5172  -57.0497 H         1 UNK         0.0600 
    233 H233       -5.6898  -19.1335  -57.9656 H         1 UNK         0.0600 
    234 H234       -4.8144  -20.6168  -58.3011 H         1 UNK         0.0600 
    235 H235       -5.6928  -20.9062  -53.9105 H         1 UNK         0.3000 
    236 H236       -6.0200  -19.7669  -52.0603 H         1 UNK         0.0600 
    237 H237       -8.4371  -20.0902  -52.5772 H         1 UNK         0.0600 
    238 H238       -8.1614  -18.6075  -51.6776 H         1 UNK         0.0600 
    239 H239       -8.4766  -18.5339  -53.4057 H         1 UNK         0.0600 
    240 H240       -4.0803  -18.8020  -53.6074 H         1 UNK         0.3000 
    241 H241       -2.7718  -17.1911  -54.2857 H         1 UNK         0.0600 
    242 H242       -5.5954  -15.6296  -56.4348 H         1 UNK         0.3800 
    243 H243       -5.7496  -17.0956  -55.5043 H         1 UNK         0.3800 
    244 H244       -2.5351  -15.0833  -52.9294 H         1 UNK         0.0800 
    245 H245       -4.0100  -15.4652  -52.0910 H         1 UNK         0.0800 
    246 H246       -0.7771  -17.7896  -53.1158 H         1 UNK         0.0800 
    247 H247       -0.3394  -16.1409  -52.7352 H         1 UNK         0.0800 
@<TRIPOS>BOND
     1    1    2 1    
     2    1  127 1    
     3    1  128 1    
     4    1  129 1    
     5    2    3 2    
     6    2    4 am   BACKBONE|DICT|INTERRES
     7    4    5 1    
     8    4  130 1    
     9    5    6 1    
    10    5   65 1    
    11    5  131 1    
    12    6    7 1    
    13    6  132 1    
    14    6  133 1    
    15    7    8 1    
    16    8    9 1    
    17    8  134 1    
    18    8  135 1    
    19    9   10 ar   
    20    9   14 ar   
    21   10   11 ar   
    22   10  136 1    
    23   11   12 ar   
    24   11  126 1    
    25   12   13 ar   
    26   12  137 1    
    27   13   14 ar   
    28   13   15 1    
    29   14  138 1    
    30   15   16 1    
    31   15  139 1    
    32   15  140 1    
    33   16   17 1    
    34   17   18 1    
    35   17  141 1    
    36   17  142 1    
    37   18   19 1    
    38   18   67 1    
    39   18  143 1    
    40   19   20 am   BACKBONE|DICT|INTERRES
    41   19  144 1    
    42   20   21 2    
    43   20   22 1    
    44   22   23 1    
    45   22   24 1    
    46   22  145 1    
    47   23  146 1    
    48   23  147 1    
    49   23  148 1    
    50   24   25 am   BACKBONE|DICT|INTERRES
    51   24  149 1    
    52   25   26 2    
    53   25   27 1    
    54   27   28 1    
    55   27   29 1    
    56   27  150 1    
    57   28  151 1    
    58   28  152 1    
    59   28  153 1    
    60   29   30 am   BACKBONE|DICT|INTERRES
    61   29  154 1    
    62   30   31 2    
    63   30   32 1    
    64   32   33 1    
    65   32   34 1    
    66   32  155 1    
    67   33  156 1    
    68   33  157 1    
    69   33  158 1    
    70   34   35 am   BACKBONE|DICT|INTERRES
    71   34  159 1    
    72   35   36 2    
    73   35   37 1    
    74   37   38 1    
    75   37   39 1    
    76   37  160 1    
    77   38  161 1    
    78   38  162 1    
    79   38  163 1    
    80   39   40 am   BACKBONE|DICT|INTERRES
    81   39  164 1    
    82   40   41 2    
    83   40   42 1    
    84   42   43 1    
    85   42   44 1    
    86   42  165 1    
    87   43  166 1    
    88   43  167 1    
    89   43  168 1    
    90   44   45 am   BACKBONE|DICT|INTERRES
    91   44  169 1    
    92   45   46 2    
    93   45   47 1    
    94   47   48 1    
    95   47   49 1    
    96   47  170 1    
    97   48  171 1    
    98   48  172 1    
    99   48  173 1    
   100   49   50 am   BACKBONE|DICT|INTERRES
   101   49  174 1    
   102   50   51 2    
   103   50   52 1    
   104   52   53 1    
   105   52   54 1    
   106   52  175 1    
   107   53  176 1    
   108   53  177 1    
   109   53  178 1    
   110   54   55 am   BACKBONE|DICT|INTERRES
   111   54  179 1    
   112   55   56 2    
   113   55   57 1    
   114   57   58 1    
   115   57   59 1    
   116   57  180 1    
   117   58  181 1    
   118   58  182 1    
   119   58  183 1    
   120   59   60 am   BACKBONE|DICT|INTERRES
   121   59  184 1    
   122   60   61 2    
   123   60   62 1    
   124   62   63 1    
   125   62   64 1    
   126   62  185 1    
   127   63  186 1    
   128   63  187 1    
   129   63  188 1    
   130   64   65 am   BACKBONE|DICT|INTERRES
   131   64  189 1    
   132   65   66 2    
   133   67   68 2    
   134   67   69 am   BACKBONE|DICT|INTERRES
   135   69   70 1    
   136   69  190 1    
   137   70   71 1    
   138   70   72 1    
   139   70  191 1    
   140   71  192 1    
   141   71  193 1    
   142   71  194 1    
   143   72   73 2    
   144   72   74 am   BACKBONE|DICT|INTERRES
   145   74   75 1    
   146   74  195 1    
   147   75   76 1    
   148   75   77 1    
   149   75  196 1    
   150   76  197 1    
   151   76  198 1    
   152   76  199 1    
   153   77   78 2    
   154   77   79 am   BACKBONE|DICT|INTERRES
   155   79   80 1    
   156   79  200 1    
   157   80   81 1    
   158   80   82 1    
   159   80  201 1    
   160   81  202 1    
   161   81  203 1    
   162   81  204 1    
   163   82   83 2    
   164   82   84 am   BACKBONE|DICT|INTERRES
   165   84   85 1    
   166   84  205 1    
   167   85   86 1    
   168   85   87 1    
   169   85  206 1    
   170   86  207 1    
   171   86  208 1    
   172   86  209 1    
   173   87   88 2    
   174   87   89 am   BACKBONE|DICT|INTERRES
   175   89   90 1    
   176   89  210 1    
   177   90   91 1    
   178   90   92 1    
   179   90  211 1    
   180   91  212 1    
   181   91  213 1    
   182   91  214 1    
   183   92   93 2    
   184   92   94 am   BACKBONE|DICT|INTERRES
   185   94   95 1    
   186   94  215 1    
   187   95   96 1    
   188   95   97 1    
   189   95  216 1    
   190   96  217 1    
   191   96  218 1    
   192   96  219 1    
   193   97   98 2    
   194   97   99 am   BACKBONE|DICT|INTERRES
   195   99  100 1    
   196   99  220 1    
   197  100  101 1    
   198  100  102 1    
   199  100  221 1    
   200  101  222 1    
   201  101  223 1    
   202  101  224 1    
   203  102  103 2    
   204  102  104 am   BACKBONE|DICT|INTERRES
   205  104  105 1    
   206  104  225 1    
   207  105  106 1    
   208  105  107 1    
   209  105  226 1    
   210  106  227 1    
   211  106  228 1    
   212  106  229 1    
   213  107  108 2    
   214  107  109 am   BACKBONE|DICT|INTERRES
   215  109  110 1    
   216  109  230 1    
   217  110  111 1    
   218  110  112 1    
   219  110  231 1    
   220  111  232 1    
   221  111  233 1    
   222  111  234 1    
   223  112  113 2    
   224  112  114 am   BACKBONE|DICT|INTERRES
   225  114  115 1    
   226  114  235 1    
   227  115  116 1    
   228  115  117 1    
   229  115  236 1    
   230  116  237 1    
   231  116  238 1    
   232  116  239 1    
   233  117  118 2    
   234  117  119 am   BACKBONE|DICT|INTERRES
   235  119  120 1    
   236  119  240 1    
   237  120  121 1    
   238  120  124 1    
   239  120  241 1    
   240  121  122 am   BACKBONE|DICT|INTERRES
   241  121  123 2    
   242  122  242 1    
   243  122  243 1    
   244  124  125 1    
   245  124  244 1    
   246  124  245 1    
   247  125  126 1    
   248  126  246 1    
   249  126  247 1    
@<TRIPOS>SUBSTRUCTURE
     1 UNK         1 GROUP             0       ****    0 ROOT    
