@<TRIPOS>MOLECULE
3R540
247   249    1
SMALL
USER_CHARGES


@<TRIPOS>ATOM
      1 CA         -0.6879  -15.2963  -52.7872 C.3       0 UNK        -0.1800 
      2 C          -1.4594  -14.3857  -51.8482 C.2       0 UNK         0.5000 
      3 O          -2.6108  -14.0514  -52.1260 O.2       0 UNK        -0.5000 
      4 N          -0.8286  -13.9851  -50.7371 N.am      1 UNK        -0.5000 
      5 CA         -1.4209  -13.1199  -49.7113 C.3       1 UNK         0.1400 
      6 C6         -0.3413  -12.4199  -48.8494 C.3       23 UNK        -0.0398 
      7 S7          0.6596  -13.5213  -47.7859 S.3       23 UNK        -0.2404 
      8 C8          2.1123  -13.8827  -48.8377 C.3       23 UNK        -0.0205 
      9 C9          2.0423  -15.1990  -49.6159 C.ar      23 UNK        -0.0193 
     10 C10         2.8389  -15.3556  -50.7577 C.ar      23 UNK        -0.1150 
     11 C11         2.8758  -16.5746  -51.4440 C.ar      23 UNK        -0.0193 
     12 C12         2.1015  -17.6403  -50.9858 C.ar      23 UNK        -0.1150 
     13 C13         1.2810  -17.4939  -49.8696 C.ar      23 UNK        -0.0193 
     14 C14         1.2591  -16.2787  -49.1829 C.ar      23 UNK        -0.1150 
     15 C15         0.4453  -18.6676  -49.4015 C.3       23 UNK        -0.0205 
     16 S16         1.3685  -19.6712  -48.2010 S.3       23 UNK        -0.2404 
     17 C17         0.5141  -19.2291  -46.6535 C.3       23 UNK        -0.0398 
     18 CA         -0.7371  -20.1065  -46.4713 C.3       11 UNK         0.1400 
     19 N          -0.4228  -21.5329  -46.3919 N.am      11 UNK        -0.5000 
     20 C          -1.2898  -22.5114  -46.6735 C.2       10 UNK         0.5000 
     21 O          -2.4523  -22.3081  -47.0171 O.2       10 UNK        -0.5000 
     22 CA         -0.7804  -23.9542  -46.5201 C.3       10 UNK         0.1400 
     23 CB         -0.0601  -24.4006  -47.8009 C.3       10 UNK        -0.1800 
     24 N           0.1171  -24.1088  -45.3747 N.am      10 UNK        -0.5000 
     25 C          -0.2528  -23.9406  -44.0969 C.2       9 UNK         0.5000 
     26 O          -1.4080  -23.7035  -43.7472 O.2       9 UNK        -0.5000 
     27 CA          0.8651  -23.9878  -43.0399 C.3       9 UNK         0.1400 
     28 CB          1.0785  -25.4255  -42.5441 C.3       9 UNK        -0.1800 
     29 N           2.1395  -23.4436  -43.5188 N.am      9 UNK        -0.5000 
     30 C           2.3361  -22.1725  -43.8935 C.2       8 UNK         0.5000 
     31 O           1.4452  -21.3184  -43.9212 O.2       8 UNK        -0.5000 
     32 CA          3.7553  -21.8146  -44.3695 C.3       8 UNK         0.1400 
     33 CB          3.8139  -21.7803  -45.9031 C.3       8 UNK        -0.1800 
     34 N           4.1946  -20.5226  -43.8483 N.am      8 UNK        -0.5000 
     35 C           4.4563  -20.2634  -42.5621 C.2       7 UNK         0.5000 
     36 O           4.4008  -21.1183  -41.6767 O.2       7 UNK        -0.5000 
     37 CA          4.8377  -18.8203  -42.1778 C.3       7 UNK         0.1400 
     38 CB          6.3576  -18.6806  -41.9653 C.3       7 UNK        -0.1800 
     39 N           4.3200  -17.7708  -43.0669 N.am      7 UNK        -0.5000 
     40 C           4.6851  -17.4495  -44.3181 C.2       6 UNK         0.5000 
     41 O           5.5119  -18.0898  -44.9668 O.2       6 UNK        -0.5000 
     42 CA          3.9988  -16.2305  -44.9765 C.3       6 UNK         0.1400 
     43 CB          3.1760  -16.6652  -46.1954 C.3       6 UNK        -0.1800 
     44 N           3.1153  -15.4944  -44.0709 N.am      6 UNK        -0.5000 
     45 C           3.5207  -14.6611  -43.1017 C.2       5 UNK         0.5000 
     46 O           4.6960  -14.3388  -42.9277 O.2       5 UNK        -0.5000 
     47 CA          2.4375  -14.1288  -42.1388 C.3       5 UNK         0.1400 
     48 CB          2.0122  -12.7096  -42.5455 C.3       5 UNK        -0.1800 
     49 N           1.2409  -14.9732  -42.0628 N.am      5 UNK        -0.5000 
     50 C           1.2015  -16.2593  -41.6829 C.2       4 UNK         0.5000 
     51 O           2.1857  -16.8744  -41.2746 O.2       4 UNK        -0.5000 
     52 CA         -0.1448  -16.9993  -41.8220 C.3       4 UNK         0.1400 
     53 CB         -0.7469  -17.2894  -40.4388 C.3       4 UNK        -0.1800 
     54 N          -1.1371  -16.2845  -42.6314 N.am      4 UNK        -0.5000 
     55 C          -1.0461  -16.0639  -43.9493 C.2       3 UNK         0.5000 
     56 O          -0.0983  -16.4363  -44.6466 O.2       3 UNK        -0.5000 
     57 CA         -2.1722  -15.2222  -44.5601 C.3       3 UNK         0.1400 
     58 CB         -1.8614  -13.7241  -44.4058 C.3       3 UNK        -0.1800 
     59 N          -2.3016  -15.5271  -45.9785 N.am      3 UNK        -0.5000 
     60 C          -3.4481  -15.8195  -46.6026 C.2       2 UNK         0.5000 
     61 O          -4.5447  -15.8614  -46.0414 O.2       2 UNK        -0.5000 
     62 CA         -3.3403  -16.0957  -48.1173 C.3       2 UNK         0.1400 
     63 CB         -4.7082  -16.1037  -48.8334 C.3       2 UNK        -0.1800 
     64 N          -2.4177  -15.1848  -48.8065 N.am      2 UNK        -0.5000 
     65 C          -2.4862  -13.8422  -48.8553 C.2       1 UNK         0.5000 
     66 O          -3.3436  -13.1710  -48.2795 O.2       1 UNK        -0.5000 
     67 C          -1.6009  -19.6554  -45.2853 C.2       11 UNK         0.5000 
     68 O          -2.5419  -18.8900  -45.4950 O.2       11 UNK        -0.5000 
     69 N          -1.3329  -20.2074  -44.0923 N.am      12 UNK        -0.5000 
     70 CA         -2.1913  -20.0815  -42.9113 C.3       12 UNK         0.1400 
     71 CB         -1.4982  -20.7275  -41.7028 C.3       12 UNK        -0.1800 
     72 C          -3.5967  -20.6804  -43.1325 C.2       12 UNK         0.5000 
     73 O          -4.5777  -20.1271  -42.6373 O.2       12 UNK        -0.5000 
     74 N          -3.6764  -21.7492  -43.9373 N.am      13 UNK        -0.5000 
     75 CA         -4.9048  -22.3672  -44.4418 C.3       13 UNK         0.1400 
     76 CB         -4.6459  -23.8655  -44.6812 C.3       13 UNK        -0.1800 
     77 C          -5.4600  -21.6629  -45.7034 C.2       13 UNK         0.5000 
     78 O          -6.0437  -22.3231  -46.5645 O.2       13 UNK        -0.5000 
     79 N          -5.2775  -20.3376  -45.7939 N.am      14 UNK        -0.5000 
     80 CA         -5.7956  -19.4288  -46.8201 C.3       14 UNK         0.1400 
     81 CB         -7.3307  -19.3157  -46.7129 C.3       14 UNK        -0.1800 
     82 C          -5.3210  -19.7750  -48.2456 C.2       14 UNK         0.5000 
     83 O          -6.1355  -19.8425  -49.1663 O.2       14 UNK        -0.5000 
     84 N          -4.0075  -19.9979  -48.3954 N.am      15 UNK        -0.5000 
     85 CA         -3.3202  -20.3818  -49.6380 C.3       15 UNK         0.1400 
     86 CB         -3.3272  -19.2235  -50.6579 C.3       15 UNK        -0.1800 
     87 C          -3.8670  -21.7026  -50.2156 C.2       15 UNK         0.5000 
     88 O          -4.2271  -21.7692  -51.3940 O.2       15 UNK        -0.5000 
     89 N          -3.9258  -22.7124  -49.3371 N.am      16 UNK        -0.5000 
     90 CA         -4.4599  -24.0589  -49.5371 C.3       16 UNK         0.1400 
     91 CB         -3.5663  -24.8599  -50.5062 C.3       16 UNK        -0.1800 
     92 C          -5.9495  -24.0369  -49.9316 C.2       16 UNK         0.5000 
     93 O          -6.3346  -24.6350  -50.9357 O.2       16 UNK        -0.5000 
     94 N          -6.7523  -23.3235  -49.1281 N.am      17 UNK        -0.5000 
     95 CA         -8.1919  -23.0959  -49.2851 C.3       17 UNK         0.1400 
     96 CB         -8.9782  -24.4039  -49.0586 C.3       17 UNK        -0.1800 
     97 C          -8.5370  -22.3975  -50.6169 C.2       17 UNK         0.5000 
     98 O          -9.4035  -22.8623  -51.3601 O.2       17 UNK        -0.5000 
     99 N          -7.8315  -21.2900  -50.8866 N.am      18 UNK        -0.5000 
    100 CA        -7.9372  -20.4263  -52.0652 C.3       18 UNK         0.1400 
    101 CB        -9.3176  -19.7390  -52.1239 C.3       18 UNK        -0.1800 
    102 C         -7.5489  -21.1197  -53.3888 C.2       18 UNK         0.5000 
    103 O         -8.0334  -20.7261  -54.4514 O.2       18 UNK        -0.5000 
    104 N         -6.6526  -22.1139  -53.3158 N.am      19 UNK        -0.5000 
    105 CA        -6.0700  -22.7887  -54.4797 C.3       19 UNK         0.1400 
    106 CB        -5.5827  -24.1838  -54.0667 C.3       19 UNK        -0.1800 
    107 C         -4.9222  -21.9843  -55.1228 C.2       19 UNK         0.5000 
    108 O         -4.4991  -22.3281  -56.2270 O.2       19 UNK        -0.5000 
    109 N         -4.4514  -20.9380  -54.4263 N.am      20 UNK        -0.5000 
    110 CA        -3.3704  -20.0239  -54.7984 C.3       20 UNK         0.1400 
    111 CB        -3.6778  -19.2773  -56.1138 C.3       20 UNK        -0.1800 
    112 C         -2.0084  -20.7395  -54.8002 C.2       20 UNK         0.5000 
    113 O         -1.3310  -20.8067  -55.8280 O.2       20 UNK        -0.5000 
    114 N         -1.6277  -21.2421  -53.6163 N.am      21 UNK        -0.5000 
    115 CA        -0.3763  -21.9549  -53.3201 C.3       21 UNK         0.1400 
    116 CB        -0.3753  -22.3343  -51.8293 C.3       21 UNK        -0.1800 
    117 C          0.9289  -21.2101  -53.6933 C.2       21 UNK         0.5000 
    118 O          1.9742  -21.8505  -53.8089 O.2       21 UNK        -0.5000 
    119 N          0.8458  -19.8884  -53.8971 N.am      22 UNK        -0.5000 
    120 CA         1.8979  -19.0450  -54.4903 C.3       22 UNK         0.1400 
    121 C          2.2112  -19.3624  -55.9852 C.2       22 UNK         0.5000 
    122 N          1.3149  -19.9972  -56.7330 N.am      22 UNK        -0.7600 
    123 O          3.2914  -19.0414  -56.4722 O.2       22 UNK        -0.5000 
    124 C124        1.5497  -17.5453  -54.2936 C.3       23 UNK        -0.0398 
    125 S125        2.9731  -16.3982  -54.2407 S.3       23 UNK        -0.2404 
    126 C126        3.7843  -16.7727  -52.6494 C.3       23 UNK        -0.0205 
    127 H127        0.3737  -15.3066  -52.5415 H         1 UNK         0.0600 
    128 H128       -0.7916  -14.9565  -53.8176 H         1 UNK         0.0600 
    129 H129       -1.0726  -16.3137  -52.7187 H         1 UNK         0.0600 
    130 H130        0.1169  -14.2947  -50.5582 H         1 UNK         0.3000 
    131 H131       -1.9541  -12.3249  -50.2378 H         1 UNK         0.0600 
    132 H132        0.3194  -11.8358  -49.4908 H         1 UNK         0.0800 
    133 H133       -0.8187  -11.6869  -48.1967 H         1 UNK         0.0800 
    134 H134        2.9897  -13.9270  -48.1918 H         1 UNK         0.0800 
    135 H135        2.2886  -13.0505  -49.5205 H         1 UNK         0.0800 
    136 H136        3.4574  -14.5365  -51.0975 H         1 UNK         0.1150 
    137 H137        2.1402  -18.5917  -51.4975 H         1 UNK         0.1150 
    138 H138        0.6558  -16.1967  -48.2912 H         1 UNK         0.1150 
    139 H139       -0.4980  -18.3168  -48.9820 H         1 UNK         0.0800 
    140 H140        0.1798  -19.2952  -50.2529 H         1 UNK         0.0800 
    141 H141        0.2531  -18.1698  -46.6770 H         1 UNK         0.0800 
    142 H142        1.2019  -19.3631  -45.8174 H         1 UNK         0.0800 
    143 H143       -1.3524  -19.9566  -47.3578 H         1 UNK         0.0600 
    144 H144        0.5040  -21.7719  -46.0713 H         1 UNK         0.3000 
    145 H145       -1.6468  -24.6010  -46.3678 H         1 UNK         0.0600 
    146 H146        0.8406  -23.8130  -47.9841 H         1 UNK         0.0600 
    147 H147        0.2285  -25.4503  -47.7456 H         1 UNK         0.0600 
    148 H148       -0.7059  -24.2870  -48.6724 H         1 UNK         0.0600 
    149 H149        1.0859  -24.3096  -45.5735 H         1 UNK         0.3000 
    150 H150        0.5421  -23.3794  -42.1927 H         1 UNK         0.0600 
    151 H151        0.1484  -25.8484  -42.1618 H         1 UNK         0.0600 
    152 H152        1.8061  -25.4592  -41.7330 H         1 UNK         0.0600 
    153 H153        1.4330  -26.0794  -43.3419 H         1 UNK         0.0600 
    154 H154        2.9210  -24.0833  -43.5316 H         1 UNK         0.3000 
    155 H155        4.4517  -22.5772  -44.0147 H         1 UNK         0.0600 
    156 H156        3.4815  -22.7258  -46.3335 H         1 UNK         0.0600 
    157 H157        4.8307  -21.6032  -46.2542 H         1 UNK         0.0600 
    158 H158        3.1810  -20.9921  -46.3089 H         1 UNK         0.0600 
    159 H159        4.3094  -19.7688  -44.5131 H         1 UNK         0.3000 
    160 H160        4.3616  -18.6340  -41.2140 H         1 UNK         0.0600 
    161 H161        6.6196  -17.6739  -41.6395 H         1 UNK         0.0600 
    162 H162        6.9195  -18.8980  -42.8739 H         1 UNK         0.0600 
    163 H163        6.7067  -19.3715  -41.1970 H         1 UNK         0.0600 
    164 H164        3.5864  -17.2144  -42.6399 H         1 UNK         0.3000 
    165 H165        4.7877  -15.5581  -45.3192 H         1 UNK         0.0600 
    166 H166        2.3768  -17.3425  -45.9040 H         1 UNK         0.0600 
    167 H167        2.7190  -15.8067  -46.6841 H         1 UNK         0.0600 
    168 H168        3.7917  -17.1756  -46.9372 H         1 UNK         0.0600 
    169 H169        2.1266  -15.6957  -44.1514 H         1 UNK         0.3000 
    170 H170        2.8786  -14.0868  -41.1410 H         1 UNK         0.0600 
    171 H171        1.5396  -12.6981  -43.5288 H         1 UNK         0.0600 
    172 H172        1.3080  -12.2868  -41.8287 H         1 UNK         0.0600 
    173 H173        2.8723  -12.0400  -42.5870 H         1 UNK         0.0600 
    174 H174        0.3796  -14.5532  -42.3770 H         1 UNK         0.3000 
    175 H175        0.0652  -17.9516  -42.3134 H         1 UNK         0.0600 
    176 H176       -0.9668  -16.3696  -39.8954 H         1 UNK         0.0600 
    177 H177       -1.6716  -17.8606  -40.5189 H         1 UNK         0.0600 
    178 H178       -0.0584  -17.8750  -39.8280 H         1 UNK         0.0600 
    179 H179       -1.9361  -15.9215  -42.1312 H         1 UNK         0.3000 
    180 H180       -3.0979  -15.4546  -44.0294 H         1 UNK         0.0600 
    181 H181       -0.9232  -13.4552  -44.8936 H         1 UNK         0.0600 
    182 H182       -1.7809  -13.4422  -43.3555 H         1 UNK         0.0600 
    183 H183       -2.6503  -13.1135  -44.8458 H         1 UNK         0.0600 
    184 H184       -1.4318  -15.5569  -46.4914 H         1 UNK         0.3000 
    185 H185       -2.9151  -17.0962  -48.2021 H         1 UNK         0.0600 
    186 H186       -4.5998  -16.3649  -49.8860 H         1 UNK         0.0600 
    187 H187       -5.3888  -16.8289  -48.3902 H         1 UNK         0.0600 
    188 H188       -5.1973  -15.1308  -48.7801 H         1 UNK         0.0600 
    189 H189       -1.6716  -15.6201  -49.3278 H         1 UNK         0.3000 
    190 H190       -0.5098  -20.7951  -44.0030 H         1 UNK         0.3000 
    191 H191       -2.3171  -19.0168  -42.7071 H         1 UNK         0.0600 
    192 H192       -1.3833  -21.8034  -41.8315 H         1 UNK         0.0600 
    193 H193       -0.5074  -20.3034  -41.5387 H         1 UNK         0.0600 
    194 H194       -2.0767  -20.5674  -40.7923 H         1 UNK         0.0600 
    195 H195       -2.8115  -22.1700  -44.2553 H         1 UNK         0.3000 
    196 H196       -5.6767  -22.2864  -43.6741 H         1 UNK         0.0600 
    197 H197       -4.2599  -24.3475  -43.7829 H         1 UNK         0.0600 
    198 H198       -3.9244  -24.0255  -45.4821 H         1 UNK         0.0600 
    199 H199       -5.5639  -24.3855  -44.9573 H         1 UNK         0.0600 
    200 H200       -4.7430  -19.8927  -45.0595 H         1 UNK         0.3000 
    201 H201       -5.3780  -18.4489  -46.5888 H         1 UNK         0.0600 
    202 H202       -7.7147  -18.5552  -47.3939 H         1 UNK         0.0600 
    203 H203       -7.6351  -19.0307  -45.7059 H         1 UNK         0.0600 
    204 H204       -7.8255  -20.2556  -46.9599 H         1 UNK         0.0600 
    205 H205       -3.4478  -20.0044  -47.5541 H         1 UNK         0.3000 
    206 H206       -2.2799  -20.5793  -49.3792 H         1 UNK         0.0600 
    207 H207       -4.3355  -18.9838  -50.9971 H         1 UNK         0.0600 
    208 H208       -2.7365  -19.4751  -51.5380 H         1 UNK         0.0600 
    209 H209       -2.8925  -18.3197  -50.2345 H         1 UNK         0.0600 
    210 H210       -3.5771  -22.5257  -48.3981 H         1 UNK         0.3000 
    211 H211       -4.4134  -24.5546  -48.5662 H         1 UNK         0.0600 
    212 H212       -2.5546  -24.9565  -50.1142 H         1 UNK         0.0600 
    213 H213       -3.9521  -25.8689  -50.6553 H         1 UNK         0.0600 
    214 H214       -3.4958  -24.3859  -51.4836 H         1 UNK         0.0600 
    215 H215       -6.3418  -22.8840  -48.3059 H         1 UNK         0.3000 
    216 H216       -8.4768  -22.4014  -48.4934 H         1 UNK         0.0600 
    217 H217      -10.0528  -24.2185  -49.0649 H         1 UNK         0.0600 
    218 H218       -8.7698  -25.1434  -49.8323 H         1 UNK         0.0600 
    219 H219       -8.7317  -24.8485  -48.0944 H         1 UNK         0.0600 
    220 H220       -7.1488  -20.9729  -50.1997 H         1 UNK         0.3000 
    221 H221       -7.1930  -19.6424  -51.9171 H         1 UNK         0.0600 
    222 H222      -10.1159  -20.4491  -52.3408 H         1 UNK         0.0600 
    223 H223       -9.5524  -19.2466  -51.1802 H         1 UNK         0.0600 
    224 H224       -9.3417  -18.9741  -52.9008 H         1 UNK         0.0600 
    225 H225       -6.2813  -22.3736  -52.4101 H         1 UNK         0.3000 
    226 H226       -6.8440  -22.9165  -55.2392 H         1 UNK         0.0600 
    227 H227       -6.3991  -24.7831  -53.6636 H         1 UNK         0.0600 
    228 H228       -5.1725  -24.7266  -54.9190 H         1 UNK         0.0600 
    229 H229       -4.8024  -24.1225  -53.3100 H         1 UNK         0.0600 
    230 H230       -4.8304  -20.8139  -53.4968 H         1 UNK         0.3000 
    231 H231       -3.3243  -19.2707  -54.0106 H         1 UNK         0.0600 
    232 H232       -2.9243  -18.5136  -56.3093 H         1 UNK         0.0600 
    233 H233       -4.6441  -18.7754  -56.0649 H         1 UNK         0.0600 
    234 H234       -3.6902  -19.9452  -56.9753 H         1 UNK         0.0600 
    235 H235       -2.2925  -21.1950  -52.8571 H         1 UNK         0.3000 
    236 H236       -0.3886  -22.8764  -53.9053 H         1 UNK         0.0600 
    237 H237       -1.2264  -22.9692  -51.5824 H         1 UNK         0.0600 
    238 H238        0.5261  -22.8887  -51.5644 H         1 UNK         0.0600 
    239 H239       -0.4169  -21.4530  -51.1893 H         1 UNK         0.0600 
    240 H240       -0.0595  -19.4590  -53.7902 H         1 UNK         0.3000 
    241 H241        2.8104  -19.2625  -53.9339 H         1 UNK         0.0600 
    242 H242        1.5332  -20.2025  -57.6949 H         1 UNK         0.3800 
    243 H243        0.4126  -20.2778  -56.3568 H         1 UNK         0.3800 
    244 H244        0.8681  -17.2051  -55.0753 H         1 UNK         0.0800 
    245 H245        0.9926  -17.4143  -53.3700 H         1 UNK         0.0800 
    246 H246        4.6625  -16.1329  -52.5519 H         1 UNK         0.0800 
    247 H247        4.1657  -17.7944  -52.6664 H         1 UNK         0.0800 
@<TRIPOS>BOND
     1    1    2 1    
     2    1  127 1    
     3    1  128 1    
     4    1  129 1    
     5    2    3 2    
     6    2    4 am   BACKBONE|DICT|INTERRES
     7    4    5 1    
     8    4  130 1    
     9    5    6 1    
    10    5   65 1    
    11    5  131 1    
    12    6    7 1    
    13    6  132 1    
    14    6  133 1    
    15    7    8 1    
    16    8    9 1    
    17    8  134 1    
    18    8  135 1    
    19    9   10 ar   
    20    9   14 ar   
    21   10   11 ar   
    22   10  136 1    
    23   11   12 ar   
    24   11  126 1    
    25   12   13 ar   
    26   12  137 1    
    27   13   14 ar   
    28   13   15 1    
    29   14  138 1    
    30   15   16 1    
    31   15  139 1    
    32   15  140 1    
    33   16   17 1    
    34   17   18 1    
    35   17  141 1    
    36   17  142 1    
    37   18   19 1    
    38   18   67 1    
    39   18  143 1    
    40   19   20 am   BACKBONE|DICT|INTERRES
    41   19  144 1    
    42   20   21 2    
    43   20   22 1    
    44   22   23 1    
    45   22   24 1    
    46   22  145 1    
    47   23  146 1    
    48   23  147 1    
    49   23  148 1    
    50   24   25 am   BACKBONE|DICT|INTERRES
    51   24  149 1    
    52   25   26 2    
    53   25   27 1    
    54   27   28 1    
    55   27   29 1    
    56   27  150 1    
    57   28  151 1    
    58   28  152 1    
    59   28  153 1    
    60   29   30 am   BACKBONE|DICT|INTERRES
    61   29  154 1    
    62   30   31 2    
    63   30   32 1    
    64   32   33 1    
    65   32   34 1    
    66   32  155 1    
    67   33  156 1    
    68   33  157 1    
    69   33  158 1    
    70   34   35 am   BACKBONE|DICT|INTERRES
    71   34  159 1    
    72   35   36 2    
    73   35   37 1    
    74   37   38 1    
    75   37   39 1    
    76   37  160 1    
    77   38  161 1    
    78   38  162 1    
    79   38  163 1    
    80   39   40 am   BACKBONE|DICT|INTERRES
    81   39  164 1    
    82   40   41 2    
    83   40   42 1    
    84   42   43 1    
    85   42   44 1    
    86   42  165 1    
    87   43  166 1    
    88   43  167 1    
    89   43  168 1    
    90   44   45 am   BACKBONE|DICT|INTERRES
    91   44  169 1    
    92   45   46 2    
    93   45   47 1    
    94   47   48 1    
    95   47   49 1    
    96   47  170 1    
    97   48  171 1    
    98   48  172 1    
    99   48  173 1    
   100   49   50 am   BACKBONE|DICT|INTERRES
   101   49  174 1    
   102   50   51 2    
   103   50   52 1    
   104   52   53 1    
   105   52   54 1    
   106   52  175 1    
   107   53  176 1    
   108   53  177 1    
   109   53  178 1    
   110   54   55 am   BACKBONE|DICT|INTERRES
   111   54  179 1    
   112   55   56 2    
   113   55   57 1    
   114   57   58 1    
   115   57   59 1    
   116   57  180 1    
   117   58  181 1    
   118   58  182 1    
   119   58  183 1    
   120   59   60 am   BACKBONE|DICT|INTERRES
   121   59  184 1    
   122   60   61 2    
   123   60   62 1    
   124   62   63 1    
   125   62   64 1    
   126   62  185 1    
   127   63  186 1    
   128   63  187 1    
   129   63  188 1    
   130   64   65 am   BACKBONE|DICT|INTERRES
   131   64  189 1    
   132   65   66 2    
   133   67   68 2    
   134   67   69 am   BACKBONE|DICT|INTERRES
   135   69   70 1    
   136   69  190 1    
   137   70   71 1    
   138   70   72 1    
   139   70  191 1    
   140   71  192 1    
   141   71  193 1    
   142   71  194 1    
   143   72   73 2    
   144   72   74 am   BACKBONE|DICT|INTERRES
   145   74   75 1    
   146   74  195 1    
   147   75   76 1    
   148   75   77 1    
   149   75  196 1    
   150   76  197 1    
   151   76  198 1    
   152   76  199 1    
   153   77   78 2    
   154   77   79 am   BACKBONE|DICT|INTERRES
   155   79   80 1    
   156   79  200 1    
   157   80   81 1    
   158   80   82 1    
   159   80  201 1    
   160   81  202 1    
   161   81  203 1    
   162   81  204 1    
   163   82   83 2    
   164   82   84 am   BACKBONE|DICT|INTERRES
   165   84   85 1    
   166   84  205 1    
   167   85   86 1    
   168   85   87 1    
   169   85  206 1    
   170   86  207 1    
   171   86  208 1    
   172   86  209 1    
   173   87   88 2    
   174   87   89 am   BACKBONE|DICT|INTERRES
   175   89   90 1    
   176   89  210 1    
   177   90   91 1    
   178   90   92 1    
   179   90  211 1    
   180   91  212 1    
   181   91  213 1    
   182   91  214 1    
   183   92   93 2    
   184   92   94 am   BACKBONE|DICT|INTERRES
   185   94   95 1    
   186   94  215 1    
   187   95   96 1    
   188   95   97 1    
   189   95  216 1    
   190   96  217 1    
   191   96  218 1    
   192   96  219 1    
   193   97   98 2    
   194   97   99 am   BACKBONE|DICT|INTERRES
   195   99  100 1    
   196   99  220 1    
   197  100  101 1    
   198  100  102 1    
   199  100  221 1    
   200  101  222 1    
   201  101  223 1    
   202  101  224 1    
   203  102  103 2    
   204  102  104 am   BACKBONE|DICT|INTERRES
   205  104  105 1    
   206  104  225 1    
   207  105  106 1    
   208  105  107 1    
   209  105  226 1    
   210  106  227 1    
   211  106  228 1    
   212  106  229 1    
   213  107  108 2    
   214  107  109 am   BACKBONE|DICT|INTERRES
   215  109  110 1    
   216  109  230 1    
   217  110  111 1    
   218  110  112 1    
   219  110  231 1    
   220  111  232 1    
   221  111  233 1    
   222  111  234 1    
   223  112  113 2    
   224  112  114 am   BACKBONE|DICT|INTERRES
   225  114  115 1    
   226  114  235 1    
   227  115  116 1    
   228  115  117 1    
   229  115  236 1    
   230  116  237 1    
   231  116  238 1    
   232  116  239 1    
   233  117  118 2    
   234  117  119 am   BACKBONE|DICT|INTERRES
   235  119  120 1    
   236  119  240 1    
   237  120  121 1    
   238  120  124 1    
   239  120  241 1    
   240  121  122 am   BACKBONE|DICT|INTERRES
   241  121  123 2    
   242  122  242 1    
   243  122  243 1    
   244  124  125 1    
   245  124  244 1    
   246  124  245 1    
   247  125  126 1    
   248  126  246 1    
   249  126  247 1    
@<TRIPOS>SUBSTRUCTURE
     1 UNK         1 GROUP             0       ****    0 ROOT    
