@<TRIPOS>MOLECULE
3R540
247   249    1
SMALL
USER_CHARGES


@<TRIPOS>ATOM
      1 CA         -1.9801  -10.9100  -48.0033 C.3       0 UNK        -0.1800 
      2 C          -1.1964  -12.0981  -47.4654 C.2       0 UNK         0.5000 
      3 O          -0.6659  -12.0287  -46.3582 O.2       0 UNK        -0.5000 
      4 N          -1.1367  -13.1937  -48.2342 N.am      1 UNK        -0.5000 
      5 CA         -0.4274  -14.4367  -47.8972 C.3       1 UNK         0.1400 
      6 C6         -0.4386  -15.4167  -49.0989 C.3       23 UNK        -0.0398 
      7 S7          0.9312  -16.6191  -49.0824 S.3       23 UNK        -0.2404 
      8 C8          0.3293  -17.7870  -50.3522 C.3       23 UNK        -0.0205 
      9 C9          1.2396  -18.9844  -50.6343 C.ar      23 UNK        -0.0193 
     10 C10         1.1254  -19.6301  -51.8714 C.ar      23 UNK        -0.1150 
     11 C11         1.9485  -20.7136  -52.2021 C.ar      23 UNK        -0.0193 
     12 C12         2.8835  -21.1600  -51.2654 C.ar      23 UNK        -0.1150 
     13 C13         3.0056  -20.5397  -50.0202 C.ar      23 UNK        -0.0193 
     14 C14         2.1741  -19.4613  -49.7039 C.ar      23 UNK        -0.1150 
     15 C15         4.0738  -21.0161  -49.0472 C.3       23 UNK        -0.0205 
     16 S16         3.5481  -22.4834  -48.1071 S.3       23 UNK        -0.2404 
     17 C17         2.7171  -21.7221  -46.6755 C.3       23 UNK        -0.0398 
     18 CA          1.3417  -22.3587  -46.3646 C.3       11 UNK         0.1400 
     19 N           0.9744  -22.1921  -44.9561 N.am      11 UNK        -0.5000 
     20 C          -0.0831  -22.7667  -44.3656 C.2       10 UNK         0.5000 
     21 O          -0.8240  -23.5761  -44.9249 O.2       10 UNK        -0.5000 
     22 CA         -0.3951  -22.3169  -42.9261 C.3       10 UNK         0.1400 
     23 CB          0.4627  -23.0910  -41.9146 C.3       10 UNK        -0.1800 
     24 N          -0.2033  -20.8761  -42.7406 N.am      10 UNK        -0.5000 
     25 C          -0.9416  -19.9339  -43.3460 C.2       9 UNK         0.5000 
     26 O          -1.9177  -20.1893  -44.0497 O.2       9 UNK        -0.5000 
     27 CA         -0.4883  -18.4702  -43.1901 C.3       9 UNK         0.1400 
     28 CB         -1.0232  -17.8580  -41.8888 C.3       9 UNK        -0.1800 
     29 N           0.9645  -18.3224  -43.2430 N.am      9 UNK        -0.5000 
     30 C           1.7179  -18.5825  -44.3189 C.2       8 UNK         0.5000 
     31 O           1.2606  -18.9489  -45.3986 O.2       8 UNK        -0.5000 
     32 CA          3.2421  -18.4859  -44.1434 C.3       8 UNK         0.1400 
     33 CB          3.7383  -17.0451  -44.3285 C.3       8 UNK        -0.1800 
     34 N           3.6733  -18.9908  -42.8411 N.am      8 UNK        -0.5000 
     35 C           3.6808  -20.2847  -42.4966 C.2       7 UNK         0.5000 
     36 O           3.3541  -21.1953  -43.2584 O.2       7 UNK        -0.5000 
     37 CA          4.0879  -20.6076  -41.0465 C.3       7 UNK         0.1400 
     38 CB          5.6168  -20.6071  -40.8988 C.3       7 UNK        -0.1800 
     39 N           3.5049  -19.6806  -40.0732 N.am      7 UNK        -0.5000 
     40 C           2.1957  -19.6123  -39.7964 C.2       6 UNK         0.5000 
     41 O           1.3498  -20.3324  -40.3254 O.2       6 UNK        -0.5000 
     42 CA          1.7438  -18.5359  -38.7896 C.3       6 UNK         0.1400 
     43 CB          1.9199  -19.0432  -37.3503 C.3       6 UNK        -0.1800 
     44 N           2.3906  -17.2235  -38.9220 N.am      6 UNK        -0.5000 
     45 C           2.5148  -16.5165  -40.0536 C.2       5 UNK         0.5000 
     46 O           2.2624  -16.9654  -41.1717 O.2       5 UNK        -0.5000 
     47 CA          3.0311  -15.0703  -39.9144 C.3       5 UNK         0.1400 
     48 CB          4.5629  -15.0644  -39.7930 C.3       5 UNK        -0.1800 
     49 N           2.6499  -14.2232  -41.0500 N.am      5 UNK        -0.5000 
     50 C           1.3941  -13.9616  -41.4420 C.2       4 UNK         0.5000 
     51 O           0.3979  -14.3284  -40.8127 O.2       4 UNK        -0.5000 
     52 CA          1.2480  -13.1586  -42.7556 C.3       4 UNK         0.1400 
     53 CB          2.0612  -13.7835  -43.9030 C.3       4 UNK        -0.1800 
     54 N          -0.1401  -13.0557  -43.2012 N.am      4 UNK        -0.5000 
     55 C          -1.0811  -12.2674  -42.6660 C.2       3 UNK         0.5000 
     56 O          -0.8613  -11.4711  -41.7513 O.2       3 UNK        -0.5000 
     57 CA         -2.5042  -12.3664  -43.2545 C.3       3 UNK         0.1400 
     58 CB         -2.9474  -11.0196  -43.8511 C.3       3 UNK        -0.1800 
     59 N          -2.6201  -13.3974  -44.2897 N.am      3 UNK        -0.5000 
     60 C          -2.9683  -14.6733  -44.0718 C.2       2 UNK         0.5000 
     61 O          -3.2498  -15.1208  -42.9606 O.2       2 UNK        -0.5000 
     62 CA         -3.0195  -15.6134  -45.2942 C.3       2 UNK         0.1400 
     63 CB         -4.4727  -15.9150  -45.6912 C.3       2 UNK        -0.1800 
     64 N          -2.3115  -15.0920  -46.4656 N.am      2 UNK        -0.5000 
     65 C          -0.9785  -15.0926  -46.6098 C.2       1 UNK         0.5000 
     66 O          -0.2062  -15.5325  -45.7596 O.2       1 UNK        -0.5000 
     67 C           0.2324  -21.8346  -47.3004 C.2       11 UNK         0.5000 
     68 O          -0.1654  -22.5413  -48.2241 O.2       11 UNK        -0.5000 
     69 N          -0.2969  -20.6403  -46.9992 N.am      12 UNK        -0.5000 
     70 CA         -1.4177  -20.0207  -47.7019 C.3       12 UNK         0.1400 
     71 CB         -1.6491  -18.6011  -47.1706 C.3       12 UNK        -0.1800 
     72 C          -2.7128  -20.8408  -47.6126 C.2       12 UNK         0.5000 
     73 O          -3.4136  -20.9574  -48.6148 O.2       12 UNK        -0.5000 
     74 N          -2.9997  -21.4164  -46.4373 N.am      13 UNK        -0.5000 
     75 CA         -4.1350  -22.3123  -46.2151 C.3       13 UNK         0.1400 
     76 CB         -4.2669  -22.6292  -44.7181 C.3       13 UNK        -0.1800 
     77 C          -4.0351  -23.6008  -47.0524 C.2       13 UNK         0.5000 
     78 O          -5.0167  -23.9859  -47.6889 O.2       13 UNK        -0.5000 
     79 N          -2.8397  -24.2083  -47.0883 N.am      14 UNK        -0.5000 
     80 CA         -2.5223  -25.3666  -47.9294 C.3       14 UNK         0.1400 
     81 CB         -1.1387  -25.9128  -47.5459 C.3       14 UNK        -0.1800 
     82 C          -2.5918  -25.0489  -49.4376 C.2       14 UNK         0.5000 
     83 O          -3.0466  -25.8848  -50.2184 O.2       14 UNK        -0.5000 
     84 N          -2.1839  -23.8293  -49.8086 N.am      15 UNK        -0.5000 
     85 CA         -2.2487  -23.2680  -51.1582 C.3       15 UNK         0.1400 
     86 CB         -1.1685  -22.1836  -51.2849 C.3       15 UNK        -0.1800 
     87 C          -3.6347  -22.7024  -51.5359 C.2       15 UNK         0.5000 
     88 O          -3.7460  -22.0504  -52.5752 O.2       15 UNK        -0.5000 
     89 N          -4.6582  -22.9257  -50.6966 N.am      16 UNK        -0.5000 
     90 CA         -6.0553  -22.5172  -50.8767 C.3       16 UNK         0.1400 
     91 CB         -6.7102  -23.3546  -51.9906 C.3       16 UNK        -0.1800 
     92 C          -6.2097  -20.9982  -51.0979 C.2       16 UNK         0.5000 
     93 O          -6.8462  -20.5643  -52.0620 O.2       16 UNK        -0.5000 
     94 N          -5.5454  -20.2246  -50.2272 N.am      17 UNK        -0.5000 
     95 CA         -5.4388  -18.7612  -50.2030 C.3       17 UNK         0.1400 
     96 CB         -6.8201  -18.1206  -49.9560 C.3       17 UNK        -0.1800 
     97 C          -4.7307  -18.1667  -51.4390 C.2       17 UNK         0.5000 
     98 O          -4.8457  -16.9647  -51.6808 O.2       17 UNK        -0.5000 
     99 N          -4.0360  -19.0200  -52.2088 N.am      18 UNK        -0.5000 
    100 CA        -3.4688  -18.7614  -53.5347 C.3       18 UNK         0.1400 
    101 CB        -2.3364  -17.7167  -53.4629 C.3       18 UNK        -0.1800 
    102 C         -4.5458  -18.4208  -54.5916 C.2       18 UNK         0.5000 
    103 O         -4.2416  -17.7470  -55.5778 O.2       18 UNK        -0.5000 
    104 N         -5.7864  -18.8792  -54.3636 N.am      19 UNK        -0.5000 
    105 CA        -6.9322  -18.6492  -55.2377 C.3       19 UNK         0.1400 
    106 CB        -8.1611  -18.2882  -54.3863 C.3       19 UNK        -0.1800 
    107 C         -7.1999  -19.8845  -56.1083 C.2       19 UNK         0.5000 
    108 O         -7.2255  -19.7670  -57.3339 O.2       19 UNK        -0.5000 
    109 N         -7.3885  -21.0464  -55.4659 N.am      20 UNK        -0.5000 
    110 CA        -7.6925  -22.3143  -56.1410 C.3       20 UNK         0.1400 
    111 CB        -8.6621  -23.1297  -55.2714 C.3       20 UNK        -0.1800 
    112 C         -6.4332  -23.1351  -56.4856 C.2       20 UNK         0.5000 
    113 O         -6.5453  -24.1465  -57.1801 O.2       20 UNK        -0.5000 
    114 N         -5.2647  -22.6946  -56.0103 N.am      21 UNK        -0.5000 
    115 CA        -3.9505  -23.2609  -56.2939 C.3       21 UNK         0.1400 
    116 CB        -3.6326  -24.3815  -55.2858 C.3       21 UNK        -0.1800 
    117 C         -2.9142  -22.1245  -56.2750 C.2       21 UNK         0.5000 
    118 O         -3.2857  -20.9602  -56.1123 O.2       21 UNK        -0.5000 
    119 N         -1.6370  -22.4655  -56.4817 N.am      22 UNK        -0.5000 
    120 CA        -0.4774  -21.5557  -56.5743 C.3       22 UNK         0.1400 
    121 C         -0.4432  -20.6762  -57.8599 C.2       22 UNK         0.5000 
    122 N         -1.5586  -20.0996  -58.2857 N.am      22 UNK        -0.7600 
    123 O          0.6016  -20.5354  -58.4893 O.2       22 UNK        -0.5000 
    124 C124       -0.2719  -20.6964  -55.2933 C.3       23 UNK        -0.0398 
    125 S125        1.4902  -20.3408  -54.9662 S.3       23 UNK        -0.2404 
    126 C126        1.8486  -21.4345  -53.5470 C.3       23 UNK        -0.0205 
    127 H127       -1.3328  -10.0360  -48.0738 H         1 UNK         0.0600 
    128 H128       -2.8052  -10.6709  -47.3324 H         1 UNK         0.0600 
    129 H129       -2.3921  -11.1093  -48.9927 H         1 UNK         0.0600 
    130 H130       -1.5971  -13.1805  -49.1333 H         1 UNK         0.3000 
    131 H131        0.6084  -14.1536  -47.6962 H         1 UNK         0.0600 
    132 H132       -0.3395  -14.8596  -50.0318 H         1 UNK         0.0800 
    133 H133       -1.3927  -15.9427  -49.1684 H         1 UNK         0.0800 
    134 H134        0.1959  -17.2209  -51.2752 H         1 UNK         0.0800 
    135 H135       -0.6577  -18.1523  -50.0712 H         1 UNK         0.0800 
    136 H136        0.3943  -19.2807  -52.5854 H         1 UNK         0.1150 
    137 H137        3.5270  -21.9950  -51.5054 H         1 UNK         0.1150 
    138 H138        2.2705  -18.9895  -48.7369 H         1 UNK         0.1150 
    139 H139        4.9754  -21.2716  -49.6060 H         1 UNK         0.0800 
    140 H140        4.3661  -20.2143  -48.3673 H         1 UNK         0.0800 
    141 H141        2.6325  -20.6440  -46.8126 H         1 UNK         0.0800 
    142 H142        3.3904  -21.8600  -45.8290 H         1 UNK         0.0800 
    143 H143        1.4216  -23.4356  -46.5294 H         1 UNK         0.0600 
    144 H144        1.5538  -21.5681  -44.4076 H         1 UNK         0.3000 
    145 H145       -1.4439  -22.5457  -42.7263 H         1 UNK         0.0600 
    146 H146        0.1834  -22.8418  -40.8908 H         1 UNK         0.0600 
    147 H147        1.5241  -22.8720  -42.0336 H         1 UNK         0.0600 
    148 H148        0.3326  -24.1672  -42.0343 H         1 UNK         0.0600 
    149 H149        0.5409  -20.5919  -42.1108 H         1 UNK         0.3000 
    150 H150       -0.9021  -17.9039  -44.0256 H         1 UNK         0.0600 
    151 H151       -0.6394  -18.3787  -41.0119 H         1 UNK         0.0600 
    152 H152       -2.1122  -17.9079  -41.8535 H         1 UNK         0.0600 
    153 H153       -0.7437  -16.8072  -41.8047 H         1 UNK         0.0600 
    154 H154        1.4247  -17.9690  -42.4060 H         1 UNK         0.3000 
    155 H155        3.7015  -19.0998  -44.9211 H         1 UNK         0.0600 
    156 H156        3.3670  -16.6184  -45.2615 H         1 UNK         0.0600 
    157 H157        4.8271  -17.0073  -44.3627 H         1 UNK         0.0600 
    158 H158        3.4097  -16.3998  -43.5147 H         1 UNK         0.0600 
    159 H159        3.8519  -18.2984  -42.1270 H         1 UNK         0.3000 
    160 H160        3.7256  -21.6123  -40.8177 H         1 UNK         0.0600 
    161 H161        6.0409  -19.6198  -41.0859 H         1 UNK         0.0600 
    162 H162        6.0767  -21.3012  -41.6036 H         1 UNK         0.0600 
    163 H163        5.9159  -20.9169  -39.8974 H         1 UNK         0.0600 
    164 H164        4.1331  -19.0437  -39.6059 H         1 UNK         0.3000 
    165 H165        0.6773  -18.3751  -38.9562 H         1 UNK         0.0600 
    166 H166        1.4760  -18.3546  -36.6311 H         1 UNK         0.0600 
    167 H167        1.4333  -20.0100  -37.2133 H         1 UNK         0.0600 
    168 H168        2.9726  -19.1660  -37.0930 H         1 UNK         0.0600 
    169 H169        2.6570  -16.7811  -38.0543 H         1 UNK         0.3000 
    170 H170        2.5993  -14.6352  -39.0111 H         1 UNK         0.0600 
    171 H171        5.0377  -15.4821  -40.6820 H         1 UNK         0.0600 
    172 H172        4.9441  -14.0528  -39.6526 H         1 UNK         0.0600 
    173 H173        4.8934  -15.6543  -38.9371 H         1 UNK         0.0600 
    174 H174        3.4094  -13.8983  -41.6289 H         1 UNK         0.3000 
    175 H175        1.6270  -12.1515  -42.5714 H         1 UNK         0.0600 
    176 H176        1.7583  -14.8152  -44.0826 H         1 UNK         0.0600 
    177 H177        1.9188  -13.2317  -44.8328 H         1 UNK         0.0600 
    178 H178        3.1307  -13.7818  -43.6923 H         1 UNK         0.0600 
    179 H179       -0.4146  -13.6829  -43.9437 H         1 UNK         0.3000 
    180 H180       -3.1780  -12.6030  -42.4284 H         1 UNK         0.0600 
    181 H181       -3.9564  -11.0807  -44.2590 H         1 UNK         0.0600 
    182 H182       -2.2811  -10.6919  -44.6492 H         1 UNK         0.0600 
    183 H183       -2.9533  -10.2381  -43.0903 H         1 UNK         0.0600 
    184 H184       -2.3446  -13.1201  -45.2220 H         1 UNK         0.3000 
    185 H185       -2.5534  -16.5529  -44.9950 H         1 UNK         0.0600 
    186 H186       -4.9980  -15.0143  -46.0110 H         1 UNK         0.0600 
    187 H187       -4.5168  -16.6387  -46.5055 H         1 UNK         0.0600 
    188 H188       -5.0273  -16.3386  -44.8528 H         1 UNK         0.0600 
    189 H189       -2.8791  -14.6830  -47.1937 H         1 UNK         0.3000 
    190 H190        0.1315  -20.0909  -46.2569 H         1 UNK         0.3000 
    191 H191       -1.1366  -19.9543  -48.7524 H         1 UNK         0.0600 
    192 H192       -0.7214  -18.0320  -47.1547 H         1 UNK         0.0600 
    193 H193       -2.0457  -18.6090  -46.1565 H         1 UNK         0.0600 
    194 H194       -2.3598  -18.0601  -47.7959 H         1 UNK         0.0600 
    195 H195       -2.4139  -21.2060  -45.6345 H         1 UNK         0.3000 
    196 H196       -5.0381  -21.7838  -46.5273 H         1 UNK         0.0600 
    197 H197       -4.3916  -21.7181  -44.1325 H         1 UNK         0.0600 
    198 H198       -3.3923  -23.1543  -44.3354 H         1 UNK         0.0600 
    199 H199       -5.1363  -23.2598  -44.5290 H         1 UNK         0.0600 
    200 H200       -2.0869  -23.8392  -46.5155 H         1 UNK         0.3000 
    201 H201       -3.2622  -26.1420  -47.7210 H         1 UNK         0.0600 
    202 H202       -1.1054  -26.1971  -46.4940 H         1 UNK         0.0600 
    203 H203       -0.3521  -25.1777  -47.7169 H         1 UNK         0.0600 
    204 H204       -0.8928  -26.7993  -48.1317 H         1 UNK         0.0600 
    205 H205       -1.7492  -23.2378  -49.1056 H         1 UNK         0.3000 
    206 H206       -2.0203  -24.0574  -51.8767 H         1 UNK         0.0600 
    207 H207       -0.1790  -22.5799  -51.0561 H         1 UNK         0.0600 
    208 H208       -1.3581  -21.3490  -50.6112 H         1 UNK         0.0600 
    209 H209       -1.1304  -21.7803  -52.2947 H         1 UNK         0.0600 
    210 H210       -4.4594  -23.4175  -49.8348 H         1 UNK         0.3000 
    211 H211       -6.5686  -22.7467  -49.9419 H         1 UNK         0.0600 
    212 H212       -6.2581  -23.1557  -52.9629 H         1 UNK         0.0600 
    213 H213       -7.7751  -23.1322  -52.0633 H         1 UNK         0.0600 
    214 H214       -6.6146  -24.4216  -51.7897 H         1 UNK         0.0600 
    215 H215       -4.9422  -20.6910  -49.5505 H         1 UNK         0.3000 
    216 H216       -4.8045  -18.5203  -49.3488 H         1 UNK         0.0600 
    217 H217       -6.7293  -17.0488  -49.7768 H         1 UNK         0.0600 
    218 H218       -7.3048  -18.5535  -49.0810 H         1 UNK         0.0600 
    219 H219       -7.4861  -18.2528  -50.8094 H         1 UNK         0.0600 
    220 H220       -4.0269  -19.9961  -51.9363 H         1 UNK         0.3000 
    221 H221       -3.0197  -19.7033  -53.8487 H         1 UNK         0.0600 
    222 H222       -2.7148  -16.7196  -53.2376 H         1 UNK         0.0600 
    223 H223       -1.6100  -17.9815  -52.6970 H         1 UNK         0.0600 
    224 H224       -1.8014  -17.6542  -54.4109 H         1 UNK         0.0600 
    225 H225       -5.9607  -19.4249  -53.5262 H         1 UNK         0.3000 
    226 H226       -6.7370  -17.8061  -55.9038 H         1 UNK         0.0600 
    227 H227       -7.9810  -17.3839  -53.8046 H         1 UNK         0.0600 
    228 H228       -9.0307  -18.1015  -55.0175 H         1 UNK         0.0600 
    229 H229       -8.4270  -19.0826  -53.6884 H         1 UNK         0.0600 
    230 H230       -7.3468  -21.0636  -54.4553 H         1 UNK         0.3000 
    231 H231       -8.2028  -22.1073  -57.0841 H         1 UNK         0.0600 
    232 H232       -9.0015  -24.0213  -55.8001 H         1 UNK         0.0600 
    233 H233       -8.1956  -23.4621  -54.3468 H         1 UNK         0.0600 
    234 H234       -9.5484  -22.5495  -55.0140 H         1 UNK         0.0600 
    235 H235       -5.2373  -21.8137  -55.5131 H         1 UNK         0.3000 
    236 H236       -3.9484  -23.6770  -57.3034 H         1 UNK         0.0600 
    237 H237       -3.5818  -24.0042  -54.2664 H         1 UNK         0.0600 
    238 H238       -4.3943  -25.1608  -55.3116 H         1 UNK         0.0600 
    239 H239       -2.6787  -24.8604  -55.5073 H         1 UNK         0.0600 
    240 H240       -1.4252  -23.4388  -56.6474 H         1 UNK         0.3000 
    241 H241        0.3725  -22.2354  -56.6546 H         1 UNK         0.0600 
    242 H242       -1.5529  -19.5349  -59.1202 H         1 UNK         0.3800 
    243 H243       -2.4039  -20.1942  -57.7332 H         1 UNK         0.3800 
    244 H244       -0.6944  -21.2050  -54.4289 H         1 UNK         0.0800 
    245 H245       -0.8163  -19.7532  -55.3604 H         1 UNK         0.0800 
    246 H246        2.7961  -21.9313  -53.7619 H         1 UNK         0.0800 
    247 H247        1.1078  -22.2310  -53.4741 H         1 UNK         0.0800 
@<TRIPOS>BOND
     1    1    2 1    
     2    1  127 1    
     3    1  128 1    
     4    1  129 1    
     5    2    3 2    
     6    2    4 am   BACKBONE|DICT|INTERRES
     7    4    5 1    
     8    4  130 1    
     9    5    6 1    
    10    5   65 1    
    11    5  131 1    
    12    6    7 1    
    13    6  132 1    
    14    6  133 1    
    15    7    8 1    
    16    8    9 1    
    17    8  134 1    
    18    8  135 1    
    19    9   10 ar   
    20    9   14 ar   
    21   10   11 ar   
    22   10  136 1    
    23   11   12 ar   
    24   11  126 1    
    25   12   13 ar   
    26   12  137 1    
    27   13   14 ar   
    28   13   15 1    
    29   14  138 1    
    30   15   16 1    
    31   15  139 1    
    32   15  140 1    
    33   16   17 1    
    34   17   18 1    
    35   17  141 1    
    36   17  142 1    
    37   18   19 1    
    38   18   67 1    
    39   18  143 1    
    40   19   20 am   BACKBONE|DICT|INTERRES
    41   19  144 1    
    42   20   21 2    
    43   20   22 1    
    44   22   23 1    
    45   22   24 1    
    46   22  145 1    
    47   23  146 1    
    48   23  147 1    
    49   23  148 1    
    50   24   25 am   BACKBONE|DICT|INTERRES
    51   24  149 1    
    52   25   26 2    
    53   25   27 1    
    54   27   28 1    
    55   27   29 1    
    56   27  150 1    
    57   28  151 1    
    58   28  152 1    
    59   28  153 1    
    60   29   30 am   BACKBONE|DICT|INTERRES
    61   29  154 1    
    62   30   31 2    
    63   30   32 1    
    64   32   33 1    
    65   32   34 1    
    66   32  155 1    
    67   33  156 1    
    68   33  157 1    
    69   33  158 1    
    70   34   35 am   BACKBONE|DICT|INTERRES
    71   34  159 1    
    72   35   36 2    
    73   35   37 1    
    74   37   38 1    
    75   37   39 1    
    76   37  160 1    
    77   38  161 1    
    78   38  162 1    
    79   38  163 1    
    80   39   40 am   BACKBONE|DICT|INTERRES
    81   39  164 1    
    82   40   41 2    
    83   40   42 1    
    84   42   43 1    
    85   42   44 1    
    86   42  165 1    
    87   43  166 1    
    88   43  167 1    
    89   43  168 1    
    90   44   45 am   BACKBONE|DICT|INTERRES
    91   44  169 1    
    92   45   46 2    
    93   45   47 1    
    94   47   48 1    
    95   47   49 1    
    96   47  170 1    
    97   48  171 1    
    98   48  172 1    
    99   48  173 1    
   100   49   50 am   BACKBONE|DICT|INTERRES
   101   49  174 1    
   102   50   51 2    
   103   50   52 1    
   104   52   53 1    
   105   52   54 1    
   106   52  175 1    
   107   53  176 1    
   108   53  177 1    
   109   53  178 1    
   110   54   55 am   BACKBONE|DICT|INTERRES
   111   54  179 1    
   112   55   56 2    
   113   55   57 1    
   114   57   58 1    
   115   57   59 1    
   116   57  180 1    
   117   58  181 1    
   118   58  182 1    
   119   58  183 1    
   120   59   60 am   BACKBONE|DICT|INTERRES
   121   59  184 1    
   122   60   61 2    
   123   60   62 1    
   124   62   63 1    
   125   62   64 1    
   126   62  185 1    
   127   63  186 1    
   128   63  187 1    
   129   63  188 1    
   130   64   65 am   BACKBONE|DICT|INTERRES
   131   64  189 1    
   132   65   66 2    
   133   67   68 2    
   134   67   69 am   BACKBONE|DICT|INTERRES
   135   69   70 1    
   136   69  190 1    
   137   70   71 1    
   138   70   72 1    
   139   70  191 1    
   140   71  192 1    
   141   71  193 1    
   142   71  194 1    
   143   72   73 2    
   144   72   74 am   BACKBONE|DICT|INTERRES
   145   74   75 1    
   146   74  195 1    
   147   75   76 1    
   148   75   77 1    
   149   75  196 1    
   150   76  197 1    
   151   76  198 1    
   152   76  199 1    
   153   77   78 2    
   154   77   79 am   BACKBONE|DICT|INTERRES
   155   79   80 1    
   156   79  200 1    
   157   80   81 1    
   158   80   82 1    
   159   80  201 1    
   160   81  202 1    
   161   81  203 1    
   162   81  204 1    
   163   82   83 2    
   164   82   84 am   BACKBONE|DICT|INTERRES
   165   84   85 1    
   166   84  205 1    
   167   85   86 1    
   168   85   87 1    
   169   85  206 1    
   170   86  207 1    
   171   86  208 1    
   172   86  209 1    
   173   87   88 2    
   174   87   89 am   BACKBONE|DICT|INTERRES
   175   89   90 1    
   176   89  210 1    
   177   90   91 1    
   178   90   92 1    
   179   90  211 1    
   180   91  212 1    
   181   91  213 1    
   182   91  214 1    
   183   92   93 2    
   184   92   94 am   BACKBONE|DICT|INTERRES
   185   94   95 1    
   186   94  215 1    
   187   95   96 1    
   188   95   97 1    
   189   95  216 1    
   190   96  217 1    
   191   96  218 1    
   192   96  219 1    
   193   97   98 2    
   194   97   99 am   BACKBONE|DICT|INTERRES
   195   99  100 1    
   196   99  220 1    
   197  100  101 1    
   198  100  102 1    
   199  100  221 1    
   200  101  222 1    
   201  101  223 1    
   202  101  224 1    
   203  102  103 2    
   204  102  104 am   BACKBONE|DICT|INTERRES
   205  104  105 1    
   206  104  225 1    
   207  105  106 1    
   208  105  107 1    
   209  105  226 1    
   210  106  227 1    
   211  106  228 1    
   212  106  229 1    
   213  107  108 2    
   214  107  109 am   BACKBONE|DICT|INTERRES
   215  109  110 1    
   216  109  230 1    
   217  110  111 1    
   218  110  112 1    
   219  110  231 1    
   220  111  232 1    
   221  111  233 1    
   222  111  234 1    
   223  112  113 2    
   224  112  114 am   BACKBONE|DICT|INTERRES
   225  114  115 1    
   226  114  235 1    
   227  115  116 1    
   228  115  117 1    
   229  115  236 1    
   230  116  237 1    
   231  116  238 1    
   232  116  239 1    
   233  117  118 2    
   234  117  119 am   BACKBONE|DICT|INTERRES
   235  119  120 1    
   236  119  240 1    
   237  120  121 1    
   238  120  124 1    
   239  120  241 1    
   240  121  122 am   BACKBONE|DICT|INTERRES
   241  121  123 2    
   242  122  242 1    
   243  122  243 1    
   244  124  125 1    
   245  124  244 1    
   246  124  245 1    
   247  125  126 1    
   248  126  246 1    
   249  126  247 1    
@<TRIPOS>SUBSTRUCTURE
     1 UNK         1 GROUP             0       ****    0 ROOT    
