@<TRIPOS>MOLECULE
3R540
247   249    1
SMALL
USER_CHARGES


@<TRIPOS>ATOM
      1 CA          4.0167  -18.3897  -46.3101 C.3       0 UNK        -0.1800 
      2 C           3.4298  -16.9870  -46.3539 C.2       0 UNK         0.5000 
      3 O           3.6459  -16.2029  -45.4293 O.2       0 UNK        -0.5000 
      4 N           2.6965  -16.6575  -47.4268 N.am      1 UNK        -0.5000 
      5 CA          2.0188  -15.3661  -47.6210 C.3       1 UNK         0.1400 
      6 C6          1.0866  -15.3625  -48.8572 C.3       23 UNK        -0.0398 
      7 S7         -0.2163  -16.6424  -48.7965 S.3       23 UNK        -0.2404 
      8 C8         -1.5846  -15.7093  -48.0396 C.3       23 UNK        -0.0205 
      9 C9         -2.9244  -16.4122  -48.1961 C.ar      23 UNK        -0.0193 
     10 C10        -3.5567  -16.4140  -49.4415 C.ar      23 UNK        -0.1150 
     11 C11        -4.8245  -16.9791  -49.5968 C.ar      23 UNK        -0.0193 
     12 C12        -5.4548  -17.5556  -48.4901 C.ar      23 UNK        -0.1150 
     13 C13        -4.8481  -17.5482  -47.2295 C.ar      23 UNK        -0.0193 
     14 C14        -3.5734  -16.9794  -47.0928 C.ar      23 UNK        -0.1150 
     15 C15        -5.6524  -18.0524  -46.0286 C.3       23 UNK        -0.0205 
     16 S16        -4.6737  -18.7661  -44.6644 S.3       23 UNK        -0.2404 
     17 C17        -4.3564  -20.4570  -45.2721 C.3       23 UNK        -0.0398 
     18 CA         -3.0782  -20.5556  -46.1337 C.3       11 UNK         0.1400 
     19 N          -1.9117  -19.9530  -45.4871 N.am      11 UNK        -0.5000 
     20 C          -0.7620  -19.6784  -46.1123 C.2       10 UNK         0.5000 
     21 O          -0.5659  -19.8906  -47.3068 O.2       10 UNK        -0.5000 
     22 CA          0.3763  -19.1357  -45.2383 C.3       10 UNK         0.1400 
     23 CB          0.2260  -17.6271  -45.0278 C.3       10 UNK        -0.1800 
     24 N           0.4342  -19.8096  -43.9427 N.am      10 UNK        -0.5000 
     25 C           0.8361  -21.0787  -43.7819 C.2       9 UNK         0.5000 
     26 O           1.2476  -21.7810  -44.7043 O.2       9 UNK        -0.5000 
     27 CA          0.7245  -21.6821  -42.3686 C.3       9 UNK         0.1400 
     28 CB          2.0207  -21.4410  -41.5811 C.3       9 UNK        -0.1800 
     29 N          -0.4053  -21.1563  -41.6027 N.am      9 UNK        -0.5000 
     30 C          -1.6972  -21.2805  -41.9405 C.2       8 UNK         0.5000 
     31 O          -2.0890  -21.9195  -42.9167 O.2       8 UNK        -0.5000 
     32 CA         -2.7152  -20.5130  -41.0730 C.3       8 UNK         0.1400 
     33 CB         -3.3015  -21.4317  -39.9915 C.3       8 UNK        -0.1800 
     34 N          -2.1500  -19.3152  -40.4391 N.am      8 UNK        -0.5000 
     35 C          -1.6791  -18.2569  -41.1125 C.2       7 UNK         0.5000 
     36 O          -1.6792  -18.1823  -42.3420 O.2       7 UNK        -0.5000 
     37 CA         -1.0185  -17.1487  -40.2769 C.3       7 UNK         0.1400 
     38 CB          0.4918  -17.4096  -40.1571 C.3       7 UNK        -0.1800 
     39 N          -1.2308  -15.8328  -40.8769 N.am      7 UNK        -0.5000 
     40 C          -2.3696  -15.1335  -40.7640 C.2       6 UNK         0.5000 
     41 O          -3.3411  -15.5257  -40.1153 O.2       6 UNK        -0.5000 
     42 CA         -2.4448  -13.7545  -41.4530 C.3       6 UNK         0.1400 
     43 CB         -2.2743  -12.6304  -40.4187 C.3       6 UNK        -0.1800 
     44 N          -1.4508  -13.5695  -42.5089 N.am      6 UNK        -0.5000 
     45 C          -1.5141  -14.1305  -43.7230 C.2       5 UNK         0.5000 
     46 O          -2.4625  -14.8118  -44.1111 O.2       5 UNK        -0.5000 
     47 CA         -0.3187  -13.8962  -44.6698 C.3       5 UNK         0.1400 
     48 CB         -0.6771  -12.8438  -45.7308 C.3       5 UNK        -0.1800 
     49 N           0.9447  -13.5172  -44.0223 N.am      5 UNK        -0.5000 
     50 C           1.5904  -14.2474  -43.1032 C.2       4 UNK         0.5000 
     51 O           1.1707  -15.3209  -42.6725 O.2       4 UNK        -0.5000 
     52 CA          2.9101  -13.6755  -42.5721 C.3       4 UNK         0.1400 
     53 CB          3.2180  -14.1766  -41.1443 C.3       4 UNK        -0.1800 
     54 N           3.9945  -14.0329  -43.4829 N.am      4 UNK        -0.5000 
     55 C           5.1974  -13.4437  -43.4938 C.2       3 UNK         0.5000 
     56 O           5.4928  -12.4778  -42.7885 O.2       3 UNK        -0.5000 
     57 CA          6.2506  -14.0244  -44.4489 C.3       3 UNK         0.1400 
     58 CB          6.7131  -15.4157  -43.9839 C.3       3 UNK        -0.1800 
     59 N           5.7369  -14.1093  -45.8132 N.am      3 UNK        -0.5000 
     60 C           5.9071  -13.1642  -46.7488 C.2       2 UNK         0.5000 
     61 O           6.5210  -12.1143  -46.5539 O.2       2 UNK        -0.5000 
     62 CA          5.3135  -13.4332  -48.1471 C.3       2 UNK         0.1400 
     63 CB          6.4083  -13.9218  -49.1084 C.3       2 UNK        -0.1800 
     64 N           4.2275  -14.4130  -48.1347 N.am      2 UNK        -0.5000 
     65 C           2.9927  -14.1693  -47.6760 C.2       1 UNK         0.5000 
     66 O           2.6208  -13.0656  -47.2779 O.2       1 UNK        -0.5000 
     67 C          -2.7960  -22.0151  -46.5423 C.2       11 UNK         0.5000 
     68 O          -3.1970  -22.4311  -47.6285 O.2       11 UNK        -0.5000 
     69 N          -2.0649  -22.7513  -45.6919 N.am      12 UNK        -0.5000 
     70 CA         -1.5577  -24.0923  -45.9805 C.3       12 UNK         0.1400 
     71 CB         -0.9372  -24.6984  -44.7137 C.3       12 UNK        -0.1800 
     72 C          -0.5520  -24.0984  -47.1464 C.2       12 UNK         0.5000 
     73 O          -0.6379  -24.9719  -48.0084 O.2       12 UNK        -0.5000 
     74 N           0.3472  -23.1036  -47.1865 N.am      13 UNK        -0.5000 
     75 CA          1.2804  -22.8820  -48.2924 C.3       13 UNK         0.1400 
     76 CB          2.3034  -21.7989  -47.9172 C.3       13 UNK        -0.1800 
     77 C           0.5606  -22.5369  -49.6091 C.2       13 UNK         0.5000 
     78 O           0.9159  -23.0902  -50.6484 O.2       13 UNK        -0.5000 
     79 N          -0.4674  -21.6782  -49.5414 N.am      14 UNK        -0.5000 
     80 CA         -1.3399  -21.3392  -50.6680 C.3       14 UNK         0.1400 
     81 CB         -2.2956  -20.2018  -50.2740 C.3       14 UNK        -0.1800 
     82 C          -2.1236  -22.5542  -51.1978 C.2       14 UNK         0.5000 
     83 O          -2.2562  -22.7067  -52.4124 O.2       14 UNK        -0.5000 
     84 N          -2.6100  -23.4146  -50.2936 N.am      15 UNK        -0.5000 
     85 CA         -3.2615  -24.6813  -50.6275 C.3       15 UNK         0.1400 
     86 CB         -3.9306  -25.2716  -49.3782 C.3       15 UNK        -0.1800 
     87 C          -2.2933  -25.6878  -51.2749 C.2       15 UNK         0.5000 
     88 O          -2.6453  -26.2923  -52.2874 O.2       15 UNK        -0.5000 
     89 N          -1.0786  -25.8139  -50.7209 N.am      16 UNK        -0.5000 
     90 CA         -0.0002  -26.6561  -51.2499 C.3       16 UNK         0.1400 
     91 CB          1.1611  -26.6965  -50.2456 C.3       16 UNK        -0.1800 
     92 C           0.4949  -26.2058  -52.6386 C.2       16 UNK         0.5000 
     93 O           0.8094  -27.0509  -53.4771 O.2       16 UNK        -0.5000 
     94 N           0.5085  -24.8866  -52.8712 N.am      17 UNK        -0.5000 
     95 CA          0.7989  -24.2509  -54.1586 C.3       17 UNK         0.1400 
     96 CB          1.1465  -22.7740  -53.9096 C.3       17 UNK        -0.1800 
     97 C          -0.3508  -24.3670  -55.1833 C.2       17 UNK         0.5000 
     98 O          -0.1684  -23.9596  -56.3311 O.2       17 UNK        -0.5000 
     99 N          -1.5075  -24.8969  -54.7564 N.am      18 UNK        -0.5000 
    100 CA        -2.7518  -25.0757  -55.5111 C.3       18 UNK         0.1400 
    101 CB        -2.5461  -26.0044  -56.7263 C.3       18 UNK        -0.1800 
    102 C         -3.4544  -23.7509  -55.8745 C.2       18 UNK         0.5000 
    103 O         -4.2832  -23.7311  -56.7863 O.2       18 UNK        -0.5000 
    104 N         -3.1450  -22.6750  -55.1381 N.am      19 UNK        -0.5000 
    105 CA        -3.8576  -21.4015  -55.2006 C.3       19 UNK         0.1400 
    106 CB        -2.9394  -20.2652  -54.7216 C.3       19 UNK        -0.1800 
    107 C         -5.1401  -21.4729  -54.3568 C.2       19 UNK         0.5000 
    108 O         -6.1995  -21.0686  -54.8349 O.2       19 UNK        -0.5000 
    109 N         -5.0168  -22.0225  -53.1380 N.am      20 UNK        -0.5000 
    110 CA        -6.0655  -22.2712  -52.1428 C.3       20 UNK         0.1400 
    111 CB        -6.9573  -23.4478  -52.5922 C.3       20 UNK        -0.1800 
    112 C         -6.8626  -21.0018  -51.7780 C.2       20 UNK         0.5000 
    113 O         -6.4423  -20.2602  -50.8912 O.2       20 UNK        -0.5000 
    114 N         -7.9859  -20.7711  -52.4717 N.am      21 UNK        -0.5000 
    115 CA        -8.8072  -19.5618  -52.3723 C.3       21 UNK         0.1400 
    116 CB       -10.1900  -19.8551  -52.9747 C.3       21 UNK        -0.1800 
    117 C         -8.1689  -18.3330  -53.0553 C.2       21 UNK         0.5000 
    118 O         -8.5931  -17.2088  -52.7861 O.2       21 UNK        -0.5000 
    119 N         -7.1658  -18.5674  -53.9118 N.am      22 UNK        -0.5000 
    120 CA        -6.3545  -17.5736  -54.6354 C.3       22 UNK         0.1400 
    121 C         -7.1014  -16.8454  -55.7948 C.2       22 UNK         0.5000 
    122 N         -8.2589  -17.3196  -56.2393 N.am      22 UNK        -0.7600 
    123 O         -6.6131  -15.8512  -56.3255 O.2       22 UNK        -0.5000 
    124 C124       -5.5957  -16.5823  -53.7065 C.3       23 UNK        -0.0398 
    125 S125       -4.6162  -17.3775  -52.3785 S.3       23 UNK        -0.2404 
    126 C126       -5.5741  -16.8521  -50.9170 C.3       23 UNK        -0.0205 
    127 H127        5.1048  -18.3405  -46.3480 H         1 UNK         0.0600 
    128 H128        3.6717  -19.0000  -47.1449 H         1 UNK         0.0600 
    129 H129        3.7304  -18.8869  -45.3832 H         1 UNK         0.0600 
    130 H130        2.5406  -17.3418  -48.1536 H         1 UNK         0.3000 
    131 H131        1.4006  -15.2016  -46.7402 H         1 UNK         0.0600 
    132 H132        0.6147  -14.3860  -48.9808 H         1 UNK         0.0800 
    133 H133        1.6687  -15.5263  -49.7657 H         1 UNK         0.0800 
    134 H134       -1.6558  -14.7209  -48.4956 H         1 UNK         0.0800 
    135 H135       -1.3670  -15.5481  -46.9853 H         1 UNK         0.0800 
    136 H136       -3.0734  -15.9419  -50.2853 H         1 UNK         0.1150 
    137 H137       -6.4501  -17.9635  -48.6002 H         1 UNK         0.1150 
    138 H138       -3.1022  -16.9370  -46.1207 H         1 UNK         0.1150 
    139 H139       -6.2101  -17.2046  -45.6293 H         1 UNK         0.0800 
    140 H140       -6.3995  -18.7808  -46.3475 H         1 UNK         0.0800 
    141 H141       -5.2239  -20.8084  -45.8332 H         1 UNK         0.0800 
    142 H142       -4.2787  -21.1066  -44.3985 H         1 UNK         0.0800 
    143 H143       -3.2596  -19.9976  -47.0546 H         1 UNK         0.0600 
    144 H144       -1.9993  -19.7381  -44.5037 H         1 UNK         0.3000 
    145 H145        1.3151  -19.3155  -45.7640 H         1 UNK         0.0600 
    146 H146        1.0405  -17.2335  -44.4219 H         1 UNK         0.0600 
    147 H147        0.2495  -17.1097  -45.9827 H         1 UNK         0.0600 
    148 H148       -0.7157  -17.3654  -44.5467 H         1 UNK         0.0600 
    149 H149        0.0459  -19.3054  -43.1556 H         1 UNK         0.3000 
    150 H150        0.5828  -22.7591  -42.4761 H         1 UNK         0.0600 
    151 H151        2.8827  -21.8413  -42.1166 H         1 UNK         0.0600 
    152 H152        1.9886  -21.9310  -40.6078 H         1 UNK         0.0600 
    153 H153        2.2008  -20.3776  -41.4171 H         1 UNK         0.0600 
    154 H154       -0.1812  -20.6173  -40.7800 H         1 UNK         0.3000 
    155 H155       -3.5273  -20.1933  -41.7297 H         1 UNK         0.0600 
    156 H156       -2.5374  -21.7660  -39.2887 H         1 UNK         0.0600 
    157 H157       -3.7501  -22.3211  -40.4366 H         1 UNK         0.0600 
    158 H158       -4.0827  -20.9252  -39.4243 H         1 UNK         0.0600 
    159 H159       -2.1084  -19.3165  -39.4299 H         1 UNK         0.3000 
    160 H160       -1.4490  -17.1523  -39.2732 H         1 UNK         0.0600 
    161 H161        0.9896  -16.6099  -39.6083 H         1 UNK         0.0600 
    162 H162        0.9671  -17.4884  -41.1357 H         1 UNK         0.0600 
    163 H163        0.6874  -18.3405  -39.6238 H         1 UNK         0.0600 
    164 H164       -0.4954  -15.4972  -41.4900 H         1 UNK         0.3000 
    165 H165       -3.4399  -13.6632  -41.8937 H         1 UNK         0.0600 
    166 H166       -2.3943  -11.6491  -40.8783 H         1 UNK         0.0600 
    167 H167       -3.0211  -12.7099  -39.6275 H         1 UNK         0.0600 
    168 H168       -1.2916  -12.6638  -39.9467 H         1 UNK         0.0600 
    169 H169       -0.6378  -13.0189  -42.2773 H         1 UNK         0.3000 
    170 H170       -0.1456  -14.8460  -45.1707 H         1 UNK         0.0600 
    171 H171       -1.6151  -13.0900  -46.2305 H         1 UNK         0.0600 
    172 H172       -0.7934  -11.8537  -45.2887 H         1 UNK         0.0600 
    173 H173        0.0889  -12.7793  -46.5023 H         1 UNK         0.0600 
    174 H174        1.3639  -12.6533  -44.3362 H         1 UNK         0.3000 
    175 H175        2.8115  -12.5884  -42.5410 H         1 UNK         0.0600 
    176 H176        2.3802  -13.9837  -40.4730 H         1 UNK         0.0600 
    177 H177        4.0888  -13.6755  -40.7223 H         1 UNK         0.0600 
    178 H178        3.4106  -15.2502  -41.1286 H         1 UNK         0.0600 
    179 H179        3.8135  -14.8151  -44.1095 H         1 UNK         0.3000 
    180 H180        7.1231  -13.3678  -44.4232 H         1 UNK         0.0600 
    181 H181        5.8989  -16.1406  -43.9808 H         1 UNK         0.0600 
    182 H182        7.1155  -15.3726  -42.9711 H         1 UNK         0.0600 
    183 H183        7.5011  -15.8029  -44.6299 H         1 UNK         0.0600 
    184 H184        5.1538  -14.9103  -46.0216 H         1 UNK         0.3000 
    185 H185        4.9239  -12.4864  -48.5276 H         1 UNK         0.0600 
    186 H186        7.2250  -13.2013  -49.1696 H         1 UNK         0.0600 
    187 H187        6.8333  -14.8728  -48.7847 H         1 UNK         0.0600 
    188 H188        6.0175  -14.0537  -50.1176 H         1 UNK         0.0600 
    189 H189        4.4531  -15.3485  -48.4403 H         1 UNK         0.3000 
    190 H190       -1.8372  -22.3608  -44.7820 H         1 UNK         0.3000 
    191 H191       -2.4081  -24.7127  -46.2703 H         1 UNK         0.0600 
    192 H192       -0.0629  -24.1383  -44.3842 H         1 UNK         0.0600 
    193 H193       -0.6188  -25.7262  -44.8913 H         1 UNK         0.0600 
    194 H194       -1.6535  -24.7158  -43.8919 H         1 UNK         0.0600 
    195 H195        0.4011  -22.4551  -46.4084 H         1 UNK         0.3000 
    196 H196        1.8274  -23.8135  -48.4508 H         1 UNK         0.0600 
    197 H197        3.0334  -21.6611  -48.7156 H         1 UNK         0.0600 
    198 H198        2.8543  -22.0714  -47.0169 H         1 UNK         0.0600 
    199 H199        1.8296  -20.8346  -47.7395 H         1 UNK         0.0600 
    200 H200       -0.6513  -21.2039  -48.6605 H         1 UNK         0.3000 
    201 H201       -0.7048  -20.9781  -51.4792 H         1 UNK         0.0600 
    202 H202       -1.7474  -19.3189  -49.9438 H         1 UNK         0.0600 
    203 H203       -2.9672  -20.4953  -49.4679 H         1 UNK         0.0600 
    204 H204       -2.9169  -19.9006  -51.1185 H         1 UNK         0.0600 
    205 H205       -2.5326  -23.1830  -49.3074 H         1 UNK         0.3000 
    206 H206       -4.0458  -24.4730  -51.3571 H         1 UNK         0.0600 
    207 H207       -4.6657  -24.5816  -48.9634 H         1 UNK         0.0600 
    208 H208       -4.4523  -26.1991  -49.6168 H         1 UNK         0.0600 
    209 H209       -3.2050  -25.4950  -48.5966 H         1 UNK         0.0600 
    210 H210       -0.8828  -25.3181  -49.8546 H         1 UNK         0.3000 
    211 H211       -0.3934  -27.6694  -51.3536 H         1 UNK         0.0600 
    212 H212        1.5880  -25.7067  -50.0844 H         1 UNK         0.0600 
    213 H213        1.9621  -27.3461  -50.6002 H         1 UNK         0.0600 
    214 H214        0.8337  -27.0810  -49.2795 H         1 UNK         0.0600 
    215 H215        0.3214  -24.2593  -52.0939 H         1 UNK         0.3000 
    216 H216        1.6729  -24.7387  -54.5946 H         1 UNK         0.0600 
    217 H217        1.4177  -22.2702  -54.8380 H         1 UNK         0.0600 
    218 H218        1.9936  -22.6773  -53.2303 H         1 UNK         0.0600 
    219 H219        0.3056  -22.2322  -53.4757 H         1 UNK         0.0600 
    220 H220       -1.5561  -25.1974  -53.7903 H         1 UNK         0.3000 
    221 H221       -3.4340  -25.5866  -54.8306 H         1 UNK         0.0600 
    222 H222       -3.5019  -26.2819  -57.1719 H         1 UNK         0.0600 
    223 H223       -2.0456  -26.9282  -56.4360 H         1 UNK         0.0600 
    224 H224       -1.9509  -25.5294  -57.5064 H         1 UNK         0.0600 
    225 H225       -2.5016  -22.7921  -54.3618 H         1 UNK         0.3000 
    226 H226       -4.1385  -21.1939  -56.2354 H         1 UNK         0.0600 
    227 H227       -3.4390  -19.2997  -54.8042 H         1 UNK         0.0600 
    228 H228       -2.6416  -20.3871  -53.6803 H         1 UNK         0.0600 
    229 H229       -2.0321  -20.2138  -55.3234 H         1 UNK         0.0600 
    230 H230       -4.0806  -22.2975  -52.8578 H         1 UNK         0.3000 
    231 H231       -5.5564  -22.5780  -51.2280 H         1 UNK         0.0600 
    232 H232       -6.3732  -24.3640  -52.6802 H         1 UNK         0.0600 
    233 H233       -7.4281  -23.2671  -53.5588 H         1 UNK         0.0600 
    234 H234       -7.7492  -23.6395  -51.8670 H         1 UNK         0.0600 
    235 H235       -8.2291  -21.4200  -53.2065 H         1 UNK         0.3000 
    236 H236       -8.9375  -19.3175  -51.3159 H         1 UNK         0.0600 
    237 H237      -10.6802  -20.6782  -52.4544 H         1 UNK         0.0600 
    238 H238      -10.8445  -18.9861  -52.8941 H         1 UNK         0.0600 
    239 H239      -10.1214  -20.1181  -54.0310 H         1 UNK         0.0600 
    240 H240       -6.9161  -19.5348  -54.1011 H         1 UNK         0.3000 
    241 H241       -5.5935  -18.1643  -55.1448 H         1 UNK         0.0600 
    242 H242       -8.7315  -16.8505  -56.9961 H         1 UNK         0.3800 
    243 H243       -8.6659  -18.1426  -55.8252 H         1 UNK         0.3800 
    244 H244       -6.2958  -15.8650  -53.2770 H         1 UNK         0.0800 
    245 H245       -4.8961  -15.9869  -54.2953 H         1 UNK         0.0800 
    246 H246       -6.4985  -17.4284  -50.8834 H         1 UNK         0.0800 
    247 H247       -5.8646  -15.8068  -51.0270 H         1 UNK         0.0800 
@<TRIPOS>BOND
     1    1    2 1    
     2    1  127 1    
     3    1  128 1    
     4    1  129 1    
     5    2    3 2    
     6    2    4 am   BACKBONE|DICT|INTERRES
     7    4    5 1    
     8    4  130 1    
     9    5    6 1    
    10    5   65 1    
    11    5  131 1    
    12    6    7 1    
    13    6  132 1    
    14    6  133 1    
    15    7    8 1    
    16    8    9 1    
    17    8  134 1    
    18    8  135 1    
    19    9   10 ar   
    20    9   14 ar   
    21   10   11 ar   
    22   10  136 1    
    23   11   12 ar   
    24   11  126 1    
    25   12   13 ar   
    26   12  137 1    
    27   13   14 ar   
    28   13   15 1    
    29   14  138 1    
    30   15   16 1    
    31   15  139 1    
    32   15  140 1    
    33   16   17 1    
    34   17   18 1    
    35   17  141 1    
    36   17  142 1    
    37   18   19 1    
    38   18   67 1    
    39   18  143 1    
    40   19   20 am   BACKBONE|DICT|INTERRES
    41   19  144 1    
    42   20   21 2    
    43   20   22 1    
    44   22   23 1    
    45   22   24 1    
    46   22  145 1    
    47   23  146 1    
    48   23  147 1    
    49   23  148 1    
    50   24   25 am   BACKBONE|DICT|INTERRES
    51   24  149 1    
    52   25   26 2    
    53   25   27 1    
    54   27   28 1    
    55   27   29 1    
    56   27  150 1    
    57   28  151 1    
    58   28  152 1    
    59   28  153 1    
    60   29   30 am   BACKBONE|DICT|INTERRES
    61   29  154 1    
    62   30   31 2    
    63   30   32 1    
    64   32   33 1    
    65   32   34 1    
    66   32  155 1    
    67   33  156 1    
    68   33  157 1    
    69   33  158 1    
    70   34   35 am   BACKBONE|DICT|INTERRES
    71   34  159 1    
    72   35   36 2    
    73   35   37 1    
    74   37   38 1    
    75   37   39 1    
    76   37  160 1    
    77   38  161 1    
    78   38  162 1    
    79   38  163 1    
    80   39   40 am   BACKBONE|DICT|INTERRES
    81   39  164 1    
    82   40   41 2    
    83   40   42 1    
    84   42   43 1    
    85   42   44 1    
    86   42  165 1    
    87   43  166 1    
    88   43  167 1    
    89   43  168 1    
    90   44   45 am   BACKBONE|DICT|INTERRES
    91   44  169 1    
    92   45   46 2    
    93   45   47 1    
    94   47   48 1    
    95   47   49 1    
    96   47  170 1    
    97   48  171 1    
    98   48  172 1    
    99   48  173 1    
   100   49   50 am   BACKBONE|DICT|INTERRES
   101   49  174 1    
   102   50   51 2    
   103   50   52 1    
   104   52   53 1    
   105   52   54 1    
   106   52  175 1    
   107   53  176 1    
   108   53  177 1    
   109   53  178 1    
   110   54   55 am   BACKBONE|DICT|INTERRES
   111   54  179 1    
   112   55   56 2    
   113   55   57 1    
   114   57   58 1    
   115   57   59 1    
   116   57  180 1    
   117   58  181 1    
   118   58  182 1    
   119   58  183 1    
   120   59   60 am   BACKBONE|DICT|INTERRES
   121   59  184 1    
   122   60   61 2    
   123   60   62 1    
   124   62   63 1    
   125   62   64 1    
   126   62  185 1    
   127   63  186 1    
   128   63  187 1    
   129   63  188 1    
   130   64   65 am   BACKBONE|DICT|INTERRES
   131   64  189 1    
   132   65   66 2    
   133   67   68 2    
   134   67   69 am   BACKBONE|DICT|INTERRES
   135   69   70 1    
   136   69  190 1    
   137   70   71 1    
   138   70   72 1    
   139   70  191 1    
   140   71  192 1    
   141   71  193 1    
   142   71  194 1    
   143   72   73 2    
   144   72   74 am   BACKBONE|DICT|INTERRES
   145   74   75 1    
   146   74  195 1    
   147   75   76 1    
   148   75   77 1    
   149   75  196 1    
   150   76  197 1    
   151   76  198 1    
   152   76  199 1    
   153   77   78 2    
   154   77   79 am   BACKBONE|DICT|INTERRES
   155   79   80 1    
   156   79  200 1    
   157   80   81 1    
   158   80   82 1    
   159   80  201 1    
   160   81  202 1    
   161   81  203 1    
   162   81  204 1    
   163   82   83 2    
   164   82   84 am   BACKBONE|DICT|INTERRES
   165   84   85 1    
   166   84  205 1    
   167   85   86 1    
   168   85   87 1    
   169   85  206 1    
   170   86  207 1    
   171   86  208 1    
   172   86  209 1    
   173   87   88 2    
   174   87   89 am   BACKBONE|DICT|INTERRES
   175   89   90 1    
   176   89  210 1    
   177   90   91 1    
   178   90   92 1    
   179   90  211 1    
   180   91  212 1    
   181   91  213 1    
   182   91  214 1    
   183   92   93 2    
   184   92   94 am   BACKBONE|DICT|INTERRES
   185   94   95 1    
   186   94  215 1    
   187   95   96 1    
   188   95   97 1    
   189   95  216 1    
   190   96  217 1    
   191   96  218 1    
   192   96  219 1    
   193   97   98 2    
   194   97   99 am   BACKBONE|DICT|INTERRES
   195   99  100 1    
   196   99  220 1    
   197  100  101 1    
   198  100  102 1    
   199  100  221 1    
   200  101  222 1    
   201  101  223 1    
   202  101  224 1    
   203  102  103 2    
   204  102  104 am   BACKBONE|DICT|INTERRES
   205  104  105 1    
   206  104  225 1    
   207  105  106 1    
   208  105  107 1    
   209  105  226 1    
   210  106  227 1    
   211  106  228 1    
   212  106  229 1    
   213  107  108 2    
   214  107  109 am   BACKBONE|DICT|INTERRES
   215  109  110 1    
   216  109  230 1    
   217  110  111 1    
   218  110  112 1    
   219  110  231 1    
   220  111  232 1    
   221  111  233 1    
   222  111  234 1    
   223  112  113 2    
   224  112  114 am   BACKBONE|DICT|INTERRES
   225  114  115 1    
   226  114  235 1    
   227  115  116 1    
   228  115  117 1    
   229  115  236 1    
   230  116  237 1    
   231  116  238 1    
   232  116  239 1    
   233  117  118 2    
   234  117  119 am   BACKBONE|DICT|INTERRES
   235  119  120 1    
   236  119  240 1    
   237  120  121 1    
   238  120  124 1    
   239  120  241 1    
   240  121  122 am   BACKBONE|DICT|INTERRES
   241  121  123 2    
   242  122  242 1    
   243  122  243 1    
   244  124  125 1    
   245  124  244 1    
   246  124  245 1    
   247  125  126 1    
   248  126  246 1    
   249  126  247 1    
@<TRIPOS>SUBSTRUCTURE
     1 UNK         1 GROUP             0       ****    0 ROOT    
