@<TRIPOS>MOLECULE
3R540
247   249    1
SMALL
USER_CHARGES


@<TRIPOS>ATOM
      1 CA         -5.7347  -14.5758  -46.4715 C.3       0 UNK        -0.1800 
      2 C          -4.5554  -13.8452  -45.8452 C.2       0 UNK         0.5000 
      3 O          -4.7048  -13.2180  -44.7967 O.2       0 UNK        -0.5000 
      4 N          -3.3756  -13.9383  -46.4671 N.am      1 UNK        -0.5000 
      5 CA         -2.1356  -13.2698  -46.0602 C.3       1 UNK         0.1400 
      6 C6         -1.2176  -12.9976  -47.2770 C.3       23 UNK        -0.0398 
      7 S7         -1.9955  -12.0937  -48.6591 S.3       23 UNK        -0.2404 
      8 C8         -0.6140  -12.0256  -49.8541 C.3       23 UNK        -0.0205 
      9 C9         -0.0310  -13.4048  -50.1329 C.ar      23 UNK        -0.0193 
     10 C10        -0.6981  -14.2960  -50.9770 C.ar      23 UNK        -0.1150 
     11 C11        -0.2192  -15.5972  -51.1568 C.ar      23 UNK        -0.0193 
     12 C12         0.9550  -15.9903  -50.5074 C.ar      23 UNK        -0.1150 
     13 C13         1.6171  -15.1185  -49.6389 C.ar      23 UNK        -0.0193 
     14 C14         1.1353  -13.8167  -49.4809 C.ar      23 UNK        -0.1150 
     15 C15         2.8155  -15.5913  -48.8217 C.3       23 UNK        -0.0205 
     16 S16         2.4938  -17.1088  -47.8487 S.3       23 UNK        -0.2404 
     17 C17         0.8734  -16.7924  -47.0594 C.3       23 UNK        -0.0398 
     18 CA         -0.2274  -17.6789  -47.6889 C.3       11 UNK         0.1400 
     19 N          -0.0084  -19.1070  -47.4370 N.am      11 UNK        -0.5000 
     20 C          -0.5134  -20.0866  -48.1990 C.2       10 UNK         0.5000 
     21 O          -1.2233  -19.8899  -49.1847 O.2       10 UNK        -0.5000 
     22 CA         -0.2273  -21.5283  -47.7497 C.3       10 UNK         0.1400 
     23 CB          1.1843  -21.9666  -48.1642 C.3       10 UNK        -0.1800 
     24 N          -0.3946  -21.6970  -46.3070 N.am      10 UNK        -0.5000 
     25 C          -1.5729  -21.6184  -45.6738 C.2       9 UNK         0.5000 
     26 O          -2.6387  -21.3829  -46.2396 O.2       9 UNK        -0.5000 
     27 CA         -1.5520  -21.7875  -44.1451 C.3       9 UNK         0.1400 
     28 CB         -1.5421  -23.2755  -43.7651 C.3       9 UNK        -0.1800 
     29 N          -0.4187  -21.1081  -43.5152 N.am      9 UNK        -0.5000 
     30 C          -0.2475  -19.7785  -43.5137 C.2       8 UNK         0.5000 
     31 O          -1.0203  -18.9880  -44.0490 O.2       8 UNK        -0.5000 
     32 CA          1.0259  -19.2448  -42.8433 C.3       8 UNK         0.1400 
     33 CB          0.8638  -19.2175  -41.3162 C.3       8 UNK        -0.1800 
     34 N           2.2300  -19.9996  -43.1844 N.am      8 UNK        -0.5000 
     35 C           2.7077  -20.2130  -44.4170 C.2       7 UNK         0.5000 
     36 O           2.1090  -19.8974  -45.4474 O.2       7 UNK        -0.5000 
     37 CA          4.1119  -20.8517  -44.4861 C.3       7 UNK         0.1400 
     38 CB          4.5895  -21.0801  -45.9310 C.3       7 UNK        -0.1800 
     39 N           5.0918  -20.0111  -43.7957 N.am      7 UNK        -0.5000 
     40 C           5.2604  -19.9265  -42.4677 C.2       6 UNK         0.5000 
     41 O           4.6815  -20.6563  -41.6617 O.2       6 UNK        -0.5000 
     42 CA          6.1765  -18.7975  -41.9540 C.3       6 UNK         0.1400 
     43 CB          7.6072  -19.3158  -41.7449 C.3       6 UNK        -0.1800 
     44 N           6.2079  -17.6402  -42.8541 N.am      6 UNK        -0.5000 
     45 C           5.1654  -16.8339  -43.0991 C.2       5 UNK         0.5000 
     46 O           4.0768  -16.9162  -42.5249 O.2       5 UNK        -0.5000 
     47 CA          5.3712  -15.7988  -44.2112 C.3       5 UNK         0.1400 
     48 CB          5.4337  -16.4899  -45.5871 C.3       5 UNK        -0.1800 
     49 N           4.2774  -14.8322  -44.1937 N.am      5 UNK        -0.5000 
     50 C           4.3488  -13.5941  -44.6929 C.2       4 UNK         0.5000 
     51 O           5.3623  -13.1358  -45.2232 O.2       4 UNK        -0.5000 
     52 CA          3.0927  -12.7070  -44.6048 C.3       4 UNK         0.1400 
     53 CB          2.4148  -12.6048  -45.9780 C.3       4 UNK        -0.1800 
     54 N           2.1053  -13.1266  -43.6031 N.am      4 UNK        -0.5000 
     55 C           2.2628  -12.9463  -42.2824 C.2       3 UNK         0.5000 
     56 O           3.3073  -12.5227  -41.7849 O.2       3 UNK        -0.5000 
     57 CA          1.0652  -13.2333  -41.3521 C.3       3 UNK         0.1400 
     58 CB          0.6223  -11.9463  -40.6355 C.3       3 UNK        -0.1800 
     59 N          -0.0972  -13.7883  -42.0466 N.am      3 UNK        -0.5000 
     60 C          -0.3598  -15.0949  -42.1686 C.2       2 UNK         0.5000 
     61 O           0.3637  -15.9788  -41.7132 O.2       2 UNK        -0.5000 
     62 CA         -1.6470  -15.4862  -42.9253 C.3       2 UNK         0.1400 
     63 CB         -2.7883  -15.7448  -41.9301 C.3       2 UNK        -0.1800 
     64 N          -2.1074  -14.5210  -43.9314 N.am      2 UNK        -0.5000 
     65 C          -1.3948  -14.1009  -44.9845 C.2       1 UNK         0.5000 
     66 O          -0.2025  -14.3729  -45.1283 O.2       1 UNK        -0.5000 
     67 C          -1.6564  -17.2231  -47.3218 C.2       11 UNK         0.5000 
     68 O          -2.1690  -16.2873  -47.9365 O.2       11 UNK        -0.5000 
     69 N          -2.3135  -17.9247  -46.3876 N.am      12 UNK        -0.5000 
     70 CA         -3.7464  -17.7956  -46.1113 C.3       12 UNK         0.1400 
     71 CB         -4.0572  -18.3912  -44.7298 C.3       12 UNK        -0.1800 
     72 C          -4.6388  -18.4539  -47.1855 C.2       12 UNK         0.5000 
     73 O          -5.8470  -18.2179  -47.1805 O.2       12 UNK        -0.5000 
     74 N          -4.0402  -19.2789  -48.0591 N.am      13 UNK        -0.5000 
     75 CA         -4.6685  -20.1183  -49.0851 C.3       13 UNK         0.1400 
     76 CB         -5.3849  -19.2560  -50.1427 C.3       13 UNK        -0.1800 
     77 C          -5.5620  -21.2338  -48.4930 C.2       13 UNK         0.5000 
     78 O          -6.4780  -21.7156  -49.1618 O.2       13 UNK        -0.5000 
     79 N          -5.2672  -21.6365  -47.2510 N.am      14 UNK        -0.5000 
     80 CA         -5.9389  -22.6973  -46.5072 C.3       14 UNK         0.1400 
     81 CB         -5.7425  -22.4285  -45.0056 C.3       14 UNK        -0.1800 
     82 C          -5.3847  -24.0807  -46.8907 C.2       14 UNK         0.5000 
     83 O          -4.3656  -24.1736  -47.5765 O.2       14 UNK        -0.5000 
     84 N          -6.0713  -25.1424  -46.4432 N.am      15 UNK        -0.5000 
     85 CA         -5.7209  -26.5561  -46.6578 C.3       15 UNK         0.1400 
     86 CB         -4.4498  -26.9230  -45.8625 C.3       15 UNK        -0.1800 
     87 C          -5.6255  -26.9370  -48.1534 C.2       15 UNK         0.5000 
     88 O          -4.7658  -27.7286  -48.5431 O.2       15 UNK        -0.5000 
     89 N          -6.5118  -26.3322  -48.9582 N.am      16 UNK        -0.5000 
     90 CA         -6.6298  -26.4385  -50.4158 C.3       16 UNK         0.1400 
     91 CB         -6.9074  -27.8911  -50.8570 C.3       16 UNK        -0.1800 
     92 C          -5.4712  -25.7933  -51.2073 C.2       16 UNK         0.5000 
     93 O          -5.3950  -25.9995  -52.4192 O.2       16 UNK        -0.5000 
     94 N          -4.6265  -24.9723  -50.5588 N.am      17 UNK        -0.5000 
     95 CA         -3.5330  -24.2303  -51.2044 C.3       17 UNK         0.1400 
     96 CB         -2.6705  -23.5426  -50.1372 C.3       17 UNK        -0.1800 
     97 C          -4.0109  -23.2154  -52.2640 C.2       17 UNK         0.5000 
     98 O          -3.2558  -22.9026  -53.1870 O.2       17 UNK        -0.5000 
     99 N          -5.2762  -22.7816  -52.1550 N.am      18 UNK        -0.5000 
    100 CA        -6.0056  -21.9766  -53.1366 C.3       18 UNK         0.1400 
    101 CB        -7.4299  -21.7250  -52.6175 C.3       18 UNK        -0.1800 
    102 C         -6.0732  -22.6008  -54.5454 C.2       18 UNK         0.5000 
    103 O         -6.1654  -21.8560  -55.5210 O.2       18 UNK        -0.5000 
    104 N         -5.9810  -23.9369  -54.6472 N.am      19 UNK        -0.5000 
    105 CA        -5.9314  -24.6713  -55.9167 C.3       19 UNK         0.1400 
    106 CB        -6.0629  -26.1760  -55.6381 C.3       19 UNK        -0.1800 
    107 C         -4.6589  -24.3855  -56.7418 C.2       19 UNK         0.5000 
    108 O         -4.6835  -24.5404  -57.9631 O.2       19 UNK        -0.5000 
    109 N         -3.5882  -23.9492  -56.0662 N.am      20 UNK        -0.5000 
    110 CA        -2.3335  -23.4838  -56.6567 C.3       20 UNK         0.1400 
    111 CB        -1.1848  -24.3342  -56.0865 C.3       20 UNK        -0.1800 
    112 C         -2.1227  -21.9803  -56.3797 C.2       20 UNK         0.5000 
    113 O         -0.9898  -21.5021  -56.4563 O.2       20 UNK        -0.5000 
    114 N         -3.2051  -21.2694  -56.0235 N.am      21 UNK        -0.5000 
    115 CA        -3.3030  -19.8799  -55.5586 C.3       21 UNK         0.1400 
    116 CB        -2.7935  -18.8828  -56.6170 C.3       21 UNK        -0.1800 
    117 C         -2.6438  -19.6346  -54.1874 C.2       21 UNK         0.5000 
    118 O         -3.2965  -19.1001  -53.2906 O.2       21 UNK        -0.5000 
    119 N         -1.3764  -20.0329  -54.0567 N.am      22 UNK        -0.5000 
    120 CA        -0.5277  -19.8826  -52.8677 C.3       22 UNK         0.1400 
    121 C          0.1508  -21.2265  -52.4717 C.2       22 UNK         0.5000 
    122 N         -0.4223  -22.3774  -52.8019 N.am      22 UNK        -0.7600 
    123 O          1.2180  -21.2381  -51.8650 O.2       22 UNK        -0.5000 
    124 C124        0.5077  -18.7299  -53.0273 C.3       23 UNK        -0.0398 
    125 S125       -0.2004  -17.1120  -53.5037 S.3       23 UNK        -0.2404 
    126 C126       -1.0294  -16.5996  -51.9667 C.3       23 UNK        -0.0205 
    127 H127       -6.1247  -15.3240  -45.7812 H         1 UNK         0.0600 
    128 H128       -5.4535  -15.0797  -47.3969 H         1 UNK         0.0600 
    129 H129       -6.5342  -13.8708  -46.6989 H         1 UNK         0.0600 
    130 H130       -3.2808  -14.5308  -47.2845 H         1 UNK         0.3000 
    131 H131       -2.3818  -12.3063  -45.6095 H         1 UNK         0.0600 
    132 H132       -0.8593  -13.9505  -47.6643 H         1 UNK         0.0800 
    133 H133       -0.3387  -12.4325  -46.9705 H         1 UNK         0.0800 
    134 H134        0.1574  -11.3553  -49.4716 H         1 UNK         0.0800 
    135 H135       -0.9694  -11.5827  -50.7856 H         1 UNK         0.0800 
    136 H136       -1.6190  -13.9885  -51.4524 H         1 UNK         0.1150 
    137 H137        1.3198  -17.0000  -50.6158 H         1 UNK         0.1150 
    138 H138        1.6358  -13.1372  -48.8060 H         1 UNK         0.1150 
    139 H139        3.6513  -15.7780  -49.4968 H         1 UNK         0.0800 
    140 H140        3.1465  -14.8108  -48.1353 H         1 UNK         0.0800 
    141 H141        0.6319  -15.7356  -47.1652 H         1 UNK         0.0800 
    142 H142        0.9553  -16.9813  -45.9875 H         1 UNK         0.0800 
    143 H143       -0.1722  -17.5473  -48.7679 H         1 UNK         0.0600 
    144 H144        0.6042  -19.3491  -46.6632 H         1 UNK         0.3000 
    145 H145       -0.9445  -22.1833  -48.2475 H         1 UNK         0.0600 
    146 H146        1.3940  -22.9873  -47.8446 H         1 UNK         0.0600 
    147 H147        1.9496  -21.3151  -47.7430 H         1 UNK         0.0600 
    148 H148        1.2944  -21.9370  -49.2483 H         1 UNK         0.0600 
    149 H149        0.4455  -21.8175  -45.7611 H         1 UNK         0.3000 
    150 H150       -2.4690  -21.3443  -43.7513 H         1 UNK         0.0600 
    151 H151       -2.3846  -23.7995  -44.2192 H         1 UNK         0.0600 
    152 H152       -1.6224  -23.4072  -42.6859 H         1 UNK         0.0600 
    153 H153       -0.6297  -23.7717  -44.0978 H         1 UNK         0.0600 
    154 H154        0.2748  -21.6864  -43.0641 H         1 UNK         0.3000 
    155 H155        1.1757  -18.2202  -43.1905 H         1 UNK         0.0600 
    156 H156        0.7897  -20.2218  -40.8977 H         1 UNK         0.0600 
    157 H157       -0.0363  -18.6727  -41.0283 H         1 UNK         0.0600 
    158 H158        1.7088  -18.7162  -40.8433 H         1 UNK         0.0600 
    159 H159        2.8215  -20.2762  -42.4085 H         1 UNK         0.3000 
    160 H160        4.0602  -21.8232  -43.9904 H         1 UNK         0.0600 
    161 H161        4.6234  -20.1487  -46.4983 H         1 UNK         0.0600 
    162 H162        3.9232  -21.7638  -46.4572 H         1 UNK         0.0600 
    163 H163        5.5856  -21.5223  -45.9522 H         1 UNK         0.0600 
    164 H164        5.5897  -19.3506  -44.3729 H         1 UNK         0.3000 
    165 H165        5.7854  -18.4676  -40.9892 H         1 UNK         0.0600 
    166 H166        8.2476  -18.5447  -41.3162 H         1 UNK         0.0600 
    167 H167        7.6184  -20.1638  -41.0588 H         1 UNK         0.0600 
    168 H168        8.0580  -19.6457  -42.6817 H         1 UNK         0.0600 
    169 H169        7.0692  -17.4929  -43.3608 H         1 UNK         0.3000 
    170 H170        6.3124  -15.2800  -44.0172 H         1 UNK         0.0600 
    171 H171        6.3054  -17.1402  -45.6648 H         1 UNK         0.0600 
    172 H172        4.5506  -17.1053  -45.7603 H         1 UNK         0.0600 
    173 H173        5.5012  -15.7665  -46.3997 H         1 UNK         0.0600 
    174 H174        3.4399  -15.1397  -43.7155 H         1 UNK         0.3000 
    175 H175        3.4362  -11.7054  -44.3369 H         1 UNK         0.0600 
    176 H176        2.0028  -13.5627  -46.2956 H         1 UNK         0.0600 
    177 H177        1.6099  -11.8716  -45.9556 H         1 UNK         0.0600 
    178 H178        3.1214  -12.2823  -46.7438 H         1 UNK         0.0600 
    179 H179        1.2413  -13.5258  -43.9551 H         1 UNK         0.3000 
    180 H180        1.4116  -13.9362  -40.5915 H         1 UNK         0.0600 
    181 H181       -0.1936  -12.1436  -39.9399 H         1 UNK         0.0600 
    182 H182        0.2848  -11.1875  -41.3427 H         1 UNK         0.0600 
    183 H183        1.4405  -11.5152  -40.0571 H         1 UNK         0.0600 
    184 H184       -0.7409  -13.1286  -42.4581 H         1 UNK         0.3000 
    185 H185       -1.4355  -16.4176  -43.4531 H         1 UNK         0.0600 
    186 H186       -2.5137  -16.5216  -41.2152 H         1 UNK         0.0600 
    187 H187       -3.0351  -14.8466  -41.3626 H         1 UNK         0.0600 
    188 H188       -3.6937  -16.0767  -42.4379 H         1 UNK         0.0600 
    189 H189       -3.0771  -14.2310  -43.8790 H         1 UNK         0.3000 
    190 H190       -1.8112  -18.6190  -45.8433 H         1 UNK         0.3000 
    191 H191       -3.9934  -16.7361  -46.0795 H         1 UNK         0.0600 
    192 H192       -5.1077  -18.2542  -44.4708 H         1 UNK         0.0600 
    193 H193       -3.4678  -17.9113  -43.9505 H         1 UNK         0.0600 
    194 H194       -3.8489  -19.4604  -44.6964 H         1 UNK         0.0600 
    195 H195       -3.0400  -19.4052  -47.9700 H         1 UNK         0.3000 
    196 H196       -3.8471  -20.6232  -49.5925 H         1 UNK         0.0600 
    197 H197       -6.3056  -18.8177  -49.7572 H         1 UNK         0.0600 
    198 H198       -4.7435  -18.4463  -50.4914 H         1 UNK         0.0600 
    199 H199       -5.6441  -19.8522  -51.0158 H         1 UNK         0.0600 
    200 H200       -4.4003  -21.2995  -46.8394 H         1 UNK         0.3000 
    201 H201       -7.0063  -22.6734  -46.7357 H         1 UNK         0.0600 
    202 H202       -4.6924  -22.4941  -44.7192 H         1 UNK         0.0600 
    203 H203       -6.2929  -23.1479  -44.3984 H         1 UNK         0.0600 
    204 H204       -6.1005  -21.4353  -44.7332 H         1 UNK         0.0600 
    205 H205       -6.9040  -24.9806  -45.8936 H         1 UNK         0.3000 
    206 H206       -6.5444  -27.1437  -46.2495 H         1 UNK         0.0600 
    207 H207       -4.5520  -26.6555  -44.8109 H         1 UNK         0.0600 
    208 H208       -4.2564  -27.9954  -45.9058 H         1 UNK         0.0600 
    209 H209       -3.5668  -26.4157  -46.2525 H         1 UNK         0.0600 
    210 H210       -7.1600  -25.6911  -48.5225 H         1 UNK         0.3000 
    211 H211       -7.5131  -25.8537  -50.6762 H         1 UNK         0.0600 
    212 H212       -7.1778  -27.9342  -51.9127 H         1 UNK         0.0600 
    213 H213       -7.7351  -28.3238  -50.2951 H         1 UNK         0.0600 
    214 H214       -6.0361  -28.5319  -50.7210 H         1 UNK         0.0600 
    215 H215       -4.7237  -24.8468  -49.5571 H         1 UNK         0.3000 
    216 H216       -2.9052  -24.9571  -51.7239 H         1 UNK         0.0600 
    217 H217       -3.2514  -22.8422  -49.5409 H         1 UNK         0.0600 
    218 H218       -1.8501  -22.9827  -50.5842 H         1 UNK         0.0600 
    219 H219       -2.2313  -24.2723  -49.4569 H         1 UNK         0.0600 
    220 H220       -5.8030  -23.0747  -51.3445 H         1 UNK         0.3000 
    221 H221       -5.4902  -21.0185  -53.2252 H         1 UNK         0.0600 
    222 H222       -7.4250  -21.2151  -51.6553 H         1 UNK         0.0600 
    223 H223       -7.9825  -22.6575  -52.4959 H         1 UNK         0.0600 
    224 H224       -7.9932  -21.0978  -53.3098 H         1 UNK         0.0600 
    225 H225       -5.8768  -24.4927  -53.8051 H         1 UNK         0.3000 
    226 H226       -6.7889  -24.3597  -56.5166 H         1 UNK         0.0600 
    227 H227       -5.2126  -26.5546  -55.0696 H         1 UNK         0.0600 
    228 H228       -6.9692  -26.3974  -55.0740 H         1 UNK         0.0600 
    229 H229       -6.1120  -26.7422  -56.5690 H         1 UNK         0.0600 
    230 H230       -3.6637  -23.8296  -55.0619 H         1 UNK         0.3000 
    231 H231       -2.3461  -23.6063  -57.7413 H         1 UNK         0.0600 
    232 H232       -1.0981  -24.2175  -55.0058 H         1 UNK         0.0600 
    233 H233       -0.2273  -24.0540  -56.5272 H         1 UNK         0.0600 
    234 H234       -1.3387  -25.3927  -56.2966 H         1 UNK         0.0600 
    235 H235       -4.0866  -21.7674  -55.9981 H         1 UNK         0.3000 
    236 H236       -4.3697  -19.6915  -55.4282 H         1 UNK         0.0600 
    237 H237       -3.3083  -19.0202  -57.5677 H         1 UNK         0.0600 
    238 H238       -2.9706  -17.8557  -56.2956 H         1 UNK         0.0600 
    239 H239       -1.7230  -18.9833  -56.7966 H         1 UNK         0.0600 
    240 H240       -0.9516  -20.5085  -54.8484 H         1 UNK         0.3000 
    241 H241       -1.1610  -19.6478  -52.0117 H         1 UNK         0.0600 
    242 H242        0.0389  -23.2378  -52.5572 H         1 UNK         0.3800 
    243 H243       -1.3524  -22.3997  -53.2062 H         1 UNK         0.3800 
    244 H244        1.2389  -18.9984  -53.7913 H         1 UNK         0.0800 
    245 H245        1.0760  -18.6042  -52.1065 H         1 UNK         0.0800 
    246 H246       -1.2540  -17.4635  -51.3407 H         1 UNK         0.0800 
    247 H247       -1.9977  -16.1744  -52.2348 H         1 UNK         0.0800 
@<TRIPOS>BOND
     1    1    2 1    
     2    1  127 1    
     3    1  128 1    
     4    1  129 1    
     5    2    3 2    
     6    2    4 am   BACKBONE|DICT|INTERRES
     7    4    5 1    
     8    4  130 1    
     9    5    6 1    
    10    5   65 1    
    11    5  131 1    
    12    6    7 1    
    13    6  132 1    
    14    6  133 1    
    15    7    8 1    
    16    8    9 1    
    17    8  134 1    
    18    8  135 1    
    19    9   10 ar   
    20    9   14 ar   
    21   10   11 ar   
    22   10  136 1    
    23   11   12 ar   
    24   11  126 1    
    25   12   13 ar   
    26   12  137 1    
    27   13   14 ar   
    28   13   15 1    
    29   14  138 1    
    30   15   16 1    
    31   15  139 1    
    32   15  140 1    
    33   16   17 1    
    34   17   18 1    
    35   17  141 1    
    36   17  142 1    
    37   18   19 1    
    38   18   67 1    
    39   18  143 1    
    40   19   20 am   BACKBONE|DICT|INTERRES
    41   19  144 1    
    42   20   21 2    
    43   20   22 1    
    44   22   23 1    
    45   22   24 1    
    46   22  145 1    
    47   23  146 1    
    48   23  147 1    
    49   23  148 1    
    50   24   25 am   BACKBONE|DICT|INTERRES
    51   24  149 1    
    52   25   26 2    
    53   25   27 1    
    54   27   28 1    
    55   27   29 1    
    56   27  150 1    
    57   28  151 1    
    58   28  152 1    
    59   28  153 1    
    60   29   30 am   BACKBONE|DICT|INTERRES
    61   29  154 1    
    62   30   31 2    
    63   30   32 1    
    64   32   33 1    
    65   32   34 1    
    66   32  155 1    
    67   33  156 1    
    68   33  157 1    
    69   33  158 1    
    70   34   35 am   BACKBONE|DICT|INTERRES
    71   34  159 1    
    72   35   36 2    
    73   35   37 1    
    74   37   38 1    
    75   37   39 1    
    76   37  160 1    
    77   38  161 1    
    78   38  162 1    
    79   38  163 1    
    80   39   40 am   BACKBONE|DICT|INTERRES
    81   39  164 1    
    82   40   41 2    
    83   40   42 1    
    84   42   43 1    
    85   42   44 1    
    86   42  165 1    
    87   43  166 1    
    88   43  167 1    
    89   43  168 1    
    90   44   45 am   BACKBONE|DICT|INTERRES
    91   44  169 1    
    92   45   46 2    
    93   45   47 1    
    94   47   48 1    
    95   47   49 1    
    96   47  170 1    
    97   48  171 1    
    98   48  172 1    
    99   48  173 1    
   100   49   50 am   BACKBONE|DICT|INTERRES
   101   49  174 1    
   102   50   51 2    
   103   50   52 1    
   104   52   53 1    
   105   52   54 1    
   106   52  175 1    
   107   53  176 1    
   108   53  177 1    
   109   53  178 1    
   110   54   55 am   BACKBONE|DICT|INTERRES
   111   54  179 1    
   112   55   56 2    
   113   55   57 1    
   114   57   58 1    
   115   57   59 1    
   116   57  180 1    
   117   58  181 1    
   118   58  182 1    
   119   58  183 1    
   120   59   60 am   BACKBONE|DICT|INTERRES
   121   59  184 1    
   122   60   61 2    
   123   60   62 1    
   124   62   63 1    
   125   62   64 1    
   126   62  185 1    
   127   63  186 1    
   128   63  187 1    
   129   63  188 1    
   130   64   65 am   BACKBONE|DICT|INTERRES
   131   64  189 1    
   132   65   66 2    
   133   67   68 2    
   134   67   69 am   BACKBONE|DICT|INTERRES
   135   69   70 1    
   136   69  190 1    
   137   70   71 1    
   138   70   72 1    
   139   70  191 1    
   140   71  192 1    
   141   71  193 1    
   142   71  194 1    
   143   72   73 2    
   144   72   74 am   BACKBONE|DICT|INTERRES
   145   74   75 1    
   146   74  195 1    
   147   75   76 1    
   148   75   77 1    
   149   75  196 1    
   150   76  197 1    
   151   76  198 1    
   152   76  199 1    
   153   77   78 2    
   154   77   79 am   BACKBONE|DICT|INTERRES
   155   79   80 1    
   156   79  200 1    
   157   80   81 1    
   158   80   82 1    
   159   80  201 1    
   160   81  202 1    
   161   81  203 1    
   162   81  204 1    
   163   82   83 2    
   164   82   84 am   BACKBONE|DICT|INTERRES
   165   84   85 1    
   166   84  205 1    
   167   85   86 1    
   168   85   87 1    
   169   85  206 1    
   170   86  207 1    
   171   86  208 1    
   172   86  209 1    
   173   87   88 2    
   174   87   89 am   BACKBONE|DICT|INTERRES
   175   89   90 1    
   176   89  210 1    
   177   90   91 1    
   178   90   92 1    
   179   90  211 1    
   180   91  212 1    
   181   91  213 1    
   182   91  214 1    
   183   92   93 2    
   184   92   94 am   BACKBONE|DICT|INTERRES
   185   94   95 1    
   186   94  215 1    
   187   95   96 1    
   188   95   97 1    
   189   95  216 1    
   190   96  217 1    
   191   96  218 1    
   192   96  219 1    
   193   97   98 2    
   194   97   99 am   BACKBONE|DICT|INTERRES
   195   99  100 1    
   196   99  220 1    
   197  100  101 1    
   198  100  102 1    
   199  100  221 1    
   200  101  222 1    
   201  101  223 1    
   202  101  224 1    
   203  102  103 2    
   204  102  104 am   BACKBONE|DICT|INTERRES
   205  104  105 1    
   206  104  225 1    
   207  105  106 1    
   208  105  107 1    
   209  105  226 1    
   210  106  227 1    
   211  106  228 1    
   212  106  229 1    
   213  107  108 2    
   214  107  109 am   BACKBONE|DICT|INTERRES
   215  109  110 1    
   216  109  230 1    
   217  110  111 1    
   218  110  112 1    
   219  110  231 1    
   220  111  232 1    
   221  111  233 1    
   222  111  234 1    
   223  112  113 2    
   224  112  114 am   BACKBONE|DICT|INTERRES
   225  114  115 1    
   226  114  235 1    
   227  115  116 1    
   228  115  117 1    
   229  115  236 1    
   230  116  237 1    
   231  116  238 1    
   232  116  239 1    
   233  117  118 2    
   234  117  119 am   BACKBONE|DICT|INTERRES
   235  119  120 1    
   236  119  240 1    
   237  120  121 1    
   238  120  124 1    
   239  120  241 1    
   240  121  122 am   BACKBONE|DICT|INTERRES
   241  121  123 2    
   242  122  242 1    
   243  122  243 1    
   244  124  125 1    
   245  124  244 1    
   246  124  245 1    
   247  125  126 1    
   248  126  246 1    
   249  126  247 1    
@<TRIPOS>SUBSTRUCTURE
     1 UNK         1 GROUP             0       ****    0 ROOT    
