@<TRIPOS>MOLECULE
3R540
247   249    1
SMALL
USER_CHARGES


@<TRIPOS>ATOM
      1 CA          4.2597   -9.8206  -52.6170 C.3       0 UNK        -0.1800 
      2 C           4.0814  -11.2959  -52.2863 C.2       0 UNK         0.5000 
      3 O           4.8615  -12.1269  -52.7528 O.2       0 UNK        -0.5000 
      4 N           3.0547  -11.6238  -51.4919 N.am      1 UNK        -0.5000 
      5 CA          2.7676  -12.9775  -51.0078 C.3       1 UNK         0.1400 
      6 C6          1.3240  -13.0711  -50.4570 C.3       23 UNK        -0.0398 
      7 S7          0.6922  -14.7808  -50.4515 S.3       23 UNK        -0.2404 
      8 C8          0.2180  -14.9953  -48.7087 C.3       23 UNK        -0.0205 
      9 C9         -0.0630  -16.4595  -48.4196 C.ar      23 UNK        -0.0193 
     10 C10        -1.3309  -16.9978  -48.6659 C.ar      23 UNK        -0.1150 
     11 C11        -1.5808  -18.3536  -48.4346 C.ar      23 UNK        -0.0193 
     12 C12        -0.5510  -19.1672  -47.9582 C.ar      23 UNK        -0.1150 
     13 C13         0.7165  -18.6411  -47.7033 C.ar      23 UNK        -0.0193 
     14 C14         0.9558  -17.2851  -47.9339 C.ar      23 UNK        -0.1150 
     15 C15         1.8276  -19.5581  -47.2227 C.3       23 UNK        -0.0205 
     16 S16         1.5178  -20.1683  -45.5350 S.3       23 UNK        -0.2404 
     17 C17         2.4870  -21.7193  -45.5741 C.3       23 UNK        -0.0398 
     18 CA          1.7239  -23.0488  -45.8602 C.3       11 UNK         0.1400 
     19 N           1.3895  -23.7933  -44.6440 N.am      11 UNK        -0.5000 
     20 C           1.1795  -25.1184  -44.6193 C.2       10 UNK         0.5000 
     21 O           1.2578  -25.8408  -45.6141 O.2       10 UNK        -0.5000 
     22 CA          0.7890  -25.7344  -43.2643 C.3       10 UNK         0.1400 
     23 CB          2.0371  -25.9981  -42.4089 C.3       10 UNK        -0.1800 
     24 N          -0.1447  -24.8942  -42.5149 N.am      10 UNK        -0.5000 
     25 C          -1.4141  -24.6682  -42.8800 C.2       9 UNK         0.5000 
     26 O          -1.9387  -25.1650  -43.8767 O.2       9 UNK        -0.5000 
     27 CA         -2.2131  -23.6800  -42.0088 C.3       9 UNK         0.1400 
     28 CB         -2.8104  -24.3954  -40.7878 C.3       9 UNK        -0.1800 
     29 N          -1.4300  -22.5214  -41.5620 N.am      9 UNK        -0.5000 
     30 C          -0.8442  -21.6446  -42.3874 C.2       8 UNK         0.5000 
     31 O          -0.8451  -21.7619  -43.6135 O.2       8 UNK        -0.5000 
     32 CA         -0.1028  -20.4644  -41.7487 C.3       8 UNK         0.1400 
     33 CB          1.3498  -20.8552  -41.4344 C.3       8 UNK        -0.1800 
     34 N          -0.0993  -19.3644  -42.7083 N.am      8 UNK        -0.5000 
     35 C          -0.6119  -18.1511  -42.4997 C.2       7 UNK         0.5000 
     36 O          -1.0496  -17.7657  -41.4106 O.2       7 UNK        -0.5000 
     37 CA         -0.6606  -17.2144  -43.7169 C.3       7 UNK         0.1400 
     38 CB         -1.7727  -17.6320  -44.6961 C.3       7 UNK        -0.1800 
     39 N          -0.8881  -15.8626  -43.2203 N.am      7 UNK        -0.5000 
     40 C          -0.7000  -14.7185  -43.8823 C.2       6 UNK         0.5000 
     41 O          -0.4084  -14.6556  -45.0780 O.2       6 UNK        -0.5000 
     42 CA         -0.8548  -13.4374  -43.0409 C.3       6 UNK         0.1400 
     43 CB          0.1304  -13.4224  -41.8569 C.3       6 UNK        -0.1800 
     44 N          -0.6116  -12.2466  -43.8505 N.am      6 UNK        -0.5000 
     45 C          -1.5623  -11.4863  -44.4075 C.2       5 UNK         0.5000 
     46 O          -2.7688  -11.6930  -44.2659 O.2       5 UNK        -0.5000 
     47 CA         -1.1063  -10.2701  -45.2412 C.3       5 UNK         0.1400 
     48 CB         -1.3984   -8.9622  -44.4879 C.3       5 UNK        -0.1800 
     49 N           0.3157  -10.2981  -45.5883 N.am      5 UNK        -0.5000 
     50 C           0.8445  -11.0405  -46.5683 C.2       4 UNK         0.5000 
     51 O           0.1745  -11.7544  -47.3145 O.2       4 UNK        -0.5000 
     52 CA          2.3758  -10.9829  -46.7596 C.3       4 UNK         0.1400 
     53 CB          3.0958   -9.9534  -45.8591 C.3       4 UNK        -0.1800 
     54 N           2.9892  -12.3055  -46.6157 N.am      4 UNK        -0.5000 
     55 C           2.9183  -13.1202  -45.5498 C.2       3 UNK         0.5000 
     56 O           2.3453  -12.8159  -44.5025 O.2       3 UNK        -0.5000 
     57 CA          3.6174  -14.4912  -45.6665 C.3       3 UNK         0.1400 
     58 CB          2.8142  -15.6274  -45.0095 C.3       3 UNK        -0.1800 
     59 N           3.8763  -14.8444  -47.0637 N.am      3 UNK        -0.5000 
     60 C           5.0782  -15.1095  -47.5865 C.2       2 UNK         0.5000 
     61 O           6.1216  -15.1388  -46.9330 O.2       2 UNK        -0.5000 
     62 CA          5.1320  -15.3791  -49.1044 C.3       2 UNK         0.1400 
     63 CB          5.0983  -16.8921  -49.3723 C.3       2 UNK        -0.1800 
     64 N           4.0785  -14.7382  -49.9030 N.am      2 UNK        -0.5000 
     65 C           3.8178  -13.4247  -49.9652 C.2       1 UNK         0.5000 
     66 O           4.3463  -12.5869  -49.2299 O.2       1 UNK        -0.5000 
     67 C           0.4988  -22.9413  -46.7949 C.2       11 UNK         0.5000 
     68 O           0.6544  -23.0960  -48.0033 O.2       11 UNK        -0.5000 
     69 N          -0.6995  -22.7488  -46.2234 N.am      12 UNK        -0.5000 
     70 CA         -1.9803  -22.7561  -46.9292 C.3       12 UNK         0.1400 
     71 CB         -3.1043  -22.3198  -45.9799 C.3       12 UNK        -0.1800 
     72 C          -2.2942  -24.1140  -47.5730 C.2       12 UNK         0.5000 
     73 O          -2.7512  -24.1408  -48.7145 O.2       12 UNK        -0.5000 
     74 N          -2.0028  -25.2124  -46.8622 N.am      13 UNK        -0.5000 
     75 CA         -2.1142  -26.5765  -47.3800 C.3       13 UNK         0.1400 
     76 CB         -1.8734  -27.5867  -46.2484 C.3       13 UNK        -0.1800 
     77 C          -1.1643  -26.8325  -48.5650 C.2       13 UNK         0.5000 
     78 O          -1.5987  -27.3759  -49.5811 O.2       13 UNK        -0.5000 
     79 N           0.0956  -26.3901  -48.4372 N.am      14 UNK        -0.5000 
     80 CA          1.1112  -26.4611  -49.4919 C.3       14 UNK         0.1400 
     81 CB          2.4789  -26.0738  -48.9099 C.3       14 UNK        -0.1800 
     82 C           0.7713  -25.5910  -50.7195 C.2       14 UNK         0.5000 
     83 O           1.0154  -26.0111  -51.8507 O.2       14 UNK        -0.5000 
     84 N           0.1856  -24.4119  -50.4745 N.am      15 UNK        -0.5000 
     85 CA         -0.2756  -23.4570  -51.4845 C.3       15 UNK         0.1400 
     86 CB         -0.3612  -22.0649  -50.8382 C.3       15 UNK        -0.1800 
     87 C          -1.6190  -23.8398  -52.1441 C.2       15 UNK         0.5000 
     88 O          -2.0650  -23.1237  -53.0403 O.2       15 UNK        -0.5000 
     89 N          -2.2347  -24.9457  -51.6996 N.am      16 UNK        -0.5000 
     90 CA         -3.5040  -25.5125  -52.1644 C.3       16 UNK         0.1400 
     91 CB         -3.4062  -25.9792  -53.6321 C.3       16 UNK        -0.1800 
     92 C          -4.7225  -24.6092  -51.8773 C.2       16 UNK         0.5000 
     93 O          -5.6370  -24.5179  -52.6997 O.2       16 UNK        -0.5000 
     94 N          -4.7175  -23.9935  -50.6859 N.am      17 UNK        -0.5000 
     95 CA         -5.7937  -23.2415  -50.0397 C.3       17 UNK         0.1400 
     96 CB         -6.8415  -24.2187  -49.4665 C.3       17 UNK        -0.1800 
     97 C          -6.4007  -22.1452  -50.9352 C.2       17 UNK         0.5000 
     98 O          -5.8066  -21.0736  -51.0724 O.2       17 UNK        -0.5000 
     99 N          -7.5673  -22.4321  -51.5294 N.am      18 UNK        -0.5000 
    100 CA        -8.3312  -21.5567  -52.4190 C.3       18 UNK         0.1400 
    101 CB        -9.6298  -22.2673  -52.8261 C.3       18 UNK        -0.1800 
    102 C         -7.5581  -21.0889  -53.6647 C.2       18 UNK         0.5000 
    103 O         -7.8267  -19.9918  -54.1539 O.2       18 UNK        -0.5000 
    104 N         -6.5756  -21.8821  -54.1166 N.am      19 UNK        -0.5000 
    105 CA        -5.6625  -21.5341  -55.2093 C.3       19 UNK         0.1400 
    106 CB        -4.8116  -22.7620  -55.5590 C.3       19 UNK        -0.1800 
    107 C         -4.7575  -20.3220  -54.8988 C.2       19 UNK         0.5000 
    108 O         -4.3072  -19.6545  -55.8306 O.2       19 UNK        -0.5000 
    109 N         -4.5314  -20.0476  -53.6073 N.am      20 UNK        -0.5000 
    110 CA        -3.7825  -18.9000  -53.0953 C.3       20 UNK         0.1400 
    111 CB        -2.6018  -19.4291  -52.2679 C.3       20 UNK        -0.1800 
    112 C         -4.6814  -17.9466  -52.2800 C.2       20 UNK         0.5000 
    113 O         -4.1634  -17.0538  -51.6097 O.2       20 UNK        -0.5000 
    114 N         -6.0068  -18.1429  -52.3574 N.am      21 UNK        -0.5000 
    115 CA        -7.0676  -17.3852  -51.6845 C.3       21 UNK         0.1400 
    116 CB        -7.0673  -15.9073  -52.1299 C.3       21 UNK        -0.1800 
    117 C         -7.1059  -17.5518  -50.1476 C.2       21 UNK         0.5000 
    118 O         -7.6709  -16.6978  -49.4622 O.2       21 UNK        -0.5000 
    119 N         -6.5659  -18.6649  -49.6321 N.am      22 UNK        -0.5000 
    120 CA        -6.7048  -19.0873  -48.2242 C.3       22 UNK         0.1400 
    121 C         -7.9929  -19.9237  -47.9498 C.2       22 UNK         0.5000 
    122 N         -8.8448  -20.1921  -48.9317 N.am      22 UNK        -0.7600 
    123 O         -8.2362  -20.3275  -46.8163 O.2       22 UNK        -0.5000 
    124 C124       -5.4378  -19.8241  -47.7137 C.3       23 UNK        -0.0398 
    125 S125       -4.0733  -18.6885  -47.3062 S.3       23 UNK        -0.2404 
    126 C126       -2.9523  -18.9477  -48.7088 C.3       23 UNK        -0.0205 
    127 H127        3.4934   -9.2037  -52.1468 H         1 UNK         0.0600 
    128 H128        5.2337   -9.4743  -52.2715 H         1 UNK         0.0600 
    129 H129        4.2048   -9.6680  -53.6948 H         1 UNK         0.0600 
    130 H130        2.4678  -10.8900  -51.1223 H         1 UNK         0.3000 
    131 H131        2.8473  -13.6418  -51.8716 H         1 UNK         0.0600 
    132 H132        0.6454  -12.4955  -51.0884 H         1 UNK         0.0800 
    133 H133        1.2526  -12.6270  -49.4648 H         1 UNK         0.0800 
    134 H134       -0.6646  -14.3914  -48.4910 H         1 UNK         0.0800 
    135 H135        1.0068  -14.6276  -48.0516 H         1 UNK         0.0800 
    136 H136       -2.1206  -16.3655  -49.0472 H         1 UNK         0.1150 
    137 H137       -0.7271  -20.2157  -47.7820 H         1 UNK         0.1150 
    138 H138        1.9395  -16.8779  -47.7540 H         1 UNK         0.1150 
    139 H139        1.8988  -20.3972  -47.9165 H         1 UNK         0.0800 
    140 H140        2.7936  -19.0515  -47.2480 H         1 UNK         0.0800 
    141 H141        3.2704  -21.5994  -46.3240 H         1 UNK         0.0800 
    142 H142        3.0292  -21.7959  -44.6309 H         1 UNK         0.0800 
    143 H143        2.4400  -23.6742  -46.3989 H         1 UNK         0.0600 
    144 H144        1.2362  -23.2542  -43.8053 H         1 UNK         0.3000 
    145 H145        0.3029  -26.6922  -43.4623 H         1 UNK         0.0600 
    146 H146        1.7777  -26.5053  -41.4794 H         1 UNK         0.0600 
    147 H147        2.7453  -26.6363  -42.9392 H         1 UNK         0.0600 
    148 H148        2.5558  -25.0731  -42.1536 H         1 UNK         0.0600 
    149 H149        0.2069  -24.4422  -41.6838 H         1 UNK         0.3000 
    150 H150       -3.0381  -23.3036  -42.6170 H         1 UNK         0.0600 
    151 H151       -3.4120  -25.2526  -41.0934 H         1 UNK         0.0600 
    152 H152       -3.4611  -23.7301  -40.2200 H         1 UNK         0.0600 
    153 H153       -2.0343  -24.7620  -40.1149 H         1 UNK         0.0600 
    154 H154       -1.3761  -22.3712  -40.5648 H         1 UNK         0.3000 
    155 H155       -0.6139  -20.1846  -40.8254 H         1 UNK         0.0600 
    156 H156        1.8920  -20.0197  -40.9914 H         1 UNK         0.0600 
    157 H157        1.8887  -21.1627  -42.3315 H         1 UNK         0.0600 
    158 H158        1.3905  -21.6820  -40.7244 H         1 UNK         0.0600 
    159 H159        0.1711  -19.6311  -43.6480 H         1 UNK         0.3000 
    160 H160        0.3061  -17.2517  -44.2228 H         1 UNK         0.0600 
    161 H161       -2.7574  -17.5916  -44.2298 H         1 UNK         0.0600 
    162 H162       -1.6192  -18.6510  -45.0544 H         1 UNK         0.0600 
    163 H163       -1.7915  -16.9880  -45.5754 H         1 UNK         0.0600 
    164 H164       -1.1170  -15.8433  -42.2333 H         1 UNK         0.3000 
    165 H165       -1.8706  -13.4204  -42.6409 H         1 UNK         0.0600 
    166 H166        1.1628  -13.5343  -42.1897 H         1 UNK         0.0600 
    167 H167        0.0599  -12.4886  -41.2987 H         1 UNK         0.0600 
    168 H168       -0.0766  -14.2300  -41.1541 H         1 UNK         0.0600 
    169 H169        0.3566  -12.0845  -44.1025 H         1 UNK         0.3000 
    170 H170       -1.6929  -10.2686  -46.1623 H         1 UNK         0.0600 
    171 H171       -2.4580   -8.8797  -44.2421 H         1 UNK         0.0600 
    172 H172       -0.8394   -8.9029  -43.5533 H         1 UNK         0.0600 
    173 H173       -1.1387   -8.0923  -45.0916 H         1 UNK         0.0600 
    174 H174        0.9342   -9.7495  -45.0087 H         1 UNK         0.3000 
    175 H175        2.5389  -10.6819  -47.7954 H         1 UNK         0.0600 
    176 H176        2.9923  -10.1851  -44.7985 H         1 UNK         0.0600 
    177 H177        4.1620   -9.9235  -46.0842 H         1 UNK         0.0600 
    178 H178        2.7093   -8.9467  -46.0225 H         1 UNK         0.0600 
    179 H179        3.5230  -12.6140  -47.4218 H         1 UNK         0.3000 
    180 H180        4.5560  -14.3884  -45.1187 H         1 UNK         0.0600 
    181 H181        1.8748  -15.8026  -45.5317 H         1 UNK         0.0600 
    182 H182        2.5779  -15.4022  -43.9689 H         1 UNK         0.0600 
    183 H183        3.3758  -16.5615  -45.0191 H         1 UNK         0.0600 
    184 H184        3.0818  -14.8286  -47.6848 H         1 UNK         0.3000 
    185 H185        6.0874  -14.9908  -49.4628 H         1 UNK         0.0600 
    186 H186        5.8817  -17.4074  -48.8147 H         1 UNK         0.0600 
    187 H187        4.1440  -17.3315  -49.0790 H         1 UNK         0.0600 
    188 H188        5.2583  -17.1105  -50.4283 H         1 UNK         0.0600 
    189 H189        3.5672  -15.3526  -50.5209 H         1 UNK         0.3000 
    190 H190       -0.7361  -22.5551  -45.2241 H         1 UNK         0.3000 
    191 H191       -1.9273  -22.0302  -47.7395 H         1 UNK         0.0600 
    192 H192       -4.0692  -22.3265  -46.4875 H         1 UNK         0.0600 
    193 H193       -2.9352  -21.3074  -45.6118 H         1 UNK         0.0600 
    194 H194       -3.1818  -22.9813  -45.1173 H         1 UNK         0.0600 
    195 H195       -1.6883  -25.1098  -45.9029 H         1 UNK         0.3000 
    196 H196       -3.1363  -26.7116  -47.7402 H         1 UNK         0.0600 
    197 H197       -1.9686  -28.6105  -46.6123 H         1 UNK         0.0600 
    198 H198       -2.5999  -27.4581  -45.4458 H         1 UNK         0.0600 
    199 H199       -0.8782  -27.4827  -45.8165 H         1 UNK         0.0600 
    200 H200        0.3807  -25.9763  -47.5565 H         1 UNK         0.3000 
    201 H201        1.1685  -27.4983  -49.8283 H         1 UNK         0.0600 
    202 H202        2.7509  -26.7218  -48.0765 H         1 UNK         0.0600 
    203 H203        2.4874  -25.0451  -48.5496 H         1 UNK         0.0600 
    204 H204        3.2629  -26.1640  -49.6628 H         1 UNK         0.0600 
    205 H205        0.1008  -24.1082  -49.5079 H         1 UNK         0.3000 
    206 H206        0.4715  -23.4131  -52.2794 H         1 UNK         0.0600 
    207 H207        0.5799  -21.7876  -50.3631 H         1 UNK         0.0600 
    208 H208       -0.5724  -21.3024  -51.5851 H         1 UNK         0.0600 
    209 H209       -1.1468  -22.0185  -50.0835 H         1 UNK         0.0600 
    210 H210       -1.7964  -25.4423  -50.9347 H         1 UNK         0.3000 
    211 H211       -3.6617  -26.4062  -51.5591 H         1 UNK         0.0600 
    212 H212       -3.2504  -25.1483  -54.3186 H         1 UNK         0.0600 
    213 H213       -4.3173  -26.4920  -53.9422 H         1 UNK         0.0600 
    214 H214       -2.5813  -26.6790  -53.7651 H         1 UNK         0.0600 
    215 H215       -3.8882  -24.1083  -50.1042 H         1 UNK         0.3000 
    216 H216       -5.3352  -22.7291  -49.1944 H         1 UNK         0.0600 
    217 H217       -7.2773  -24.8568  -50.2361 H         1 UNK         0.0600 
    218 H218       -7.6541  -23.6820  -48.9744 H         1 UNK         0.0600 
    219 H219       -6.3907  -24.8712  -48.7184 H         1 UNK         0.0600 
    220 H220       -7.9499  -23.3548  -51.3825 H         1 UNK         0.3000 
    221 H221       -8.5952  -20.6627  -51.8523 H         1 UNK         0.0600 
    222 H222       -9.4281  -23.1914  -53.3694 H         1 UNK         0.0600 
    223 H223      -10.2347  -22.5151  -51.9536 H         1 UNK         0.0600 
    224 H224      -10.2383  -21.6325  -53.4717 H         1 UNK         0.0600 
    225 H225       -6.3997  -22.7608  -53.6397 H         1 UNK         0.3000 
    226 H226       -6.2678  -21.2777  -56.0811 H         1 UNK         0.0600 
    227 H227       -5.4341  -23.6197  -55.8142 H         1 UNK         0.0600 
    228 H228       -4.1637  -22.5608  -56.4130 H         1 UNK         0.0600 
    229 H229       -4.1734  -23.0462  -54.7231 H         1 UNK         0.0600 
    230 H230       -4.9442  -20.6469  -52.9003 H         1 UNK         0.3000 
    231 H231       -3.3777  -18.3069  -53.9174 H         1 UNK         0.0600 
    232 H232       -2.9373  -20.0870  -51.4657 H         1 UNK         0.0600 
    233 H233       -1.9227  -19.9974  -52.9028 H         1 UNK         0.0600 
    234 H234       -2.0243  -18.6189  -51.8206 H         1 UNK         0.0600 
    235 H235       -6.3308  -18.8825  -52.9677 H         1 UNK         0.3000 
    236 H236       -8.0005  -17.8223  -52.0430 H         1 UNK         0.0600 
    237 H237       -7.0510  -15.8224  -53.2165 H         1 UNK         0.0600 
    238 H238       -7.9631  -15.3926  -51.7806 H         1 UNK         0.0600 
    239 H239       -6.2076  -15.3643  -51.7368 H         1 UNK         0.0600 
    240 H240       -6.1445  -19.3433  -50.2594 H         1 UNK         0.3000 
    241 H241       -6.8271  -18.1962  -47.6057 H         1 UNK         0.0600 
    242 H242       -8.6879  -19.8348  -49.8571 H         1 UNK         0.3800 
    243 H243       -9.6782  -20.7213  -48.7286 H         1 UNK         0.3800 
    244 H244       -5.6438  -20.3739  -46.7939 H         1 UNK         0.0800 
    245 H245       -5.1051  -20.5686  -48.4350 H         1 UNK         0.0800 
    246 H246       -3.3882  -18.4882  -49.5935 H         1 UNK         0.0800 
    247 H247       -2.8608  -20.0135  -48.9220 H         1 UNK         0.0800 
@<TRIPOS>BOND
     1    1    2 1    
     2    1  127 1    
     3    1  128 1    
     4    1  129 1    
     5    2    3 2    
     6    2    4 am   BACKBONE|DICT|INTERRES
     7    4    5 1    
     8    4  130 1    
     9    5    6 1    
    10    5   65 1    
    11    5  131 1    
    12    6    7 1    
    13    6  132 1    
    14    6  133 1    
    15    7    8 1    
    16    8    9 1    
    17    8  134 1    
    18    8  135 1    
    19    9   10 ar   
    20    9   14 ar   
    21   10   11 ar   
    22   10  136 1    
    23   11   12 ar   
    24   11  126 1    
    25   12   13 ar   
    26   12  137 1    
    27   13   14 ar   
    28   13   15 1    
    29   14  138 1    
    30   15   16 1    
    31   15  139 1    
    32   15  140 1    
    33   16   17 1    
    34   17   18 1    
    35   17  141 1    
    36   17  142 1    
    37   18   19 1    
    38   18   67 1    
    39   18  143 1    
    40   19   20 am   BACKBONE|DICT|INTERRES
    41   19  144 1    
    42   20   21 2    
    43   20   22 1    
    44   22   23 1    
    45   22   24 1    
    46   22  145 1    
    47   23  146 1    
    48   23  147 1    
    49   23  148 1    
    50   24   25 am   BACKBONE|DICT|INTERRES
    51   24  149 1    
    52   25   26 2    
    53   25   27 1    
    54   27   28 1    
    55   27   29 1    
    56   27  150 1    
    57   28  151 1    
    58   28  152 1    
    59   28  153 1    
    60   29   30 am   BACKBONE|DICT|INTERRES
    61   29  154 1    
    62   30   31 2    
    63   30   32 1    
    64   32   33 1    
    65   32   34 1    
    66   32  155 1    
    67   33  156 1    
    68   33  157 1    
    69   33  158 1    
    70   34   35 am   BACKBONE|DICT|INTERRES
    71   34  159 1    
    72   35   36 2    
    73   35   37 1    
    74   37   38 1    
    75   37   39 1    
    76   37  160 1    
    77   38  161 1    
    78   38  162 1    
    79   38  163 1    
    80   39   40 am   BACKBONE|DICT|INTERRES
    81   39  164 1    
    82   40   41 2    
    83   40   42 1    
    84   42   43 1    
    85   42   44 1    
    86   42  165 1    
    87   43  166 1    
    88   43  167 1    
    89   43  168 1    
    90   44   45 am   BACKBONE|DICT|INTERRES
    91   44  169 1    
    92   45   46 2    
    93   45   47 1    
    94   47   48 1    
    95   47   49 1    
    96   47  170 1    
    97   48  171 1    
    98   48  172 1    
    99   48  173 1    
   100   49   50 am   BACKBONE|DICT|INTERRES
   101   49  174 1    
   102   50   51 2    
   103   50   52 1    
   104   52   53 1    
   105   52   54 1    
   106   52  175 1    
   107   53  176 1    
   108   53  177 1    
   109   53  178 1    
   110   54   55 am   BACKBONE|DICT|INTERRES
   111   54  179 1    
   112   55   56 2    
   113   55   57 1    
   114   57   58 1    
   115   57   59 1    
   116   57  180 1    
   117   58  181 1    
   118   58  182 1    
   119   58  183 1    
   120   59   60 am   BACKBONE|DICT|INTERRES
   121   59  184 1    
   122   60   61 2    
   123   60   62 1    
   124   62   63 1    
   125   62   64 1    
   126   62  185 1    
   127   63  186 1    
   128   63  187 1    
   129   63  188 1    
   130   64   65 am   BACKBONE|DICT|INTERRES
   131   64  189 1    
   132   65   66 2    
   133   67   68 2    
   134   67   69 am   BACKBONE|DICT|INTERRES
   135   69   70 1    
   136   69  190 1    
   137   70   71 1    
   138   70   72 1    
   139   70  191 1    
   140   71  192 1    
   141   71  193 1    
   142   71  194 1    
   143   72   73 2    
   144   72   74 am   BACKBONE|DICT|INTERRES
   145   74   75 1    
   146   74  195 1    
   147   75   76 1    
   148   75   77 1    
   149   75  196 1    
   150   76  197 1    
   151   76  198 1    
   152   76  199 1    
   153   77   78 2    
   154   77   79 am   BACKBONE|DICT|INTERRES
   155   79   80 1    
   156   79  200 1    
   157   80   81 1    
   158   80   82 1    
   159   80  201 1    
   160   81  202 1    
   161   81  203 1    
   162   81  204 1    
   163   82   83 2    
   164   82   84 am   BACKBONE|DICT|INTERRES
   165   84   85 1    
   166   84  205 1    
   167   85   86 1    
   168   85   87 1    
   169   85  206 1    
   170   86  207 1    
   171   86  208 1    
   172   86  209 1    
   173   87   88 2    
   174   87   89 am   BACKBONE|DICT|INTERRES
   175   89   90 1    
   176   89  210 1    
   177   90   91 1    
   178   90   92 1    
   179   90  211 1    
   180   91  212 1    
   181   91  213 1    
   182   91  214 1    
   183   92   93 2    
   184   92   94 am   BACKBONE|DICT|INTERRES
   185   94   95 1    
   186   94  215 1    
   187   95   96 1    
   188   95   97 1    
   189   95  216 1    
   190   96  217 1    
   191   96  218 1    
   192   96  219 1    
   193   97   98 2    
   194   97   99 am   BACKBONE|DICT|INTERRES
   195   99  100 1    
   196   99  220 1    
   197  100  101 1    
   198  100  102 1    
   199  100  221 1    
   200  101  222 1    
   201  101  223 1    
   202  101  224 1    
   203  102  103 2    
   204  102  104 am   BACKBONE|DICT|INTERRES
   205  104  105 1    
   206  104  225 1    
   207  105  106 1    
   208  105  107 1    
   209  105  226 1    
   210  106  227 1    
   211  106  228 1    
   212  106  229 1    
   213  107  108 2    
   214  107  109 am   BACKBONE|DICT|INTERRES
   215  109  110 1    
   216  109  230 1    
   217  110  111 1    
   218  110  112 1    
   219  110  231 1    
   220  111  232 1    
   221  111  233 1    
   222  111  234 1    
   223  112  113 2    
   224  112  114 am   BACKBONE|DICT|INTERRES
   225  114  115 1    
   226  114  235 1    
   227  115  116 1    
   228  115  117 1    
   229  115  236 1    
   230  116  237 1    
   231  116  238 1    
   232  116  239 1    
   233  117  118 2    
   234  117  119 am   BACKBONE|DICT|INTERRES
   235  119  120 1    
   236  119  240 1    
   237  120  121 1    
   238  120  124 1    
   239  120  241 1    
   240  121  122 am   BACKBONE|DICT|INTERRES
   241  121  123 2    
   242  122  242 1    
   243  122  243 1    
   244  124  125 1    
   245  124  244 1    
   246  124  245 1    
   247  125  126 1    
   248  126  246 1    
   249  126  247 1    
@<TRIPOS>SUBSTRUCTURE
     1 UNK         1 GROUP             0       ****    0 ROOT    
