@<TRIPOS>MOLECULE
3R540
247   249    1
SMALL
USER_CHARGES


@<TRIPOS>ATOM
      1 CA          7.2696  -12.3470  -47.9504 C.3       0 UNK        -0.1800 
      2 C           6.7197  -13.7416  -48.2143 C.2       0 UNK         0.5000 
      3 O           7.3981  -14.5613  -48.8344 O.2       0 UNK        -0.5000 
      4 N           5.4908  -14.0077  -47.7561 N.am      1 UNK        -0.5000 
      5 CA          4.8082  -15.3014  -47.8671 C.3       1 UNK         0.1400 
      6 C6          3.2941  -15.1926  -47.5370 C.3       23 UNK        -0.0398 
      7 S7          2.4252  -13.8211  -48.3834 S.3       23 UNK        -0.2404 
      8 C8          2.5736  -14.2479  -50.1499 C.3       23 UNK        -0.0205 
      9 C9          1.6842  -15.4216  -50.5234 C.ar      23 UNK        -0.0193 
     10 C10         0.3850  -15.2050  -50.9875 C.ar      23 UNK        -0.1150 
     11 C11        -0.4446  -16.2838  -51.3086 C.ar      23 UNK        -0.0193 
     12 C12         0.0241  -17.5896  -51.1295 C.ar      23 UNK        -0.1150 
     13 C13         1.3224  -17.8167  -50.6601 C.ar      23 UNK        -0.0193 
     14 C14         2.1563  -16.7280  -50.3945 C.ar      23 UNK        -0.1150 
     15 C15         1.8168  -19.2341  -50.4028 C.3       23 UNK        -0.0205 
     16 S16         2.4692  -19.4486  -48.7089 S.3       23 UNK        -0.2404 
     17 C17         1.0301  -18.9920  -47.6845 C.3       23 UNK        -0.0398 
     18 CA          0.2963  -20.2177  -47.0976 C.3       11 UNK         0.1400 
     19 N          -0.5354  -19.8483  -45.9515 N.am      11 UNK        -0.5000 
     20 C          -1.0947  -20.7232  -45.1056 C.2       10 UNK         0.5000 
     21 O          -0.9205  -21.9385  -45.1653 O.2       10 UNK        -0.5000 
     22 CA         -2.0427  -20.1482  -44.0427 C.3       10 UNK         0.1400 
     23 CB         -1.2654  -19.7725  -42.7773 C.3       10 UNK        -0.1800 
     24 N          -2.7839  -18.9871  -44.5360 N.am      10 UNK        -0.5000 
     25 C          -3.7583  -19.0646  -45.4547 C.2       9 UNK         0.5000 
     26 O          -4.1532  -20.1253  -45.9390 O.2       9 UNK        -0.5000 
     27 CA         -4.3537  -17.7361  -45.9573 C.3       9 UNK         0.1400 
     28 CB         -5.4465  -17.2367  -45.0008 C.3       9 UNK        -0.1800 
     29 N          -3.3460  -16.6888  -46.1290 N.am      9 UNK        -0.5000 
     30 C          -2.3114  -16.7521  -46.9792 C.2       8 UNK         0.5000 
     31 O          -2.1275  -17.6884  -47.7562 O.2       8 UNK        -0.5000 
     32 CA         -1.2845  -15.6031  -46.9223 C.3       8 UNK         0.1400 
     33 CB         -1.5928  -14.5577  -48.0015 C.3       8 UNK        -0.1800 
     34 N          -1.2123  -14.9299  -45.6221 N.am      8 UNK        -0.5000 
     35 C          -0.8709  -15.5105  -44.4638 C.2       7 UNK         0.5000 
     36 O          -0.5686  -16.7021  -44.3751 O.2       7 UNK        -0.5000 
     37 CA         -0.8825  -14.5823  -43.2300 C.3       7 UNK         0.1400 
     38 CB         -2.2631  -13.9225  -43.0193 C.3       7 UNK        -0.1800 
     39 N          -0.4162  -15.2169  -41.9935 N.am      7 UNK        -0.5000 
     40 C          -0.9956  -16.1963  -41.2803 C.2       6 UNK         0.5000 
     41 O          -2.0836  -16.7004  -41.5633 O.2       6 UNK        -0.5000 
     42 CA         -0.2427  -16.6664  -40.0150 C.3       6 UNK         0.1400 
     43 CB         -0.3340  -18.1858  -39.7966 C.3       6 UNK        -0.1800 
     44 N           1.1696  -16.2916  -40.0698 N.am      6 UNK        -0.5000 
     45 C           1.8116  -15.5054  -39.1963 C.2       5 UNK         0.5000 
     46 O           1.2938  -15.0510  -38.1754 O.2       5 UNK        -0.5000 
     47 CA          3.2777  -15.1421  -39.5234 C.3       5 UNK         0.1400 
     48 CB          4.2407  -16.0389  -38.7305 C.3       5 UNK        -0.1800 
     49 N           3.6140  -15.2318  -40.9482 N.am      5 UNK        -0.5000 
     50 C           3.0438  -14.5117  -41.9242 C.2       4 UNK         0.5000 
     51 O           2.2029  -13.6358  -41.7209 O.2       4 UNK        -0.5000 
     52 CA          3.4212  -14.8630  -43.3769 C.3       4 UNK         0.1400 
     53 CB          4.5351  -13.9213  -43.8608 C.3       4 UNK        -0.1800 
     54 N           3.8098  -16.2626  -43.6212 N.am      4 UNK        -0.5000 
     55 C           3.1047  -17.3544  -43.2722 C.2       3 UNK         0.5000 
     56 O           2.0705  -17.3061  -42.6076 O.2       3 UNK        -0.5000 
     57 CA          3.6418  -18.7244  -43.7292 C.3       3 UNK         0.1400 
     58 CB          2.5291  -19.7820  -43.8410 C.3       3 UNK        -0.1800 
     59 N           4.3236  -18.6111  -45.0170 N.am      3 UNK        -0.5000 
     60 C           5.5581  -19.0535  -45.2851 C.2       2 UNK         0.5000 
     61 O           6.2572  -19.6670  -44.4780 O.2       2 UNK        -0.5000 
     62 CA          6.1225  -18.7434  -46.6883 C.3       2 UNK         0.1400 
     63 CB          6.0811  -19.9971  -47.5754 C.3       2 UNK        -0.1800 
     64 N           5.4582  -17.6319  -47.3847 N.am      2 UNK        -0.5000 
     65 C           5.4890  -16.3578  -46.9683 C.2       1 UNK         0.5000 
     66 O           5.9978  -16.0134  -45.8988 O.2       1 UNK        -0.5000 
     67 C          -0.5313  -20.9685  -48.1610 C.2       11 UNK         0.5000 
     68 O          -0.1008  -22.0182  -48.6373 O.2       11 UNK        -0.5000 
     69 N          -1.7301  -20.4523  -48.4690 N.am      12 UNK        -0.5000 
     70 CA         -2.7038  -21.0919  -49.3538 C.3       12 UNK         0.1400 
     71 CB         -3.8818  -20.1380  -49.5959 C.3       12 UNK        -0.1800 
     72 C          -3.1877  -22.4517  -48.8146 C.2       12 UNK         0.5000 
     73 O          -3.2936  -23.4044  -49.5864 O.2       12 UNK        -0.5000 
     74 N          -3.4250  -22.5385  -47.4977 N.am      13 UNK        -0.5000 
     75 CA         -3.7648  -23.7813  -46.8031 C.3       13 UNK         0.1400 
     76 CB         -4.2026  -23.4763  -45.3639 C.3       13 UNK        -0.1800 
     77 C          -2.6250  -24.8160  -46.8319 C.2       13 UNK         0.5000 
     78 O          -2.8863  -25.9855  -47.1120 O.2       13 UNK        -0.5000 
     79 N          -1.3815  -24.3713  -46.5987 N.am      14 UNK        -0.5000 
     80 CA         -0.1696  -25.1931  -46.6881 C.3       14 UNK         0.1400 
     81 CB          1.0352  -24.3970  -46.1637 C.3       14 UNK        -0.1800 
     82 C           0.1000  -25.7159  -48.1128 C.2       14 UNK         0.5000 
     83 O           0.5589  -26.8476  -48.2701 O.2       14 UNK        -0.5000 
     84 N          -0.2351  -24.9020  -49.1224 N.am      15 UNK        -0.5000 
     85 CA         -0.2101  -25.2574  -50.5425 C.3       15 UNK         0.1400 
     86 CB         -0.2098  -23.9630  -51.3731 C.3       15 UNK        -0.1800 
     87 C          -1.3744  -26.1776  -50.9733 C.2       15 UNK         0.5000 
     88 O          -1.3703  -26.6435  -52.1134 O.2       15 UNK        -0.5000 
     89 N          -2.3450  -26.4127  -50.0752 N.am      16 UNK        -0.5000 
     90 CA         -3.5825  -27.1764  -50.2670 C.3       16 UNK         0.1400 
     91 CB         -3.2800  -28.6684  -50.5184 C.3       16 UNK        -0.1800 
     92 C          -4.5034  -26.5490  -51.3342 C.2       16 UNK         0.5000 
     93 O          -5.1273  -27.2658  -52.1192 O.2       16 UNK        -0.5000 
     94 N          -4.5631  -25.2127  -51.3424 N.am      17 UNK        -0.5000 
     95 CA         -5.2829  -24.3978  -52.3145 C.3       17 UNK         0.1400 
     96 CB         -4.2976  -23.9316  -53.4031 C.3       17 UNK        -0.1800 
     97 C          -5.9915  -23.2280  -51.6111 C.2       17 UNK         0.5000 
     98 O          -6.0482  -22.1291  -52.1587 O.2       17 UNK        -0.5000 
     99 N          -6.5358  -23.4726  -50.4095 N.am      18 UNK        -0.5000 
    100 CA        -7.2049  -22.4722  -49.5653 C.3       18 UNK         0.1400 
    101 CB        -7.6182  -23.1270  -48.2387 C.3       18 UNK        -0.1800 
    102 C         -8.4225  -21.7883  -50.2228 C.2       18 UNK         0.5000 
    103 O         -8.7186  -20.6366  -49.9044 O.2       18 UNK        -0.5000 
    104 N         -9.0917  -22.5053  -51.1341 N.am      19 UNK        -0.5000 
    105 CA       -10.2271  -22.0231  -51.9218 C.3       19 UNK         0.1400 
    106 CB       -11.1691  -23.2112  -52.1808 C.3       19 UNK        -0.1800 
    107 C         -9.8091  -21.3603  -53.2530 C.2       19 UNK         0.5000 
    108 O        -10.6863  -20.9138  -53.9943 O.2       19 UNK        -0.5000 
    109 N         -8.5053  -21.3265  -53.5567 N.am      20 UNK        -0.5000 
    110 CA        -7.9402  -20.8156  -54.8006 C.3       20 UNK         0.1400 
    111 CB        -7.6663  -21.9983  -55.7533 C.3       20 UNK        -0.1800 
    112 C         -6.7059  -19.9615  -54.4659 C.2       20 UNK         0.5000 
    113 O         -6.8635  -18.9099  -53.8411 O.2       20 UNK        -0.5000 
    114 N         -5.5133  -20.4115  -54.8868 N.am      21 UNK        -0.5000 
    115 CA        -4.2076  -19.7683  -54.7115 C.3       21 UNK         0.1400 
    116 CB        -3.7643  -19.8212  -53.2305 C.3       21 UNK        -0.1800 
    117 C         -4.2009  -18.3527  -55.3226 C.2       21 UNK         0.5000 
    118 O         -4.2570  -18.2280  -56.5474 O.2       21 UNK        -0.5000 
    119 N         -4.1587  -17.3247  -54.4694 N.am      22 UNK        -0.5000 
    120 CA        -4.2471  -15.9082  -54.8533 C.3       22 UNK         0.1400 
    121 C         -5.6939  -15.4199  -55.1628 C.2       22 UNK         0.5000 
    122 N         -6.7400  -16.1944  -54.8982 N.am      22 UNK        -0.7600 
    123 O         -5.8714  -14.3125  -55.6630 O.2       22 UNK        -0.5000 
    124 C124       -3.5694  -14.9901  -53.8055 C.3       23 UNK        -0.0398 
    125 S125       -1.8104  -15.4013  -53.5383 S.3       23 UNK        -0.2404 
    126 C126       -1.8498  -16.0268  -51.8302 C.3       23 UNK        -0.0205 
    127 H127        6.5612  -11.7299  -47.3970 H         1 UNK         0.0600 
    128 H128        7.4927  -11.8467  -48.8927 H         1 UNK         0.0600 
    129 H129        8.1901  -12.4107  -47.3701 H         1 UNK         0.0600 
    130 H130        4.9826  -13.2907  -47.2597 H         1 UNK         0.3000 
    131 H131        4.9135  -15.6372  -48.8998 H         1 UNK         0.0600 
    132 H132        2.7797  -16.1267  -47.7642 H         1 UNK         0.0800 
    133 H133        3.1498  -15.0373  -46.4673 H         1 UNK         0.0800 
    134 H134        2.2916  -13.3744  -50.7397 H         1 UNK         0.0800 
    135 H135        3.6126  -14.4545  -50.4073 H         1 UNK         0.0800 
    136 H136        0.0164  -14.1951  -51.1009 H         1 UNK         0.1150 
    137 H137       -0.6243  -18.4270  -51.3466 H         1 UNK         0.1150 
    138 H138        3.1631  -16.9026  -50.0458 H         1 UNK         0.1150 
    139 H139        1.0212  -19.9612  -50.5724 H         1 UNK         0.0800 
    140 H140        2.6061  -19.4680  -51.1180 H         1 UNK         0.0800 
    141 H141        1.4137  -18.3733  -46.8723 H         1 UNK         0.0800 
    142 H142        0.3472  -18.3499  -48.2397 H         1 UNK         0.0800 
    143 H143        1.0521  -20.9122  -46.7235 H         1 UNK         0.0600 
    144 H144       -0.7453  -18.8675  -45.8293 H         1 UNK         0.3000 
    145 H145       -2.7606  -20.9264  -43.7767 H         1 UNK         0.0600 
    146 H146       -1.9430  -19.4369  -41.9931 H         1 UNK         0.0600 
    147 H147       -0.7134  -20.6283  -42.3868 H         1 UNK         0.0600 
    148 H148       -0.5448  -18.9758  -42.9661 H         1 UNK         0.0600 
    149 H149       -2.4743  -18.0803  -44.2094 H         1 UNK         0.3000 
    150 H150       -4.8095  -17.9249  -46.9315 H         1 UNK         0.0600 
    151 H151       -6.2211  -17.9926  -44.8651 H         1 UNK         0.0600 
    152 H152       -5.9321  -16.3415  -45.3895 H         1 UNK         0.0600 
    153 H153       -5.0424  -16.9995  -44.0156 H         1 UNK         0.0600 
    154 H154       -3.4183  -15.8845  -45.5243 H         1 UNK         0.3000 
    155 H155       -0.3028  -16.0326  -47.1329 H         1 UNK         0.0600 
    156 H156       -0.7980  -13.8148  -48.0716 H         1 UNK         0.0600 
    157 H157       -2.5297  -14.0357  -47.8040 H         1 UNK         0.0600 
    158 H158       -1.6816  -15.0281  -48.9787 H         1 UNK         0.0600 
    159 H159       -1.4381  -13.9457  -45.6232 H         1 UNK         0.3000 
    160 H160       -0.1625  -13.7891  -43.4360 H         1 UNK         0.0600 
    161 H161       -3.0597  -14.6619  -42.9309 H         1 UNK         0.0600 
    162 H162       -2.5223  -13.2647  -43.8492 H         1 UNK         0.0600 
    163 H163       -2.2733  -13.3119  -42.1163 H         1 UNK         0.0600 
    164 H164        0.4782  -14.8772  -41.6622 H         1 UNK         0.3000 
    165 H165       -0.7353  -16.1755  -39.1737 H         1 UNK         0.0600 
    166 H166        0.1748  -18.7323  -40.5906 H         1 UNK         0.0600 
    167 H167        0.1275  -18.4715  -38.8514 H         1 UNK         0.0600 
    168 H168       -1.3702  -18.5236  -39.7636 H         1 UNK         0.0600 
    169 H169        1.6619  -16.6164  -40.8998 H         1 UNK         0.3000 
    170 H170        3.4342  -14.1080  -39.2100 H         1 UNK         0.0600 
    171 H171        4.0417  -15.9762  -37.6597 H         1 UNK         0.0600 
    172 H172        4.1455  -17.0858  -39.0213 H         1 UNK         0.0600 
    173 H173        5.2775  -15.7391  -38.8844 H         1 UNK         0.0600 
    174 H174        4.2857  -15.9381  -41.2100 H         1 UNK         0.3000 
    175 H175        2.5323  -14.6731  -43.9817 H         1 UNK         0.0600 
    176 H176        5.4932  -14.1618  -43.3986 H         1 UNK         0.0600 
    177 H177        4.6608  -13.9727  -44.9400 H         1 UNK         0.0600 
    178 H178        4.3069  -12.8816  -43.6215 H         1 UNK         0.0600 
    179 H179        4.6637  -16.3940  -44.1507 H         1 UNK         0.3000 
    180 H180        4.3409  -19.0478  -42.9557 H         1 UNK         0.0600 
    181 H181        1.7509  -19.4600  -44.5305 H         1 UNK         0.0600 
    182 H182        2.0567  -19.9627  -42.8746 H         1 UNK         0.0600 
    183 H183        2.9198  -20.7360  -44.1951 H         1 UNK         0.0600 
    184 H184        3.8294  -18.1163  -45.7439 H         1 UNK         0.3000 
    185 H185        7.1697  -18.4636  -46.5547 H         1 UNK         0.0600 
    186 H186        6.5074  -19.8028  -48.5597 H         1 UNK         0.0600 
    187 H187        6.6573  -20.8082  -47.1283 H         1 UNK         0.0600 
    188 H188        5.0636  -20.3617  -47.7131 H         1 UNK         0.0600 
    189 H189        5.0112  -17.8627  -48.2604 H         1 UNK         0.3000 
    190 H190       -1.9935  -19.5538  -48.0724 H         1 UNK         0.3000 
    191 H191       -2.2124  -21.2708  -50.3123 H         1 UNK         0.0600 
    192 H192       -4.5830  -20.5620  -50.3148 H         1 UNK         0.0600 
    193 H193       -3.5398  -19.1850  -50.0005 H         1 UNK         0.0600 
    194 H194       -4.4324  -19.9325  -48.6777 H         1 UNK         0.0600 
    195 H195       -3.3819  -21.6956  -46.9342 H         1 UNK         0.3000 
    196 H196       -4.6128  -24.2280  -47.3239 H         1 UNK         0.0600 
    197 H197       -4.5133  -24.3869  -44.8503 H         1 UNK         0.0600 
    198 H198       -5.0478  -22.7880  -45.3464 H         1 UNK         0.0600 
    199 H199       -3.3957  -23.0321  -44.7823 H         1 UNK         0.0600 
    200 H200       -1.2501  -23.4042  -46.3135 H         1 UNK         0.3000 
    201 H201       -0.3096  -26.0610  -46.0405 H         1 UNK         0.0600 
    202 H202        0.8869  -24.0949  -45.1269 H         1 UNK         0.0600 
    203 H203        1.2106  -23.4964  -46.7523 H         1 UNK         0.0600 
    204 H204        1.9458  -24.9961  -46.2006 H         1 UNK         0.0600 
    205 H205       -0.5283  -23.9552  -48.9007 H         1 UNK         0.3000 
    206 H206        0.7193  -25.7925  -50.7470 H         1 UNK         0.0600 
    207 H207        0.6309  -23.3222  -51.1063 H         1 UNK         0.0600 
    208 H208       -0.1272  -24.1795  -52.4388 H         1 UNK         0.0600 
    209 H209       -1.1259  -23.3910  -51.2260 H         1 UNK         0.0600 
    210 H210       -2.2535  -25.9795  -49.1646 H         1 UNK         0.3000 
    211 H211       -4.1281  -27.1096  -49.3250 H         1 UNK         0.0600 
    212 H212       -2.7913  -28.8290  -51.4796 H         1 UNK         0.0600 
    213 H213       -4.1974  -29.2579  -50.5168 H         1 UNK         0.0600 
    214 H214       -2.6332  -29.0747  -49.7407 H         1 UNK         0.0600 
    215 H215       -4.0255  -24.6859  -50.6538 H         1 UNK         0.3000 
    216 H216       -6.0694  -24.9861  -52.7908 H         1 UNK         0.0600 
    217 H217       -3.4970  -23.3239  -52.9799 H         1 UNK         0.0600 
    218 H218       -4.7994  -23.3361  -54.1658 H         1 UNK         0.0600 
    219 H219       -3.8381  -24.7821  -53.9069 H         1 UNK         0.0600 
    220 H220       -6.4488  -24.4031  -50.0282 H         1 UNK         0.3000 
    221 H221       -6.4773  -21.6901  -49.3429 H         1 UNK         0.0600 
    222 H222       -8.3123  -23.9532  -48.3970 H         1 UNK         0.0600 
    223 H223       -6.7547  -23.5117  -47.6994 H         1 UNK         0.0600 
    224 H224       -8.1093  -22.4066  -47.5832 H         1 UNK         0.0600 
    225 H225       -8.7727  -23.4426  -51.3308 H         1 UNK         0.3000 
    226 H226      -10.7777  -21.2754  -51.3473 H         1 UNK         0.0600 
    227 H227      -11.4998  -23.6633  -51.2455 H         1 UNK         0.0600 
    228 H228      -12.0637  -22.8949  -52.7187 H         1 UNK         0.0600 
    229 H229      -10.6849  -23.9862  -52.7762 H         1 UNK         0.0600 
    230 H230       -7.8218  -21.6371  -52.8724 H         1 UNK         0.3000 
    231 H231       -8.6468  -20.1420  -55.2894 H         1 UNK         0.0600 
    232 H232       -7.2266  -21.6591  -56.6922 H         1 UNK         0.0600 
    233 H233       -8.5936  -22.5133  -56.0053 H         1 UNK         0.0600 
    234 H234       -6.9955  -22.7341  -55.3083 H         1 UNK         0.0600 
    235 H235       -5.5012  -21.2722  -55.4136 H         1 UNK         0.3000 
    236 H236       -3.4902  -20.3537  -55.2883 H         1 UNK         0.0600 
    237 H237       -3.6797  -20.8523  -52.8889 H         1 UNK         0.0600 
    238 H238       -2.7858  -19.3593  -53.0927 H         1 UNK         0.0600 
    239 H239       -4.4696  -19.3185  -52.5684 H         1 UNK         0.0600 
    240 H240       -4.1549  -17.5210  -53.4805 H         1 UNK         0.3000 
    241 H241       -3.6944  -15.7864  -55.7870 H         1 UNK         0.0600 
    242 H242       -6.6274  -17.1157  -54.4836 H         1 UNK         0.3800 
    243 H243       -7.6658  -15.8578  -55.1087 H         1 UNK         0.3800 
    244 H244       -3.6094  -13.9492  -54.1313 H         1 UNK         0.0800 
    245 H245       -4.1106  -15.0290  -52.8588 H         1 UNK         0.0800 
    246 H246       -2.4501  -16.9367  -51.7879 H         1 UNK         0.0800 
    247 H247       -2.3454  -15.2959  -51.1907 H         1 UNK         0.0800 
@<TRIPOS>BOND
     1    1    2 1    
     2    1  127 1    
     3    1  128 1    
     4    1  129 1    
     5    2    3 2    
     6    2    4 am   BACKBONE|DICT|INTERRES
     7    4    5 1    
     8    4  130 1    
     9    5    6 1    
    10    5   65 1    
    11    5  131 1    
    12    6    7 1    
    13    6  132 1    
    14    6  133 1    
    15    7    8 1    
    16    8    9 1    
    17    8  134 1    
    18    8  135 1    
    19    9   10 ar   
    20    9   14 ar   
    21   10   11 ar   
    22   10  136 1    
    23   11   12 ar   
    24   11  126 1    
    25   12   13 ar   
    26   12  137 1    
    27   13   14 ar   
    28   13   15 1    
    29   14  138 1    
    30   15   16 1    
    31   15  139 1    
    32   15  140 1    
    33   16   17 1    
    34   17   18 1    
    35   17  141 1    
    36   17  142 1    
    37   18   19 1    
    38   18   67 1    
    39   18  143 1    
    40   19   20 am   BACKBONE|DICT|INTERRES
    41   19  144 1    
    42   20   21 2    
    43   20   22 1    
    44   22   23 1    
    45   22   24 1    
    46   22  145 1    
    47   23  146 1    
    48   23  147 1    
    49   23  148 1    
    50   24   25 am   BACKBONE|DICT|INTERRES
    51   24  149 1    
    52   25   26 2    
    53   25   27 1    
    54   27   28 1    
    55   27   29 1    
    56   27  150 1    
    57   28  151 1    
    58   28  152 1    
    59   28  153 1    
    60   29   30 am   BACKBONE|DICT|INTERRES
    61   29  154 1    
    62   30   31 2    
    63   30   32 1    
    64   32   33 1    
    65   32   34 1    
    66   32  155 1    
    67   33  156 1    
    68   33  157 1    
    69   33  158 1    
    70   34   35 am   BACKBONE|DICT|INTERRES
    71   34  159 1    
    72   35   36 2    
    73   35   37 1    
    74   37   38 1    
    75   37   39 1    
    76   37  160 1    
    77   38  161 1    
    78   38  162 1    
    79   38  163 1    
    80   39   40 am   BACKBONE|DICT|INTERRES
    81   39  164 1    
    82   40   41 2    
    83   40   42 1    
    84   42   43 1    
    85   42   44 1    
    86   42  165 1    
    87   43  166 1    
    88   43  167 1    
    89   43  168 1    
    90   44   45 am   BACKBONE|DICT|INTERRES
    91   44  169 1    
    92   45   46 2    
    93   45   47 1    
    94   47   48 1    
    95   47   49 1    
    96   47  170 1    
    97   48  171 1    
    98   48  172 1    
    99   48  173 1    
   100   49   50 am   BACKBONE|DICT|INTERRES
   101   49  174 1    
   102   50   51 2    
   103   50   52 1    
   104   52   53 1    
   105   52   54 1    
   106   52  175 1    
   107   53  176 1    
   108   53  177 1    
   109   53  178 1    
   110   54   55 am   BACKBONE|DICT|INTERRES
   111   54  179 1    
   112   55   56 2    
   113   55   57 1    
   114   57   58 1    
   115   57   59 1    
   116   57  180 1    
   117   58  181 1    
   118   58  182 1    
   119   58  183 1    
   120   59   60 am   BACKBONE|DICT|INTERRES
   121   59  184 1    
   122   60   61 2    
   123   60   62 1    
   124   62   63 1    
   125   62   64 1    
   126   62  185 1    
   127   63  186 1    
   128   63  187 1    
   129   63  188 1    
   130   64   65 am   BACKBONE|DICT|INTERRES
   131   64  189 1    
   132   65   66 2    
   133   67   68 2    
   134   67   69 am   BACKBONE|DICT|INTERRES
   135   69   70 1    
   136   69  190 1    
   137   70   71 1    
   138   70   72 1    
   139   70  191 1    
   140   71  192 1    
   141   71  193 1    
   142   71  194 1    
   143   72   73 2    
   144   72   74 am   BACKBONE|DICT|INTERRES
   145   74   75 1    
   146   74  195 1    
   147   75   76 1    
   148   75   77 1    
   149   75  196 1    
   150   76  197 1    
   151   76  198 1    
   152   76  199 1    
   153   77   78 2    
   154   77   79 am   BACKBONE|DICT|INTERRES
   155   79   80 1    
   156   79  200 1    
   157   80   81 1    
   158   80   82 1    
   159   80  201 1    
   160   81  202 1    
   161   81  203 1    
   162   81  204 1    
   163   82   83 2    
   164   82   84 am   BACKBONE|DICT|INTERRES
   165   84   85 1    
   166   84  205 1    
   167   85   86 1    
   168   85   87 1    
   169   85  206 1    
   170   86  207 1    
   171   86  208 1    
   172   86  209 1    
   173   87   88 2    
   174   87   89 am   BACKBONE|DICT|INTERRES
   175   89   90 1    
   176   89  210 1    
   177   90   91 1    
   178   90   92 1    
   179   90  211 1    
   180   91  212 1    
   181   91  213 1    
   182   91  214 1    
   183   92   93 2    
   184   92   94 am   BACKBONE|DICT|INTERRES
   185   94   95 1    
   186   94  215 1    
   187   95   96 1    
   188   95   97 1    
   189   95  216 1    
   190   96  217 1    
   191   96  218 1    
   192   96  219 1    
   193   97   98 2    
   194   97   99 am   BACKBONE|DICT|INTERRES
   195   99  100 1    
   196   99  220 1    
   197  100  101 1    
   198  100  102 1    
   199  100  221 1    
   200  101  222 1    
   201  101  223 1    
   202  101  224 1    
   203  102  103 2    
   204  102  104 am   BACKBONE|DICT|INTERRES
   205  104  105 1    
   206  104  225 1    
   207  105  106 1    
   208  105  107 1    
   209  105  226 1    
   210  106  227 1    
   211  106  228 1    
   212  106  229 1    
   213  107  108 2    
   214  107  109 am   BACKBONE|DICT|INTERRES
   215  109  110 1    
   216  109  230 1    
   217  110  111 1    
   218  110  112 1    
   219  110  231 1    
   220  111  232 1    
   221  111  233 1    
   222  111  234 1    
   223  112  113 2    
   224  112  114 am   BACKBONE|DICT|INTERRES
   225  114  115 1    
   226  114  235 1    
   227  115  116 1    
   228  115  117 1    
   229  115  236 1    
   230  116  237 1    
   231  116  238 1    
   232  116  239 1    
   233  117  118 2    
   234  117  119 am   BACKBONE|DICT|INTERRES
   235  119  120 1    
   236  119  240 1    
   237  120  121 1    
   238  120  124 1    
   239  120  241 1    
   240  121  122 am   BACKBONE|DICT|INTERRES
   241  121  123 2    
   242  122  242 1    
   243  122  243 1    
   244  124  125 1    
   245  124  244 1    
   246  124  245 1    
   247  125  126 1    
   248  126  246 1    
   249  126  247 1    
@<TRIPOS>SUBSTRUCTURE
     1 UNK         1 GROUP             0       ****    0 ROOT    
