@<TRIPOS>MOLECULE
3R540
247   249    1
SMALL
USER_CHARGES


@<TRIPOS>ATOM
      1 CA          1.2409  -14.8450  -47.4936 C.3       0 UNK        -0.1800 
      2 C           2.6880  -15.2509  -47.2607 C.2       0 UNK         0.5000 
      3 O           3.5939  -14.5755  -47.7480 O.2       0 UNK        -0.5000 
      4 N           2.9000  -16.3477  -46.5268 N.am      1 UNK        -0.5000 
      5 CA          4.2187  -16.9044  -46.2006 C.3       1 UNK         0.1400 
      6 C6          4.5037  -18.2043  -46.9997 C.3       23 UNK        -0.0398 
      7 S7          6.1407  -18.2098  -47.8022 S.3       23 UNK        -0.2404 
      8 C8          5.8057  -17.2982  -49.3495 C.3       23 UNK        -0.0205 
      9 C9          4.7439  -17.9608  -50.2194 C.ar      23 UNK        -0.0193 
     10 C10         3.5508  -17.2907  -50.5072 C.ar      23 UNK        -0.1150 
     11 C11         2.5623  -17.9014  -51.2849 C.ar      23 UNK        -0.0193 
     12 C12         2.7771  -19.1894  -51.7864 C.ar      23 UNK        -0.1150 
     13 C13         3.9689  -19.8667  -51.5111 C.ar      23 UNK        -0.0193 
     14 C14         4.9492  -19.2445  -50.7325 C.ar      23 UNK        -0.1150 
     15 C15         4.2150  -21.2635  -52.0610 C.3       23 UNK        -0.0205 
     16 S16         3.8729  -22.5568  -50.8239 S.3       23 UNK        -0.2404 
     17 C17         2.0815  -22.8368  -51.0376 C.3       23 UNK        -0.0398 
     18 CA          1.3199  -22.8950  -49.6912 C.3       11 UNK         0.1400 
     19 N           1.4235  -21.6369  -48.9459 N.am      11 UNK        -0.5000 
     20 C           0.8865  -21.3757  -47.7460 C.2       10 UNK         0.5000 
     21 O           0.2189  -22.1919  -47.1028 O.2       10 UNK        -0.5000 
     22 CA          1.0962  -19.9508  -47.2000 C.3       10 UNK         0.1400 
     23 CB          1.0930  -18.9083  -48.3389 C.3       10 UNK        -0.1800 
     24 N           0.0082  -19.6635  -46.2843 N.am      10 UNK        -0.5000 
     25 C          -0.1609  -18.5787  -45.5305 C.2       9 UNK         0.5000 
     26 O           0.7164  -17.7340  -45.3246 O.2       9 UNK        -0.5000 
     27 CA         -1.5960  -18.3870  -44.9992 C.3       9 UNK         0.1400 
     28 CB         -1.6615  -17.3807  -43.8396 C.3       9 UNK        -0.1800 
     29 N          -2.4941  -17.9369  -46.0672 N.am      9 UNK        -0.5000 
     30 C          -2.8622  -18.6361  -47.1543 C.2       8 UNK         0.5000 
     31 O          -2.5685  -19.8160  -47.3534 O.2       8 UNK        -0.5000 
     32 CA         -3.7034  -17.9036  -48.2111 C.3       8 UNK         0.1400 
     33 CB         -5.1882  -18.2389  -48.0182 C.3       8 UNK        -0.1800 
     34 N          -3.5397  -16.4521  -48.1909 N.am      8 UNK        -0.5000 
     35 C          -2.4210  -15.7839  -48.5007 C.2       7 UNK         0.5000 
     36 O          -1.3962  -16.3176  -48.9215 O.2       7 UNK        -0.5000 
     37 CA         -2.4611  -14.2543  -48.3072 C.3       7 UNK         0.1400 
     38 CB         -3.7689  -13.6368  -48.8439 C.3       7 UNK        -0.1800 
     39 N          -2.2175  -13.8000  -46.9305 N.am      7 UNK        -0.5000 
     40 C          -2.8179  -14.1774  -45.7920 C.2       6 UNK         0.5000 
     41 O          -3.6215  -15.1070  -45.7076 O.2       6 UNK        -0.5000 
     42 CA         -2.4621  -13.3607  -44.5322 C.3       6 UNK         0.1400 
     43 CB         -3.2192  -13.8299  -43.2760 C.3       6 UNK        -0.1800 
     44 N          -1.0309  -13.3585  -44.2340 N.am      6 UNK        -0.5000 
     45 C          -0.1121  -12.5768  -44.8149 C.2       5 UNK         0.5000 
     46 O          -0.3538  -11.8677  -45.7937 O.2       5 UNK        -0.5000 
     47 CA          1.3026  -12.5941  -44.1920 C.3       5 UNK         0.1400 
     48 CB          2.1003  -11.3088  -44.4891 C.3       5 UNK        -0.1800 
     49 N           1.3094  -12.8830  -42.7508 N.am      5 UNK        -0.5000 
     50 C           0.6850  -12.2061  -41.7711 C.2       4 UNK         0.5000 
     51 O           0.0217  -11.1856  -41.9574 O.2       4 UNK        -0.5000 
     52 CA          0.7807  -12.7808  -40.3420 C.3       4 UNK         0.1400 
     53 CB         -0.5144  -13.5303  -39.9890 C.3       4 UNK        -0.1800 
     54 N           1.9118  -13.6904  -40.1537 N.am      4 UNK        -0.5000 
     55 C           3.1898  -13.3067  -40.0309 C.2       3 UNK         0.5000 
     56 O           3.5472  -12.1294  -39.9786 O.2       3 UNK        -0.5000 
     57 CA          4.2521  -14.4266  -39.9833 C.3       3 UNK         0.1400 
     58 CB          4.6212  -14.7526  -38.5280 C.3       3 UNK        -0.1800 
     59 N           3.8676  -15.6689  -40.6685 N.am      3 UNK        -0.5000 
     60 C           3.5494  -15.7653  -41.9663 C.2       2 UNK         0.5000 
     61 O           3.4736  -14.7921  -42.7199 O.2       2 UNK        -0.5000 
     62 CA          3.1984  -17.1714  -42.4914 C.3       2 UNK         0.1400 
     63 CB          1.7811  -17.5618  -42.0451 C.3       2 UNK        -0.1800 
     64 N           3.2515  -17.2226  -43.9523 N.am      2 UNK        -0.5000 
     65 C           4.3733  -17.1107  -44.6806 C.2       1 UNK         0.5000 
     66 O           5.5028  -17.1364  -44.1887 O.2       1 UNK        -0.5000 
     67 C          -0.1363  -23.3509  -49.9296 C.2       11 UNK         0.5000 
     68 O          -0.3912  -24.5538  -49.9206 O.2       11 UNK        -0.5000 
     69 N          -1.0634  -22.3984  -50.1154 N.am      12 UNK        -0.5000 
     70 CA         -2.4894  -22.6603  -50.3138 C.3       12 UNK         0.1400 
     71 CB         -3.2022  -21.3604  -50.7113 C.3       12 UNK        -0.1800 
     72 C          -3.1398  -23.3171  -49.0836 C.2       12 UNK         0.5000 
     73 O          -3.7333  -24.3879  -49.2140 O.2       12 UNK        -0.5000 
     74 N          -2.9775  -22.7031  -47.9023 N.am      13 UNK        -0.5000 
     75 CA         -3.4390  -23.2568  -46.6267 C.3       13 UNK         0.1400 
     76 CB         -3.2783  -22.2215  -45.5043 C.3       13 UNK        -0.1800 
     77 C          -2.7313  -24.5709  -46.2523 C.2       13 UNK         0.5000 
     78 O          -3.3902  -25.4821  -45.7519 O.2       13 UNK        -0.5000 
     79 N          -1.4241  -24.6683  -46.5387 N.am      14 UNK        -0.5000 
     80 CA         -0.6175  -25.8732  -46.3178 C.3       14 UNK         0.1400 
     81 CB          0.8616  -25.5590  -46.5833 C.3       14 UNK        -0.1800 
     82 C          -1.0800  -27.0774  -47.1636 C.2       14 UNK         0.5000 
     83 O          -1.0684  -28.2063  -46.6720 O.2       14 UNK        -0.5000 
     84 N          -1.5147  -26.8110  -48.4024 N.am      15 UNK        -0.5000 
     85 CA         -2.1051  -27.7887  -49.3190 C.3       15 UNK         0.1400 
     86 CB         -1.9522  -27.2665  -50.7572 C.3       15 UNK        -0.1800 
     87 C          -3.5874  -28.0971  -49.0199 C.2       15 UNK         0.5000 
     88 O          -4.1484  -28.9885  -49.6587 O.2       15 UNK        -0.5000 
     89 N          -4.1987  -27.3512  -48.0858 N.am      16 UNK        -0.5000 
     90 CA         -5.6213  -27.3571  -47.7270 C.3       16 UNK         0.1400 
     91 CB         -6.0340  -28.7052  -47.1001 C.3       16 UNK        -0.1800 
     92 C          -6.5253  -26.9232  -48.9015 C.2       16 UNK         0.5000 
     93 O          -7.6164  -27.4659  -49.0853 O.2       16 UNK        -0.5000 
     94 N          -6.0456  -25.9421  -49.6732 N.am      17 UNK        -0.5000 
     95 CA         -6.6915  -25.3691  -50.8485 C.3       17 UNK         0.1400 
     96 CB         -6.0312  -25.9445  -52.1149 C.3       17 UNK        -0.1800 
     97 C          -6.5917  -23.8376  -50.7626 C.2       17 UNK         0.5000 
     98 O          -6.1559  -23.1866  -51.7131 O.2       17 UNK        -0.5000 
     99 N          -6.9783  -23.2898  -49.5993 N.am      18 UNK        -0.5000 
    100 CA        -6.8522  -21.8789  -49.2107 C.3       18 UNK         0.1400 
    101 CB        -7.4518  -21.6911  -47.8096 C.3       18 UNK        -0.1800 
    102 C         -7.4650  -20.8702  -50.2026 C.2       18 UNK         0.5000 
    103 O         -6.9620  -19.7532  -50.3173 O.2       18 UNK        -0.5000 
    104 N         -8.4957  -21.2996  -50.9440 N.am      19 UNK        -0.5000 
    105 CA        -9.1525  -20.5498  -52.0180 C.3       19 UNK         0.1400 
    106 CB       -10.3360  -21.3771  -52.5430 C.3       19 UNK        -0.1800 
    107 C         -8.2224  -20.1417  -53.1821 C.2       19 UNK         0.5000 
    108 O         -8.5530  -19.2026  -53.9071 O.2       19 UNK        -0.5000 
    109 N         -7.0774  -20.8253  -53.3370 N.am      20 UNK        -0.5000 
    110 CA        -6.0279  -20.4760  -54.2971 C.3       20 UNK         0.1400 
    111 CB        -5.0444  -21.6503  -54.4163 C.3       20 UNK        -0.1800 
    112 C         -5.2705  -19.1806  -53.9364 C.2       20 UNK         0.5000 
    113 O         -4.6849  -18.5669  -54.8316 O.2       20 UNK        -0.5000 
    114 N         -5.2967  -18.7916  -52.6496 N.am      21 UNK        -0.5000 
    115 CA        -4.6464  -17.6223  -52.0516 C.3       21 UNK         0.1400 
    116 CB        -5.3812  -16.3282  -52.4626 C.3       21 UNK        -0.1800 
    117 C         -3.1308  -17.5991  -52.3359 C.2       21 UNK         0.5000 
    118 O         -2.3807  -18.3236  -51.6837 O.2       21 UNK        -0.5000 
    119 N         -2.7202  -16.8030  -53.3256 N.am      22 UNK        -0.5000 
    120 CA        -1.3685  -16.7807  -53.8940 C.3       22 UNK         0.1400 
    121 C         -1.4015  -16.6775  -55.4479 C.2       22 UNK         0.5000 
    122 N         -2.4673  -17.1199  -56.1084 N.am      22 UNK        -0.7600 
    123 O         -0.4605  -16.1966  -56.0729 O.2       22 UNK        -0.5000 
    124 C124       -0.4675  -15.7292  -53.1877 C.3       23 UNK        -0.0398 
    125 S125        1.2763  -16.2573  -53.0947 S.3       23 UNK        -0.2404 
    126 C126        1.2419  -17.1925  -51.5373 C.3       23 UNK        -0.0205 
    127 H127        0.5542  -15.3847  -46.8406 H         1 UNK         0.0600 
    128 H128        0.9632  -15.0502  -48.5270 H         1 UNK         0.0600 
    129 H129        1.1148  -13.7777  -47.3162 H         1 UNK         0.0600 
    130 H130        2.0986  -16.8538  -46.1563 H         1 UNK         0.3000 
    131 H131        4.9783  -16.1623  -46.4547 H         1 UNK         0.0600 
    132 H132        4.4314  -19.0951  -46.3729 H         1 UNK         0.0800 
    133 H133        3.7555  -18.3518  -47.7737 H         1 UNK         0.0800 
    134 H134        5.5167  -16.2761  -49.0989 H         1 UNK         0.0800 
    135 H135        6.7318  -17.2222  -49.9206 H         1 UNK         0.0800 
    136 H136        3.3816  -16.2990  -50.1114 H         1 UNK         0.1150 
    137 H137        2.0135  -19.6632  -52.3871 H         1 UNK         0.1150 
    138 H138        5.8706  -19.7660  -50.5132 H         1 UNK         0.1150 
    139 H139        3.6246  -21.4377  -52.9619 H         1 UNK         0.0800 
    140 H140        5.2585  -21.3468  -52.3684 H         1 UNK         0.0800 
    141 H141        1.6580  -22.0624  -51.6789 H         1 UNK         0.0800 
    142 H142        1.9679  -23.7765  -51.5819 H         1 UNK         0.0800 
    143 H143        1.7929  -23.6610  -49.0749 H         1 UNK         0.0600 
    144 H144        1.9667  -20.9144  -49.3957 H         1 UNK         0.3000 
    145 H145        2.0403  -19.9215  -46.6548 H         1 UNK         0.0600 
    146 H146        1.1532  -17.8860  -47.9723 H         1 UNK         0.0600 
    147 H147        0.1889  -18.9762  -48.9464 H         1 UNK         0.0600 
    148 H148        1.9469  -19.0573  -48.9930 H         1 UNK         0.0600 
    149 H149       -0.7910  -20.2753  -46.4130 H         1 UNK         0.3000 
    150 H150       -1.9559  -19.3500  -44.6316 H         1 UNK         0.0600 
    151 H151       -1.0757  -17.7308  -42.9901 H         1 UNK         0.0600 
    152 H152       -2.6862  -17.2494  -43.4920 H         1 UNK         0.0600 
    153 H153       -1.2767  -16.4027  -44.1301 H         1 UNK         0.0600 
    154 H154       -2.8129  -16.9760  -46.0040 H         1 UNK         0.3000 
    155 H155       -3.3807  -18.2693  -49.1858 H         1 UNK         0.0600 
    156 H156       -5.8063  -17.7739  -48.7859 H         1 UNK         0.0600 
    157 H157       -5.5537  -17.9038  -47.0466 H         1 UNK         0.0600 
    158 H158       -5.3506  -19.3153  -48.0762 H         1 UNK         0.0600 
    159 H159       -4.2914  -15.9245  -47.7686 H         1 UNK         0.3000 
    160 H160       -1.6433  -13.8509  -48.9067 H         1 UNK         0.0600 
    161 H161       -4.6304  -13.8916  -48.2260 H         1 UNK         0.0600 
    162 H162       -3.9773  -13.9776  -49.8591 H         1 UNK         0.0600 
    163 H163       -3.6996  -12.5495  -48.8773 H         1 UNK         0.0600 
    164 H164       -1.5390  -13.0493  -46.8392 H         1 UNK         0.3000 
    165 H165       -2.7754  -12.3333  -44.7296 H         1 UNK         0.0600 
    166 H166       -2.9464  -14.8460  -42.9923 H         1 UNK         0.0600 
    167 H167       -3.0106  -13.1794  -42.4264 H         1 UNK         0.0600 
    168 H168       -4.2978  -13.8117  -43.4377 H         1 UNK         0.0600 
    169 H169       -0.7370  -13.9305  -43.4571 H         1 UNK         0.3000 
    170 H170        1.8290  -13.4232  -44.6670 H         1 UNK         0.0600 
    171 H171        2.2228  -11.1624  -45.5629 H         1 UNK         0.0600 
    172 H172        1.6034  -10.4235  -44.0915 H         1 UNK         0.0600 
    173 H173        3.0987  -11.3577  -44.0543 H         1 UNK         0.0600 
    174 H174        1.8963  -13.6691  -42.4888 H         1 UNK         0.3000 
    175 H175        0.8889  -11.9398  -39.6537 H         1 UNK         0.0600 
    176 H176       -0.6731  -14.3915  -40.6394 H         1 UNK         0.0600 
    177 H177       -0.4959  -13.8861  -38.9587 H         1 UNK         0.0600 
    178 H178       -1.3838  -12.8791  -40.0900 H         1 UNK         0.0600 
    179 H179        1.7099  -14.6790  -40.1698 H         1 UNK         0.3000 
    180 H180        5.1440  -14.0425  -40.4826 H         1 UNK         0.0600 
    181 H181        3.7757  -15.1757  -37.9841 H         1 UNK         0.0600 
    182 H182        4.9392  -13.8559  -37.9943 H         1 UNK         0.0600 
    183 H183        5.4443  -15.4658  -38.4790 H         1 UNK         0.0600 
    184 H184        3.8874  -16.5091  -40.1083 H         1 UNK         0.3000 
    185 H185        3.9150  -17.8898  -42.0883 H         1 UNK         0.0600 
    186 H186        1.7087  -17.6171  -40.9584 H         1 UNK         0.0600 
    187 H187        1.0436  -16.8349  -42.3875 H         1 UNK         0.0600 
    188 H188        1.4971  -18.5382  -42.4384 H         1 UNK         0.0600 
    189 H189        2.3535  -17.2217  -44.4228 H         1 UNK         0.3000 
    190 H190       -0.7789  -21.4308  -50.0878 H         1 UNK         0.3000 
    191 H191       -2.5872  -23.3601  -51.1467 H         1 UNK         0.0600 
    192 H192       -4.2610  -21.5302  -50.8982 H         1 UNK         0.0600 
    193 H193       -2.7818  -20.9547  -51.6311 H         1 UNK         0.0600 
    194 H194       -3.1203  -20.5959  -49.9392 H         1 UNK         0.0600 
    195 H195       -2.5111  -21.8033  -47.8625 H         1 UNK         0.3000 
    196 H196       -4.5037  -23.4778  -46.7281 H         1 UNK         0.0600 
    197 H197       -3.5690  -22.6398  -44.5398 H         1 UNK         0.0600 
    198 H198       -3.9117  -21.3520  -45.6786 H         1 UNK         0.0600 
    199 H199       -2.2462  -21.8803  -45.4172 H         1 UNK         0.0600 
    200 H200       -0.9451  -23.8565  -46.9166 H         1 UNK         0.3000 
    201 H201       -0.7204  -26.1487  -45.2662 H         1 UNK         0.0600 
    202 H202        1.2029  -24.7156  -45.9827 H         1 UNK         0.0600 
    203 H203        1.0370  -25.3195  -47.6311 H         1 UNK         0.0600 
    204 H204        1.4914  -26.4138  -46.3342 H         1 UNK         0.0600 
    205 H205       -1.4301  -25.8635  -48.7570 H         1 UNK         0.3000 
    206 H206       -1.5532  -28.7271  -49.2369 H         1 UNK         0.0600 
    207 H207       -0.9041  -27.1007  -51.0069 H         1 UNK         0.0600 
    208 H208       -2.3482  -27.9795  -51.4813 H         1 UNK         0.0600 
    209 H209       -2.4835  -26.3243  -50.8994 H         1 UNK         0.0600 
    210 H210       -3.6423  -26.6496  -47.6139 H         1 UNK         0.3000 
    211 H211       -5.7400  -26.5915  -46.9592 H         1 UNK         0.0600 
    212 H212       -6.0123  -29.5173  -47.8271 H         1 UNK         0.0600 
    213 H213       -7.0470  -28.6544  -46.6995 H         1 UNK         0.0600 
    214 H214       -5.3733  -28.9741  -46.2759 H         1 UNK         0.0600 
    215 H215       -5.1498  -25.5186  -49.4317 H         1 UNK         0.3000 
    216 H216       -7.7541  -25.6188  -50.8636 H         1 UNK         0.0600 
    217 H217       -6.5005  -25.5501  -53.0169 H         1 UNK         0.0600 
    218 H218       -6.1235  -27.0303  -52.1472 H         1 UNK         0.0600 
    219 H219       -4.9693  -25.6984  -52.1586 H         1 UNK         0.0600 
    220 H220       -7.3218  -23.9145  -48.8845 H         1 UNK         0.3000 
    221 H221       -5.7867  -21.6564  -49.1452 H         1 UNK         0.0600 
    222 H222       -8.5077  -21.9632  -47.7851 H         1 UNK         0.0600 
    223 H223       -6.9291  -22.3003  -47.0720 H         1 UNK         0.0600 
    224 H224       -7.3738  -20.6531  -47.4835 H         1 UNK         0.0600 
    225 H225       -8.8261  -22.2402  -50.7881 H         1 UNK         0.3000 
    226 H226       -9.5439  -19.6286  -51.5819 H         1 UNK         0.0600 
    227 H227      -11.0510  -21.5929  -51.7489 H         1 UNK         0.0600 
    228 H228      -10.8743  -20.8391  -53.3245 H         1 UNK         0.0600 
    229 H229      -10.0051  -22.3264  -52.9662 H         1 UNK         0.0600 
    230 H230       -6.8752  -21.6003  -52.7122 H         1 UNK         0.3000 
    231 H231       -6.4950  -20.3233  -55.2722 H         1 UNK         0.0600 
    232 H232       -4.2840  -21.4483  -55.1717 H         1 UNK         0.0600 
    233 H233       -5.5568  -22.5677  -54.7065 H         1 UNK         0.0600 
    234 H234       -4.5281  -21.8397  -53.4747 H         1 UNK         0.0600 
    235 H235       -5.8253  -19.3589  -51.9958 H         1 UNK         0.3000 
    236 H236       -4.7590  -17.7286  -50.9740 H         1 UNK         0.0600 
    237 H237       -6.4135  -16.3451  -52.1128 H         1 UNK         0.0600 
    238 H238       -4.9073  -15.4505  -52.0210 H         1 UNK         0.0600 
    239 H239       -5.4059  -16.1877  -53.5436 H         1 UNK         0.0600 
    240 H240       -3.4109  -16.2707  -53.8356 H         1 UNK         0.3000 
    241 H241       -0.9336  -17.7665  -53.7183 H         1 UNK         0.0600 
    242 H242       -3.2332  -17.5858  -55.6272 H         1 UNK         0.3800 
    243 H243       -2.4856  -17.0508  -57.1136 H         1 UNK         0.3800 
    244 H244       -0.5247  -14.7617  -53.6888 H         1 UNK         0.0800 
    245 H245       -0.8139  -15.5497  -52.1684 H         1 UNK         0.0800 
    246 H246        1.0114  -16.5180  -50.7107 H         1 UNK         0.0800 
    247 H247        0.4315  -17.9230  -51.5655 H         1 UNK         0.0800 
@<TRIPOS>BOND
     1    1    2 1    
     2    1  127 1    
     3    1  128 1    
     4    1  129 1    
     5    2    3 2    
     6    2    4 am   BACKBONE|DICT|INTERRES
     7    4    5 1    
     8    4  130 1    
     9    5    6 1    
    10    5   65 1    
    11    5  131 1    
    12    6    7 1    
    13    6  132 1    
    14    6  133 1    
    15    7    8 1    
    16    8    9 1    
    17    8  134 1    
    18    8  135 1    
    19    9   10 ar   
    20    9   14 ar   
    21   10   11 ar   
    22   10  136 1    
    23   11   12 ar   
    24   11  126 1    
    25   12   13 ar   
    26   12  137 1    
    27   13   14 ar   
    28   13   15 1    
    29   14  138 1    
    30   15   16 1    
    31   15  139 1    
    32   15  140 1    
    33   16   17 1    
    34   17   18 1    
    35   17  141 1    
    36   17  142 1    
    37   18   19 1    
    38   18   67 1    
    39   18  143 1    
    40   19   20 am   BACKBONE|DICT|INTERRES
    41   19  144 1    
    42   20   21 2    
    43   20   22 1    
    44   22   23 1    
    45   22   24 1    
    46   22  145 1    
    47   23  146 1    
    48   23  147 1    
    49   23  148 1    
    50   24   25 am   BACKBONE|DICT|INTERRES
    51   24  149 1    
    52   25   26 2    
    53   25   27 1    
    54   27   28 1    
    55   27   29 1    
    56   27  150 1    
    57   28  151 1    
    58   28  152 1    
    59   28  153 1    
    60   29   30 am   BACKBONE|DICT|INTERRES
    61   29  154 1    
    62   30   31 2    
    63   30   32 1    
    64   32   33 1    
    65   32   34 1    
    66   32  155 1    
    67   33  156 1    
    68   33  157 1    
    69   33  158 1    
    70   34   35 am   BACKBONE|DICT|INTERRES
    71   34  159 1    
    72   35   36 2    
    73   35   37 1    
    74   37   38 1    
    75   37   39 1    
    76   37  160 1    
    77   38  161 1    
    78   38  162 1    
    79   38  163 1    
    80   39   40 am   BACKBONE|DICT|INTERRES
    81   39  164 1    
    82   40   41 2    
    83   40   42 1    
    84   42   43 1    
    85   42   44 1    
    86   42  165 1    
    87   43  166 1    
    88   43  167 1    
    89   43  168 1    
    90   44   45 am   BACKBONE|DICT|INTERRES
    91   44  169 1    
    92   45   46 2    
    93   45   47 1    
    94   47   48 1    
    95   47   49 1    
    96   47  170 1    
    97   48  171 1    
    98   48  172 1    
    99   48  173 1    
   100   49   50 am   BACKBONE|DICT|INTERRES
   101   49  174 1    
   102   50   51 2    
   103   50   52 1    
   104   52   53 1    
   105   52   54 1    
   106   52  175 1    
   107   53  176 1    
   108   53  177 1    
   109   53  178 1    
   110   54   55 am   BACKBONE|DICT|INTERRES
   111   54  179 1    
   112   55   56 2    
   113   55   57 1    
   114   57   58 1    
   115   57   59 1    
   116   57  180 1    
   117   58  181 1    
   118   58  182 1    
   119   58  183 1    
   120   59   60 am   BACKBONE|DICT|INTERRES
   121   59  184 1    
   122   60   61 2    
   123   60   62 1    
   124   62   63 1    
   125   62   64 1    
   126   62  185 1    
   127   63  186 1    
   128   63  187 1    
   129   63  188 1    
   130   64   65 am   BACKBONE|DICT|INTERRES
   131   64  189 1    
   132   65   66 2    
   133   67   68 2    
   134   67   69 am   BACKBONE|DICT|INTERRES
   135   69   70 1    
   136   69  190 1    
   137   70   71 1    
   138   70   72 1    
   139   70  191 1    
   140   71  192 1    
   141   71  193 1    
   142   71  194 1    
   143   72   73 2    
   144   72   74 am   BACKBONE|DICT|INTERRES
   145   74   75 1    
   146   74  195 1    
   147   75   76 1    
   148   75   77 1    
   149   75  196 1    
   150   76  197 1    
   151   76  198 1    
   152   76  199 1    
   153   77   78 2    
   154   77   79 am   BACKBONE|DICT|INTERRES
   155   79   80 1    
   156   79  200 1    
   157   80   81 1    
   158   80   82 1    
   159   80  201 1    
   160   81  202 1    
   161   81  203 1    
   162   81  204 1    
   163   82   83 2    
   164   82   84 am   BACKBONE|DICT|INTERRES
   165   84   85 1    
   166   84  205 1    
   167   85   86 1    
   168   85   87 1    
   169   85  206 1    
   170   86  207 1    
   171   86  208 1    
   172   86  209 1    
   173   87   88 2    
   174   87   89 am   BACKBONE|DICT|INTERRES
   175   89   90 1    
   176   89  210 1    
   177   90   91 1    
   178   90   92 1    
   179   90  211 1    
   180   91  212 1    
   181   91  213 1    
   182   91  214 1    
   183   92   93 2    
   184   92   94 am   BACKBONE|DICT|INTERRES
   185   94   95 1    
   186   94  215 1    
   187   95   96 1    
   188   95   97 1    
   189   95  216 1    
   190   96  217 1    
   191   96  218 1    
   192   96  219 1    
   193   97   98 2    
   194   97   99 am   BACKBONE|DICT|INTERRES
   195   99  100 1    
   196   99  220 1    
   197  100  101 1    
   198  100  102 1    
   199  100  221 1    
   200  101  222 1    
   201  101  223 1    
   202  101  224 1    
   203  102  103 2    
   204  102  104 am   BACKBONE|DICT|INTERRES
   205  104  105 1    
   206  104  225 1    
   207  105  106 1    
   208  105  107 1    
   209  105  226 1    
   210  106  227 1    
   211  106  228 1    
   212  106  229 1    
   213  107  108 2    
   214  107  109 am   BACKBONE|DICT|INTERRES
   215  109  110 1    
   216  109  230 1    
   217  110  111 1    
   218  110  112 1    
   219  110  231 1    
   220  111  232 1    
   221  111  233 1    
   222  111  234 1    
   223  112  113 2    
   224  112  114 am   BACKBONE|DICT|INTERRES
   225  114  115 1    
   226  114  235 1    
   227  115  116 1    
   228  115  117 1    
   229  115  236 1    
   230  116  237 1    
   231  116  238 1    
   232  116  239 1    
   233  117  118 2    
   234  117  119 am   BACKBONE|DICT|INTERRES
   235  119  120 1    
   236  119  240 1    
   237  120  121 1    
   238  120  124 1    
   239  120  241 1    
   240  121  122 am   BACKBONE|DICT|INTERRES
   241  121  123 2    
   242  122  242 1    
   243  122  243 1    
   244  124  125 1    
   245  124  244 1    
   246  124  245 1    
   247  125  126 1    
   248  126  246 1    
   249  126  247 1    
@<TRIPOS>SUBSTRUCTURE
     1 UNK         1 GROUP             0       ****    0 ROOT    
