@<TRIPOS>MOLECULE
3R540
247   249    1
SMALL
USER_CHARGES


@<TRIPOS>ATOM
      1 CA          6.8275  -11.5265  -46.7930 C.3       0 UNK        -0.1800 
      2 C           5.3402  -11.8422  -46.8351 C.2       0 UNK         0.5000 
      3 O           4.5175  -10.9308  -46.7451 O.2       0 UNK        -0.5000 
      4 N           4.9864  -13.1245  -46.9939 N.am      1 UNK        -0.5000 
      5 CA          3.6033  -13.6183  -47.0440 C.3       1 UNK         0.1400 
      6 C6          3.5242  -15.1644  -47.0213 C.3       23 UNK        -0.0398 
      7 S7          4.4898  -16.0111  -48.3280 S.3       23 UNK        -0.2404 
      8 C8          3.2518  -16.3125  -49.6355 C.3       23 UNK        -0.0205 
      9 C9          2.1325  -17.2361  -49.1808 C.ar      23 UNK        -0.0193 
     10 C10         0.8816  -16.7140  -48.8409 C.ar      23 UNK        -0.1150 
     11 C11        -0.1420  -17.5564  -48.3993 C.ar      23 UNK        -0.0193 
     12 C12         0.0826  -18.9344  -48.3244 C.ar      23 UNK        -0.1150 
     13 C13         1.3272  -19.4687  -48.6734 C.ar      23 UNK        -0.0193 
     14 C14         2.3470  -18.6140  -49.1008 C.ar      23 UNK        -0.1150 
     15 C15         1.5768  -20.9669  -48.6117 C.3       23 UNK        -0.0205 
     16 S16         2.4207  -21.4700  -47.0777 S.3       23 UNK        -0.2404 
     17 C17         1.0422  -21.6721  -45.8964 C.3       23 UNK        -0.0398 
     18 CA          0.6024  -23.1570  -45.7463 C.3       11 UNK         0.1400 
     19 N           0.3527  -23.5212  -44.3479 N.am      11 UNK        -0.5000 
     20 C           0.3804  -24.7780  -43.8762 C.2       10 UNK         0.5000 
     21 O           0.6262  -25.7593  -44.5784 O.2       10 UNK        -0.5000 
     22 CA          0.0730  -24.9875  -42.3781 C.3       10 UNK         0.1400 
     23 CB          1.3779  -25.1078  -41.5765 C.3       10 UNK        -0.1800 
     24 N          -0.7446  -23.9254  -41.7909 N.am      10 UNK        -0.5000 
     25 C          -2.0100  -23.6504  -42.1350 C.2       9 UNK         0.5000 
     26 O          -2.6543  -24.3201  -42.9405 O.2       9 UNK        -0.5000 
     27 CA         -2.6467  -22.3888  -41.5182 C.3       9 UNK         0.1400 
     28 CB         -3.5266  -22.7660  -40.3171 C.3       9 UNK        -0.1800 
     29 N          -1.6850  -21.3594  -41.1035 N.am      9 UNK        -0.5000 
     30 C          -0.8035  -20.7499  -41.9081 C.2       8 UNK         0.5000 
     31 O          -0.6401  -21.0455  -43.0953 O.2       8 UNK        -0.5000 
     32 CA          0.0853  -19.6755  -41.2535 C.3       8 UNK         0.1400 
     33 CB          1.3188  -20.3299  -40.6116 C.3       8 UNK        -0.1800 
     34 N           0.5345  -18.6754  -42.2218 N.am      8 UNK        -0.5000 
     35 C          -0.2711  -17.8120  -42.8519 C.2       7 UNK         0.5000 
     36 O          -1.4729  -17.6838  -42.5986 O.2       7 UNK        -0.5000 
     37 CA          0.3796  -16.9599  -43.9520 C.3       7 UNK         0.1400 
     38 CB          0.9251  -17.8405  -45.0910 C.3       7 UNK        -0.1800 
     39 N          -0.6126  -16.0257  -44.4740 N.am      7 UNK        -0.5000 
     40 C          -0.3504  -14.8404  -45.0275 C.2       6 UNK         0.5000 
     41 O           0.7865  -14.4028  -45.2196 O.2       6 UNK        -0.5000 
     42 CA         -1.5690  -13.9879  -45.4009 C.3       6 UNK         0.1400 
     43 CB         -2.0901  -13.2180  -44.1731 C.3       6 UNK        -0.1800 
     44 N          -1.1936  -13.0533  -46.4539 N.am      6 UNK        -0.5000 
     45 C          -2.0393  -12.3911  -47.2517 C.2       5 UNK         0.5000 
     46 O          -3.2609  -12.5524  -47.2349 O.2       5 UNK        -0.5000 
     47 CA         -1.4014  -11.3673  -48.2146 C.3       5 UNK         0.1400 
     48 CB         -2.4147  -10.3667  -48.8078 C.3       5 UNK        -0.1800 
     49 N          -0.2659  -10.6705  -47.6026 N.am      5 UNK        -0.5000 
     50 C          -0.2714   -9.8769  -46.5205 C.2       4 UNK         0.5000 
     51 O          -1.2879   -9.5229  -45.9225 O.2       4 UNK        -0.5000 
     52 CA          1.1056   -9.4171  -46.0036 C.3       4 UNK         0.1400 
     53 CB          1.6126  -10.3864  -44.9242 C.3       4 UNK        -0.1800 
     54 N           2.1118   -9.3184  -47.0622 N.am      4 UNK        -0.5000 
     55 C           2.1113   -8.3932  -48.0325 C.2       3 UNK         0.5000 
     56 O           1.2957   -7.4734  -48.1044 O.2       3 UNK        -0.5000 
     57 CA          3.1872   -8.5428  -49.1210 C.3       3 UNK         0.1400 
     58 CB          4.5280   -7.9527  -48.6568 C.3       3 UNK        -0.1800 
     59 N           3.3713   -9.9445  -49.4975 N.am      3 UNK        -0.5000 
     60 C           2.5521  -10.6225  -50.3142 C.2       2 UNK         0.5000 
     61 O           1.5845  -10.1192  -50.8848 O.2       2 UNK        -0.5000 
     62 CA          2.8526  -12.1192  -50.5168 C.3       2 UNK         0.1400 
     63 CB          3.7870  -12.3278  -51.7176 C.3       2 UNK        -0.1800 
     64 N           3.4505  -12.7375  -49.3343 N.am      2 UNK        -0.5000 
     65 C           2.7818  -13.0299  -48.2101 C.2       1 UNK         0.5000 
     66 O           1.5764  -12.8309  -48.0647 O.2       1 UNK        -0.5000 
     67 C          -0.6007  -23.4797  -46.6586 C.2       11 UNK         0.5000 
     68 O          -0.4124  -23.6217  -47.8643 O.2       11 UNK        -0.5000 
     69 N          -1.8096  -23.6051  -46.0866 N.am      12 UNK        -0.5000 
     70 CA         -3.0847  -23.7513  -46.8009 C.3       12 UNK         0.1400 
     71 CB         -4.2264  -23.8312  -45.7774 C.3       12 UNK        -0.1800 
     72 C          -3.1682  -24.9402  -47.7792 C.2       12 UNK         0.5000 
     73 O          -3.9404  -24.8836  -48.7352 O.2       12 UNK        -0.5000 
     74 N          -2.3668  -25.9826  -47.5310 N.am      13 UNK        -0.5000 
     75 CA         -2.2598  -27.1776  -48.3641 C.3       13 UNK         0.1400 
     76 CB         -1.6368  -28.3004  -47.5192 C.3       13 UNK        -0.1800 
     77 C          -1.4566  -26.9727  -49.6665 C.2       13 UNK         0.5000 
     78 O          -1.4968  -27.8584  -50.5214 O.2       13 UNK        -0.5000 
     79 N          -0.7281  -25.8523  -49.8010 N.am      14 UNK        -0.5000 
     80 CA          0.1115  -25.5442  -50.9623 C.3       14 UNK         0.1400 
     81 CB          0.9539  -24.2925  -50.6750 C.3       14 UNK        -0.1800 
     82 C          -0.6918  -25.3808  -52.2685 C.2       14 UNK         0.5000 
     83 O          -1.8522  -24.9575  -52.2400 O.2       14 UNK        -0.5000 
     84 N          -0.0403  -25.7304  -53.3880 N.am      15 UNK        -0.5000 
     85 CA         -0.6104  -25.8880  -54.7304 C.3       15 UNK         0.1400 
     86 CB         -1.1113  -24.5356  -55.2869 C.3       15 UNK        -0.1800 
     87 C          -1.6642  -27.0167  -54.7324 C.2       15 UNK         0.5000 
     88 O          -1.4037  -28.0792  -54.1654 O.2       15 UNK        -0.5000 
     89 N          -2.8416  -26.7729  -55.3193 N.am      16 UNK        -0.5000 
     90 CA         -4.0087  -27.6596  -55.2636 C.3       16 UNK         0.1400 
     91 CB         -4.7623  -27.5616  -56.6027 C.3       16 UNK        -0.1800 
     92 C          -4.9053  -27.3140  -54.0528 C.2       16 UNK         0.5000 
     93 O          -6.1303  -27.2918  -54.1808 O.2       16 UNK        -0.5000 
     94 N          -4.2706  -26.9875  -52.9153 N.am      17 UNK        -0.5000 
     95 CA         -4.8485  -26.3962  -51.7018 C.3       17 UNK         0.1400 
     96 CB         -5.8085  -27.3756  -50.9976 C.3       17 UNK        -0.1800 
     97 C          -5.4712  -25.0049  -51.9548 C.2       17 UNK         0.5000 
     98 O          -6.4062  -24.6028  -51.2613 O.2       17 UNK        -0.5000 
     99 N          -4.9362  -24.2874  -52.9535 N.am      18 UNK        -0.5000 
    100 CA        -5.3808  -22.9541  -53.3619 C.3       18 UNK         0.1400 
    101 CB        -4.8320  -22.6466  -54.7629 C.3       18 UNK        -0.1800 
    102 C         -4.9560  -21.8657  -52.3619 C.2       18 UNK         0.5000 
    103 O         -5.6295  -20.8409  -52.2511 O.2       18 UNK        -0.5000 
    104 N         -3.8698  -22.1266  -51.6212 N.am      19 UNK        -0.5000 
    105 CA        -3.3345  -21.2682  -50.5649 C.3       19 UNK         0.1400 
    106 CB        -1.9885  -21.8392  -50.1121 C.3       19 UNK        -0.1800 
    107 C         -4.2809  -21.0764  -49.3640 C.2       19 UNK         0.5000 
    108 O         -4.1021  -20.1268  -48.6033 O.2       19 UNK        -0.5000 
    109 N         -5.2951  -21.9437  -49.2256 N.am      20 UNK        -0.5000 
    110 CA        -6.3695  -21.8335  -48.2369 C.3       20 UNK         0.1400 
    111 CB        -7.2872  -23.0584  -48.3552 C.3       20 UNK        -0.1800 
    112 C         -7.1862  -20.5299  -48.3525 C.2       20 UNK         0.5000 
    113 O         -7.7396  -20.0784  -47.3496 O.2       20 UNK        -0.5000 
    114 N         -7.1972  -19.9162  -49.5463 N.am      21 UNK        -0.5000 
    115 CA        -7.7970  -18.6092  -49.8238 C.3       21 UNK         0.1400 
    116 CB        -7.7487  -18.3530  -51.3376 C.3       21 UNK        -0.1800 
    117 C         -7.1446  -17.4359  -49.0599 C.2       21 UNK         0.5000 
    118 O         -7.7886  -16.3968  -48.9088 O.2       21 UNK        -0.5000 
    119 N         -5.9053  -17.6160  -48.5843 N.am      22 UNK        -0.5000 
    120 CA        -5.1702  -16.6625  -47.7398 C.3       22 UNK         0.1400 
    121 C         -4.7515  -17.2594  -46.3634 C.2       22 UNK         0.5000 
    122 N         -5.3137  -18.3826  -45.9312 N.am      22 UNK        -0.7600 
    123 O         -3.9336  -16.6817  -45.6532 O.2       22 UNK        -0.5000 
    124 C124       -4.0185  -15.9618  -48.5108 C.3       23 UNK        -0.0398 
    125 S125       -2.7498  -17.0699  -49.2244 S.3       23 UNK        -0.2404 
    126 C126       -1.4648  -16.9657  -47.9440 C.3       23 UNK        -0.0205 
    127 H127        7.0839  -11.0625  -45.8407 H         1 UNK         0.0600 
    128 H128        7.0854  -10.8317  -47.5922 H         1 UNK         0.0600 
    129 H129        7.4360  -12.4234  -46.9106 H         1 UNK         0.0600 
    130 H130        5.7025  -13.8321  -47.0812 H         1 UNK         0.3000 
    131 H131        3.1207  -13.2644  -46.1309 H         1 UNK         0.0600 
    132 H132        3.9042  -15.5198  -46.0629 H         1 UNK         0.0800 
    133 H133        2.4859  -15.4912  -47.0439 H         1 UNK         0.0800 
    134 H134        2.8447  -15.3665  -49.9917 H         1 UNK         0.0800 
    135 H135        3.7561  -16.7592  -50.4935 H         1 UNK         0.0800 
    136 H136        0.7130  -15.6470  -48.8929 H         1 UNK         0.1150 
    137 H137       -0.7094  -19.5833  -47.9794 H         1 UNK         0.1150 
    138 H138        3.3132  -19.0211  -49.3644 H         1 UNK         0.1150 
    139 H139        0.6436  -21.5123  -48.7269 H         1 UNK         0.0800 
    140 H140        2.1967  -21.2627  -49.4593 H         1 UNK         0.0800 
    141 H141        0.2117  -21.0138  -46.1575 H         1 UNK         0.0800 
    142 H142        1.4131  -21.2924  -44.9434 H         1 UNK         0.0800 
    143 H143        1.4227  -23.7920  -46.0890 H         1 UNK         0.0600 
    144 H144        0.0996  -22.7584  -43.7267 H         1 UNK         0.3000 
    145 H145       -0.4764  -25.9265  -42.2843 H         1 UNK         0.0600 
    146 H146        1.1787  -25.3360  -40.5293 H         1 UNK         0.0600 
    147 H147        2.0052  -25.9096  -41.9684 H         1 UNK         0.0600 
    148 H148        1.9603  -24.1863  -41.6155 H         1 UNK         0.0600 
    149 H149       -0.2922  -23.3227  -41.1201 H         1 UNK         0.3000 
    150 H150       -3.2866  -21.9469  -42.2848 H         1 UNK         0.0600 
    151 H151       -2.9355  -23.1838  -39.5011 H         1 UNK         0.0600 
    152 H152       -4.2725  -23.5113  -40.5970 H         1 UNK         0.0600 
    153 H153       -4.0652  -21.8992  -39.9336 H         1 UNK         0.0600 
    154 H154       -1.7359  -21.0724  -40.1365 H         1 UNK         0.3000 
    155 H155       -0.4907  -19.1669  -40.4776 H         1 UNK         0.0600 
    156 H156        1.9280  -20.8527  -41.3505 H         1 UNK         0.0600 
    157 H157        1.0284  -21.0571  -39.8524 H         1 UNK         0.0600 
    158 H158        1.9493  -19.5876  -40.1216 H         1 UNK         0.0600 
    159 H159        1.5015  -18.7335  -42.5039 H         1 UNK         0.3000 
    160 H160        1.1998  -16.3992  -43.4990 H         1 UNK         0.0600 
    161 H161        1.3416  -17.2379  -45.8966 H         1 UNK         0.0600 
    162 H162        0.1414  -18.4706  -45.5117 H         1 UNK         0.0600 
    163 H163        1.7214  -18.4990  -44.7437 H         1 UNK         0.0600 
    164 H164       -1.5718  -16.3002  -44.2915 H         1 UNK         0.3000 
    165 H165       -2.3520  -14.6458  -45.7773 H         1 UNK         0.0600 
    166 H166       -2.9851  -12.6439  -44.4128 H         1 UNK         0.0600 
    167 H167       -1.3409  -12.5239  -43.7898 H         1 UNK         0.0600 
    168 H168       -2.3532  -13.9008  -43.3643 H         1 UNK         0.0600 
    169 H169       -0.1935  -12.9248  -46.5702 H         1 UNK         0.3000 
    170 H170       -0.9898  -11.9465  -49.0424 H         1 UNK         0.0600 
    171 H171       -3.1807  -10.8848  -49.3858 H         1 UNK         0.0600 
    172 H172       -2.9235   -9.7942  -48.0320 H         1 UNK         0.0600 
    173 H173       -1.9236   -9.6617  -49.4787 H         1 UNK         0.0600 
    174 H174        0.6381  -10.9585  -47.9565 H         1 UNK         0.3000 
    175 H175        0.9833   -8.4303  -45.5523 H         1 UNK         0.0600 
    176 H176        2.5683  -10.0583  -44.5151 H         1 UNK         0.0600 
    177 H177        0.9072  -10.4518  -44.0947 H         1 UNK         0.0600 
    178 H178        1.7458  -11.3939  -45.3200 H         1 UNK         0.0600 
    179 H179        2.8683   -9.9971  -47.0378 H         1 UNK         0.3000 
    180 H180        2.8592   -7.9814  -49.9987 H         1 UNK         0.0600 
    181 H181        4.9158   -8.4647  -47.7758 H         1 UNK         0.0600 
    182 H182        4.4201   -6.8980  -48.4008 H         1 UNK         0.0600 
    183 H183        5.2809   -8.0208  -49.4422 H         1 UNK         0.0600 
    184 H184        4.1115  -10.4449  -49.0265 H         1 UNK         0.3000 
    185 H185        1.9070  -12.6229  -50.7294 H         1 UNK         0.0600 
    186 H186        3.9535  -13.3884  -51.9074 H         1 UNK         0.0600 
    187 H187        3.3582  -11.8994  -52.6245 H         1 UNK         0.0600 
    188 H188        4.7584  -11.8576  -51.5596 H         1 UNK         0.0600 
    189 H189        4.4392  -12.9389  -49.3705 H         1 UNK         0.3000 
    190 H190       -1.8712  -23.5346  -45.0799 H         1 UNK         0.3000 
    191 H191       -3.2186  -22.8436  -47.3883 H         1 UNK         0.0600 
    192 H192       -4.1214  -24.7031  -45.1313 H         1 UNK         0.0600 
    193 H193       -5.1944  -23.9144  -46.2711 H         1 UNK         0.0600 
    194 H194       -4.2570  -22.9434  -45.1455 H         1 UNK         0.0600 
    195 H195       -1.7511  -25.9294  -46.7324 H         1 UNK         0.3000 
    196 H196       -3.2666  -27.4878  -48.6523 H         1 UNK         0.0600 
    197 H197       -1.5695  -29.2292  -48.0874 H         1 UNK         0.0600 
    198 H198       -2.2374  -28.5073  -46.6332 H         1 UNK         0.0600 
    199 H199       -0.6293  -28.0427  -47.1898 H         1 UNK         0.0600 
    200 H200       -0.7562  -25.1491  -49.0691 H         1 UNK         0.3000 
    201 H201        0.7957  -26.3854  -51.0915 H         1 UNK         0.0600 
    202 H202        1.6257  -24.0699  -51.5048 H         1 UNK         0.0600 
    203 H203        0.3296  -23.4155  -50.5168 H         1 UNK         0.0600 
    204 H204        1.5698  -24.4259  -49.7854 H         1 UNK         0.0600 
    205 H205        0.9057  -26.0716  -53.2921 H         1 UNK         0.3000 
    206 H206        0.2018  -26.2294  -55.3737 H         1 UNK         0.0600 
    207 H207       -0.3246  -23.7825  -55.2403 H         1 UNK         0.0600 
    208 H208       -1.4051  -24.6227  -56.3336 H         1 UNK         0.0600 
    209 H209       -1.9652  -24.1507  -54.7310 H         1 UNK         0.0600 
    210 H210       -2.9827  -25.8762  -55.7615 H         1 UNK         0.3000 
    211 H211       -3.6863  -28.6955  -55.1399 H         1 UNK         0.0600 
    212 H212       -5.1545  -26.5579  -56.7716 H         1 UNK         0.0600 
    213 H213       -5.6044  -28.2542  -56.6316 H         1 UNK         0.0600 
    214 H214       -4.1110  -27.8126  -57.4401 H         1 UNK         0.0600 
    215 H215       -3.2604  -27.0475  -52.9140 H         1 UNK         0.3000 
    216 H216       -4.0090  -26.2248  -51.0292 H         1 UNK         0.0600 
    217 H217       -6.1075  -26.9897  -50.0222 H         1 UNK         0.0600 
    218 H218       -5.3323  -28.3417  -50.8306 H         1 UNK         0.0600 
    219 H219       -6.7174  -27.5416  -51.5761 H         1 UNK         0.0600 
    220 H220       -4.1375  -24.6742  -53.4343 H         1 UNK         0.3000 
    221 H221       -6.4717  -22.9546  -53.4126 H         1 UNK         0.0600 
    222 H222       -3.7437  -22.5845  -54.7660 H         1 UNK         0.0600 
    223 H223       -5.1301  -23.4099  -55.4821 H         1 UNK         0.0600 
    224 H224       -5.2132  -21.6915  -55.1267 H         1 UNK         0.0600 
    225 H225       -3.3884  -23.0034  -51.7741 H         1 UNK         0.3000 
    226 H226       -3.1603  -20.2770  -50.9887 H         1 UNK         0.0600 
    227 H227       -1.6178  -21.3201  -49.2295 H         1 UNK         0.0600 
    228 H228       -2.0665  -22.8977  -49.8628 H         1 UNK         0.0600 
    229 H229       -1.2390  -21.7303  -50.8954 H         1 UNK         0.0600 
    230 H230       -5.3607  -22.7166  -49.8748 H         1 UNK         0.3000 
    231 H231       -5.9081  -21.8377  -47.2482 H         1 UNK         0.0600 
    232 H232       -7.7917  -23.0881  -49.3219 H         1 UNK         0.0600 
    233 H233       -8.0565  -23.0472  -47.5822 H         1 UNK         0.0600 
    234 H234       -6.7265  -23.9870  -48.2449 H         1 UNK         0.0600 
    235 H235       -6.6979  -20.3482  -50.3146 H         1 UNK         0.3000 
    236 H236       -8.8439  -18.6543  -49.5173 H         1 UNK         0.0600 
    237 H237       -8.2379  -17.4119  -51.5919 H         1 UNK         0.0600 
    238 H238       -6.7218  -18.2983  -51.7014 H         1 UNK         0.0600 
    239 H239       -8.2579  -19.1433  -51.8895 H         1 UNK         0.0600 
    240 H240       -5.4287  -18.4977  -48.7416 H         1 UNK         0.3000 
    241 H241       -5.8537  -15.8636  -47.4480 H         1 UNK         0.0600 
    242 H242       -6.0294  -18.8468  -46.4714 H         1 UNK         0.3800 
    243 H243       -5.0422  -18.7505  -45.0341 H         1 UNK         0.3800 
    244 H244       -3.5419  -15.2110  -47.8804 H         1 UNK         0.0800 
    245 H245       -4.4483  -15.3974  -49.3391 H         1 UNK         0.0800 
    246 H246       -1.3194  -15.9221  -47.6661 H         1 UNK         0.0800 
    247 H247       -1.8019  -17.4833  -47.0455 H         1 UNK         0.0800 
@<TRIPOS>BOND
     1    1    2 1    
     2    1  127 1    
     3    1  128 1    
     4    1  129 1    
     5    2    3 2    
     6    2    4 am   BACKBONE|DICT|INTERRES
     7    4    5 1    
     8    4  130 1    
     9    5    6 1    
    10    5   65 1    
    11    5  131 1    
    12    6    7 1    
    13    6  132 1    
    14    6  133 1    
    15    7    8 1    
    16    8    9 1    
    17    8  134 1    
    18    8  135 1    
    19    9   10 ar   
    20    9   14 ar   
    21   10   11 ar   
    22   10  136 1    
    23   11   12 ar   
    24   11  126 1    
    25   12   13 ar   
    26   12  137 1    
    27   13   14 ar   
    28   13   15 1    
    29   14  138 1    
    30   15   16 1    
    31   15  139 1    
    32   15  140 1    
    33   16   17 1    
    34   17   18 1    
    35   17  141 1    
    36   17  142 1    
    37   18   19 1    
    38   18   67 1    
    39   18  143 1    
    40   19   20 am   BACKBONE|DICT|INTERRES
    41   19  144 1    
    42   20   21 2    
    43   20   22 1    
    44   22   23 1    
    45   22   24 1    
    46   22  145 1    
    47   23  146 1    
    48   23  147 1    
    49   23  148 1    
    50   24   25 am   BACKBONE|DICT|INTERRES
    51   24  149 1    
    52   25   26 2    
    53   25   27 1    
    54   27   28 1    
    55   27   29 1    
    56   27  150 1    
    57   28  151 1    
    58   28  152 1    
    59   28  153 1    
    60   29   30 am   BACKBONE|DICT|INTERRES
    61   29  154 1    
    62   30   31 2    
    63   30   32 1    
    64   32   33 1    
    65   32   34 1    
    66   32  155 1    
    67   33  156 1    
    68   33  157 1    
    69   33  158 1    
    70   34   35 am   BACKBONE|DICT|INTERRES
    71   34  159 1    
    72   35   36 2    
    73   35   37 1    
    74   37   38 1    
    75   37   39 1    
    76   37  160 1    
    77   38  161 1    
    78   38  162 1    
    79   38  163 1    
    80   39   40 am   BACKBONE|DICT|INTERRES
    81   39  164 1    
    82   40   41 2    
    83   40   42 1    
    84   42   43 1    
    85   42   44 1    
    86   42  165 1    
    87   43  166 1    
    88   43  167 1    
    89   43  168 1    
    90   44   45 am   BACKBONE|DICT|INTERRES
    91   44  169 1    
    92   45   46 2    
    93   45   47 1    
    94   47   48 1    
    95   47   49 1    
    96   47  170 1    
    97   48  171 1    
    98   48  172 1    
    99   48  173 1    
   100   49   50 am   BACKBONE|DICT|INTERRES
   101   49  174 1    
   102   50   51 2    
   103   50   52 1    
   104   52   53 1    
   105   52   54 1    
   106   52  175 1    
   107   53  176 1    
   108   53  177 1    
   109   53  178 1    
   110   54   55 am   BACKBONE|DICT|INTERRES
   111   54  179 1    
   112   55   56 2    
   113   55   57 1    
   114   57   58 1    
   115   57   59 1    
   116   57  180 1    
   117   58  181 1    
   118   58  182 1    
   119   58  183 1    
   120   59   60 am   BACKBONE|DICT|INTERRES
   121   59  184 1    
   122   60   61 2    
   123   60   62 1    
   124   62   63 1    
   125   62   64 1    
   126   62  185 1    
   127   63  186 1    
   128   63  187 1    
   129   63  188 1    
   130   64   65 am   BACKBONE|DICT|INTERRES
   131   64  189 1    
   132   65   66 2    
   133   67   68 2    
   134   67   69 am   BACKBONE|DICT|INTERRES
   135   69   70 1    
   136   69  190 1    
   137   70   71 1    
   138   70   72 1    
   139   70  191 1    
   140   71  192 1    
   141   71  193 1    
   142   71  194 1    
   143   72   73 2    
   144   72   74 am   BACKBONE|DICT|INTERRES
   145   74   75 1    
   146   74  195 1    
   147   75   76 1    
   148   75   77 1    
   149   75  196 1    
   150   76  197 1    
   151   76  198 1    
   152   76  199 1    
   153   77   78 2    
   154   77   79 am   BACKBONE|DICT|INTERRES
   155   79   80 1    
   156   79  200 1    
   157   80   81 1    
   158   80   82 1    
   159   80  201 1    
   160   81  202 1    
   161   81  203 1    
   162   81  204 1    
   163   82   83 2    
   164   82   84 am   BACKBONE|DICT|INTERRES
   165   84   85 1    
   166   84  205 1    
   167   85   86 1    
   168   85   87 1    
   169   85  206 1    
   170   86  207 1    
   171   86  208 1    
   172   86  209 1    
   173   87   88 2    
   174   87   89 am   BACKBONE|DICT|INTERRES
   175   89   90 1    
   176   89  210 1    
   177   90   91 1    
   178   90   92 1    
   179   90  211 1    
   180   91  212 1    
   181   91  213 1    
   182   91  214 1    
   183   92   93 2    
   184   92   94 am   BACKBONE|DICT|INTERRES
   185   94   95 1    
   186   94  215 1    
   187   95   96 1    
   188   95   97 1    
   189   95  216 1    
   190   96  217 1    
   191   96  218 1    
   192   96  219 1    
   193   97   98 2    
   194   97   99 am   BACKBONE|DICT|INTERRES
   195   99  100 1    
   196   99  220 1    
   197  100  101 1    
   198  100  102 1    
   199  100  221 1    
   200  101  222 1    
   201  101  223 1    
   202  101  224 1    
   203  102  103 2    
   204  102  104 am   BACKBONE|DICT|INTERRES
   205  104  105 1    
   206  104  225 1    
   207  105  106 1    
   208  105  107 1    
   209  105  226 1    
   210  106  227 1    
   211  106  228 1    
   212  106  229 1    
   213  107  108 2    
   214  107  109 am   BACKBONE|DICT|INTERRES
   215  109  110 1    
   216  109  230 1    
   217  110  111 1    
   218  110  112 1    
   219  110  231 1    
   220  111  232 1    
   221  111  233 1    
   222  111  234 1    
   223  112  113 2    
   224  112  114 am   BACKBONE|DICT|INTERRES
   225  114  115 1    
   226  114  235 1    
   227  115  116 1    
   228  115  117 1    
   229  115  236 1    
   230  116  237 1    
   231  116  238 1    
   232  116  239 1    
   233  117  118 2    
   234  117  119 am   BACKBONE|DICT|INTERRES
   235  119  120 1    
   236  119  240 1    
   237  120  121 1    
   238  120  124 1    
   239  120  241 1    
   240  121  122 am   BACKBONE|DICT|INTERRES
   241  121  123 2    
   242  122  242 1    
   243  122  243 1    
   244  124  125 1    
   245  124  244 1    
   246  124  245 1    
   247  125  126 1    
   248  126  246 1    
   249  126  247 1    
@<TRIPOS>SUBSTRUCTURE
     1 UNK         1 GROUP             0       ****    0 ROOT    
