@<TRIPOS>MOLECULE
3R540
247   249    1
SMALL
USER_CHARGES


@<TRIPOS>ATOM
      1 CA          0.3438  -11.6531  -42.5960 C.3       0 UNK        -0.1800 
      2 C           0.5714  -10.9837  -43.9441 C.2       0 UNK         0.5000 
      3 O          -0.1688  -10.0674  -44.3012 O.2       0 UNK        -0.5000 
      4 N           1.5921  -11.4325  -44.6809 N.am      1 UNK        -0.5000 
      5 CA          2.0328  -10.8749  -45.9604 C.3       1 UNK         0.1400 
      6 C6          1.7143  -11.8210  -47.1458 C.3       23 UNK        -0.0398 
      7 S7         -0.0630  -11.8122  -47.5521 S.3       23 UNK        -0.2404 
      8 C8         -0.6126  -13.4091  -46.8764 C.3       23 UNK        -0.0205 
      9 C9         -0.5027  -14.5273  -47.9021 C.ar      23 UNK        -0.0193 
     10 C10        -1.4362  -14.6151  -48.9403 C.ar      23 UNK        -0.1150 
     11 C11        -1.3459  -15.6323  -49.8951 C.ar      23 UNK        -0.0193 
     12 C12        -0.3155  -16.5707  -49.7987 C.ar      23 UNK        -0.1150 
     13 C13         0.6095  -16.5089  -48.7539 C.ar      23 UNK        -0.0193 
     14 C14         0.5159  -15.4808  -47.8108 C.ar      23 UNK        -0.1150 
     15 C15         1.7086  -17.5546  -48.6516 C.3       23 UNK        -0.0205 
     16 S16         1.3015  -18.8502  -47.4432 S.3       23 UNK        -0.2404 
     17 C17        -0.1635  -19.6271  -48.2046 C.3       23 UNK        -0.0398 
     18 CA         -0.4298  -21.0392  -47.6345 C.3       11 UNK         0.1400 
     19 N          -0.6986  -21.0257  -46.1939 N.am      11 UNK        -0.5000 
     20 C          -0.7918  -22.1177  -45.4233 C.2       10 UNK         0.5000 
     21 O          -0.6210  -23.2643  -45.8356 O.2       10 UNK        -0.5000 
     22 CA         -1.1938  -21.8957  -43.9571 C.3       10 UNK         0.1400 
     23 CB          0.0242  -21.5125  -43.1044 C.3       10 UNK        -0.1800 
     24 N          -2.2288  -20.8701  -43.8358 N.am      10 UNK        -0.5000 
     25 C          -3.5086  -21.0501  -44.1900 C.2       9 UNK         0.5000 
     26 O          -3.9543  -22.1139  -44.6200 O.2       9 UNK        -0.5000 
     27 CA         -4.4394  -19.8279  -44.0784 C.3       9 UNK         0.1400 
     28 CB         -4.9902  -19.6961  -42.6507 C.3       9 UNK        -0.1800 
     29 N          -3.7945  -18.5722  -44.4671 N.am      9 UNK        -0.5000 
     30 C          -3.3595  -18.3043  -45.7055 C.2       8 UNK         0.5000 
     31 O          -3.4360  -19.0953  -46.6436 O.2       8 UNK        -0.5000 
     32 CA         -2.6803  -16.9410  -45.9248 C.3       8 UNK         0.1400 
     33 CB         -3.7415  -15.8366  -46.0458 C.3       8 UNK        -0.1800 
     34 N          -1.7036  -16.5552  -44.8999 N.am      8 UNK        -0.5000 
     35 C          -0.7148  -17.3154  -44.4070 C.2       7 UNK         0.5000 
     36 O          -0.5788  -18.5117  -44.6635 O.2       7 UNK        -0.5000 
     37 CA          0.3064  -16.6382  -43.4765 C.3       7 UNK         0.1400 
     38 CB         -0.1077  -15.2328  -42.9973 C.3       7 UNK        -0.1800 
     39 N           0.5233  -17.4865  -42.3028 N.am      7 UNK        -0.5000 
     40 C           1.6128  -18.1703  -41.9148 C.2       6 UNK         0.5000 
     41 O           1.5549  -18.9292  -40.9487 O.2       6 UNK        -0.5000 
     42 CA          2.9760  -18.0211  -42.6315 C.3       6 UNK         0.1400 
     43 CB          3.0319  -18.8600  -43.9180 C.3       6 UNK        -0.1800 
     44 N           3.3649  -16.6434  -42.9217 N.am      6 UNK        -0.5000 
     45 C           3.6245  -15.6863  -42.0247 C.2       5 UNK         0.5000 
     46 O           3.6449  -15.8831  -40.8089 O.2       5 UNK        -0.5000 
     47 CA          3.9146  -14.2771  -42.5929 C.3       5 UNK         0.1400 
     48 CB          4.6082  -13.3537  -41.5765 C.3       5 UNK        -0.1800 
     49 N           4.7081  -14.2995  -43.8261 N.am      5 UNK        -0.5000 
     50 C           4.2431  -14.5650  -45.0538 C.2       4 UNK         0.5000 
     51 O           3.0666  -14.8540  -45.2745 O.2       4 UNK        -0.5000 
     52 CA          5.2651  -14.4984  -46.2010 C.3       4 UNK         0.1400 
     53 CB          4.6209  -14.4422  -47.5993 C.3       4 UNK        -0.1800 
     54 N           6.1434  -13.3465  -46.0193 N.am      4 UNK        -0.5000 
     55 C           7.4140  -13.2639  -46.4335 C.2       3 UNK         0.5000 
     56 O           8.0171  -14.2030  -46.9562 O.2       3 UNK        -0.5000 
     57 CA          8.1320  -11.9102  -46.2213 C.3       3 UNK         0.1400 
     58 CB          9.2378  -11.6505  -47.2663 C.3       3 UNK        -0.1800 
     59 N           7.2162  -10.7643  -46.1330 N.am      3 UNK        -0.5000 
     60 C           6.3728  -10.3238  -47.0784 C.2       2 UNK         0.5000 
     61 O           6.2827  -10.7974  -48.2128 O.2       2 UNK        -0.5000 
     62 CA          5.4280   -9.1834  -46.6562 C.3       2 UNK         0.1400 
     63 CB          5.5574   -7.9764  -47.5993 C.3       2 UNK        -0.1800 
     64 N           4.0296   -9.6179  -46.6186 N.am      2 UNK        -0.5000 
     65 C           3.5432  -10.6034  -45.8515 C.2       1 UNK         0.5000 
     66 O           4.2348  -11.2781  -45.0821 O.2       1 UNK        -0.5000 
     67 C          -1.5545  -21.7520  -48.4124 C.2       11 UNK         0.5000 
     68 O          -1.2593  -22.5912  -49.2620 O.2       11 UNK        -0.5000 
     69 N          -2.8174  -21.4543  -48.0723 N.am      12 UNK        -0.5000 
     70 CA         -4.0043  -22.1161  -48.6149 C.3       12 UNK         0.1400 
     71 CB         -5.2679  -21.4006  -48.1167 C.3       12 UNK        -0.1800 
     72 C          -4.0602  -23.6145  -48.2689 C.2       12 UNK         0.5000 
     73 O          -4.3897  -24.4188  -49.1394 O.2       12 UNK        -0.5000 
     74 N          -3.7088  -23.9686  -47.0234 N.am      13 UNK        -0.5000 
     75 CA         -3.6248  -25.3525  -46.5527 C.3       13 UNK         0.1400 
     76 CB         -3.4299  -25.3801  -45.0297 C.3       13 UNK        -0.1800 
     77 C          -2.5206  -26.1550  -47.2641 C.2       13 UNK         0.5000 
     78 O          -2.7729  -27.2835  -47.6861 O.2       13 UNK        -0.5000 
     79 N          -1.3371  -25.5476  -47.4341 N.am      14 UNK        -0.5000 
     80 CA         -0.2093  -26.1103  -48.1843 C.3       14 UNK         0.1400 
     81 CB          1.0238  -25.2128  -48.0018 C.3       14 UNK        -0.1800 
     82 C          -0.5242  -26.3056  -49.6806 C.2       14 UNK         0.5000 
     83 O          -0.0815  -27.2867  -50.2780 O.2       14 UNK        -0.5000 
     84 N          -1.3241  -25.3901  -50.2401 N.am      15 UNK        -0.5000 
     85 CA         -1.8652  -25.4348  -51.5980 C.3       15 UNK         0.1400 
     86 CB         -2.2023  -23.9982  -52.0154 C.3       15 UNK        -0.1800 
     87 C          -3.0993  -26.3529  -51.7479 C.2       15 UNK         0.5000 
     88 O          -3.6713  -26.4142  -52.8405 O.2       15 UNK        -0.5000 
     89 N          -3.5091  -27.0187  -50.6553 N.am      16 UNK        -0.5000 
     90 CA         -4.6317  -27.9559  -50.5248 C.3       16 UNK         0.1400 
     91 CB         -4.3463  -29.2382  -51.3337 C.3       16 UNK        -0.1800 
     92 C          -6.0066  -27.3418  -50.8649 C.2       16 UNK         0.5000 
     93 O          -6.9233  -28.0725  -51.2441 O.2       16 UNK        -0.5000 
     94 N          -6.1119  -26.0075  -50.7624 N.am      17 UNK        -0.5000 
     95 CA         -7.2163  -25.1549  -51.2174 C.3       17 UNK         0.1400 
     96 CB         -8.4783  -25.3998  -50.3655 C.3       17 UNK        -0.1800 
     97 C          -7.4963  -25.2582  -52.7376 C.2       17 UNK         0.5000 
     98 O          -8.5867  -24.8900  -53.1784 O.2       17 UNK        -0.5000 
     99 N          -6.5277  -25.7760  -53.5073 N.am      18 UNK        -0.5000 
    100 CA        -6.6692  -26.1283  -54.9170 C.3       18 UNK         0.1400 
    101 CB        -6.3450  -27.6211  -55.0946 C.3       18 UNK        -0.1800 
    102 C         -5.7572  -25.2627  -55.7933 C.2       18 UNK         0.5000 
    103 O         -6.2407  -24.6524  -56.7477 O.2       18 UNK        -0.5000 
    104 N         -4.4601  -25.2086  -55.4562 N.am      19 UNK        -0.5000 
    105 CA        -3.4693  -24.4030  -56.1797 C.3       19 UNK         0.1400 
    106 CB        -2.0655  -24.9786  -55.9330 C.3       19 UNK        -0.1800 
    107 C         -3.5394  -22.9054  -55.8163 C.2       19 UNK         0.5000 
    108 O         -3.0941  -22.0649  -56.5984 O.2       19 UNK        -0.5000 
    109 N         -4.1160  -22.6064  -54.6494 N.am      20 UNK        -0.5000 
    110 CA        -4.3844  -21.2890  -54.0940 C.3       20 UNK         0.1400 
    111 CB        -3.0879  -20.6366  -53.5796 C.3       20 UNK        -0.1800 
    112 C         -5.3863  -21.4912  -52.9506 C.2       20 UNK         0.5000 
    113 O         -5.4161  -22.5705  -52.3548 O.2       20 UNK        -0.5000 
    114 N         -6.1782  -20.4582  -52.6583 N.am      21 UNK        -0.5000 
    115 CA        -7.1958  -20.4586  -51.6087 C.3       21 UNK         0.1400 
    116 CB        -8.5476  -20.9165  -52.1882 C.3       21 UNK        -0.1800 
    117 C         -7.2367  -19.0671  -50.9588 C.2       21 UNK         0.5000 
    118 O         -8.2878  -18.4264  -50.9088 O.2       21 UNK        -0.5000 
    119 N         -6.0558  -18.6118  -50.5261 N.am      22 UNK        -0.5000 
    120 CA        -5.8003  -17.3190  -49.8750 C.3       22 UNK         0.1400 
    121 C         -6.6272  -17.1007  -48.5756 C.2       22 UNK         0.5000 
    122 N         -7.0691  -15.8778  -48.3150 N.am      22 UNK        -0.7600 
    123 O         -6.8308  -18.0149  -47.7809 O.2       22 UNK        -0.5000 
    124 C124       -4.2898  -17.1435  -49.5798 C.3       23 UNK        -0.0398 
    125 S125       -3.2535  -17.2840  -51.0755 S.3       23 UNK        -0.2404 
    126 C126       -2.3420  -15.7065  -51.0454 C.3       23 UNK        -0.0205 
    127 H127        0.2979  -10.9019  -41.8075 H         1 UNK         0.0600 
    128 H128        1.1426  -12.3509  -42.3480 H         1 UNK         0.0600 
    129 H129       -0.5997  -12.1987  -42.6025 H         1 UNK         0.0600 
    130 H130        2.2160  -12.1353  -44.3089 H         1 UNK         0.3000 
    131 H131        1.5510   -9.9106  -46.1367 H         1 UNK         0.0600 
    132 H132        2.2476  -11.5118  -48.0465 H         1 UNK         0.0800 
    133 H133        2.0413  -12.8392  -46.9320 H         1 UNK         0.0800 
    134 H134       -1.6503  -13.3068  -46.5596 H         1 UNK         0.0800 
    135 H135       -0.0416  -13.6461  -45.9786 H         1 UNK         0.0800 
    136 H136       -2.2250  -13.8791  -49.0096 H         1 UNK         0.1150 
    137 H137       -0.2424  -17.3579  -50.5360 H         1 UNK         0.1150 
    138 H138        1.2333  -15.4294  -47.0045 H         1 UNK         0.1150 
    139 H139        1.9009  -18.0106  -49.6240 H         1 UNK         0.0800 
    140 H140        2.6413  -17.0785  -48.3508 H         1 UNK         0.0800 
    141 H141       -0.0026  -19.6795  -49.2830 H         1 UNK         0.0800 
    142 H142       -1.0255  -18.9763  -48.0496 H         1 UNK         0.0800 
    143 H143        0.4765  -21.6304  -47.7831 H         1 UNK         0.0600 
    144 H144       -0.8021  -20.1132  -45.7586 H         1 UNK         0.3000 
    145 H145       -1.5925  -22.8359  -43.5705 H         1 UNK         0.0600 
    146 H146       -0.2507  -21.3765  -42.0584 H         1 UNK         0.0600 
    147 H147        0.7867  -22.2913  -43.1431 H         1 UNK         0.0600 
    148 H148        0.4844  -20.5885  -43.4518 H         1 UNK         0.0600 
    149 H149       -1.9149  -19.9390  -43.5974 H         1 UNK         0.3000 
    150 H150       -5.2814  -19.9934  -44.7542 H         1 UNK         0.0600 
    151 H151       -5.4940  -20.6127  -42.3411 H         1 UNK         0.0600 
    152 H152       -5.7182  -18.8876  -42.5819 H         1 UNK         0.0600 
    153 H153       -4.1969  -19.4973  -41.9290 H         1 UNK         0.0600 
    154 H154       -3.6760  -17.8733  -43.7490 H         1 UNK         0.3000 
    155 H155       -2.1425  -17.0010  -46.8732 H         1 UNK         0.0600 
    156 H156       -4.5400  -16.1283  -46.7266 H         1 UNK         0.0600 
    157 H157       -3.3136  -14.9138  -46.4331 H         1 UNK         0.0600 
    158 H158       -4.2046  -15.6154  -45.0836 H         1 UNK         0.0600 
    159 H159       -1.7448  -15.5926  -44.6013 H         1 UNK         0.3000 
    160 H160        1.1976  -16.5363  -44.0885 H         1 UNK         0.0600 
    161 H161       -1.0657  -15.2447  -42.4757 H         1 UNK         0.0600 
    162 H162       -0.1815  -14.5321  -43.8281 H         1 UNK         0.0600 
    163 H163        0.6313  -14.8267  -42.3074 H         1 UNK         0.0600 
    164 H164       -0.3171  -17.6594  -41.7724 H         1 UNK         0.3000 
    165 H165        3.7340  -18.4222  -41.9553 H         1 UNK         0.0600 
    166 H166        4.0213  -18.8195  -44.3736 H         1 UNK         0.0600 
    167 H167        2.8161  -19.9082  -43.7092 H         1 UNK         0.0600 
    168 H168        2.3097  -18.5206  -44.6590 H         1 UNK         0.0600 
    169 H169        3.3365  -16.3607  -43.8936 H         1 UNK         0.3000 
    170 H170        2.9442  -13.8355  -42.8229 H         1 UNK         0.0600 
    171 H171        4.0072  -13.2382  -40.6737 H         1 UNK         0.0600 
    172 H172        5.5816  -13.7446  -41.2782 H         1 UNK         0.0600 
    173 H173        4.7587  -12.3565  -41.9913 H         1 UNK         0.0600 
    174 H174        5.6924  -14.0986  -43.7248 H         1 UNK         0.3000 
    175 H175        5.8502  -15.4175  -46.1307 H         1 UNK         0.0600 
    176 H176        3.8912  -15.2388  -47.7365 H         1 UNK         0.0600 
    177 H177        4.1149  -13.4927  -47.7683 H         1 UNK         0.0600 
    178 H178        5.3725  -14.5565  -48.3804 H         1 UNK         0.0600 
    179 H179        5.7048  -12.5319  -45.5976 H         1 UNK         0.3000 
    180 H180        8.6163  -11.9829  -45.2467 H         1 UNK         0.0600 
    181 H181        8.8425  -11.6436  -48.2824 H         1 UNK         0.0600 
    182 H182       10.0078  -12.4216  -47.2219 H         1 UNK         0.0600 
    183 H183        9.7297  -10.6939  -47.0907 H         1 UNK         0.0600 
    184 H184        7.1791  -10.3191  -45.2263 H         1 UNK         0.3000 
    185 H185        5.6988   -8.8532  -45.6511 H         1 UNK         0.0600 
    186 H186        6.5894   -7.6260  -47.6441 H         1 UNK         0.0600 
    187 H187        5.2506   -8.2236  -48.6165 H         1 UNK         0.0600 
    188 H188        4.9462   -7.1407  -47.2580 H         1 UNK         0.0600 
    189 H189        3.4014   -9.1269  -47.2381 H         1 UNK         0.3000 
    190 H190       -2.9841  -20.7127  -47.3949 H         1 UNK         0.3000 
    191 H191       -3.9698  -22.0256  -49.7026 H         1 UNK         0.0600 
    192 H192       -5.3487  -21.4369  -47.0298 H         1 UNK         0.0600 
    193 H193       -6.1671  -21.8596  -48.5291 H         1 UNK         0.0600 
    194 H194       -5.2698  -20.3519  -48.4115 H         1 UNK         0.0600 
    195 H195       -3.4968  -23.2443  -46.3466 H         1 UNK         0.3000 
    196 H196       -4.5782  -25.8358  -46.7766 H         1 UNK         0.0600 
    197 H197       -3.3834  -26.4054  -44.6607 H         1 UNK         0.0600 
    198 H198       -4.2575  -24.8886  -44.5182 H         1 UNK         0.0600 
    199 H199       -2.5082  -24.8818  -44.7302 H         1 UNK         0.0600 
    200 H200       -1.1898  -24.6341  -47.0112 H         1 UNK         0.3000 
    201 H201        0.0167  -27.0916  -47.7622 H         1 UNK         0.0600 
    202 H202        1.2985  -25.1303  -46.9500 H         1 UNK         0.0600 
    203 H203        0.8474  -24.2055  -48.3803 H         1 UNK         0.0600 
    204 H204        1.8856  -25.6185  -48.5330 H         1 UNK         0.0600 
    205 H205       -1.5835  -24.5791  -49.6879 H         1 UNK         0.3000 
    206 H206       -1.0962  -25.8155  -52.2728 H         1 UNK         0.0600 
    207 H207       -1.3237  -23.3548  -51.9686 H         1 UNK         0.0600 
    208 H208       -2.5707  -23.9643  -53.0356 H         1 UNK         0.0600 
    209 H209       -2.9720  -23.5636  -51.3777 H         1 UNK         0.0600 
    210 H210       -2.9979  -26.8587  -49.7959 H         1 UNK         0.3000 
    211 H211       -4.6780  -28.2312  -49.4706 H         1 UNK         0.0600 
    212 H212       -4.3557  -29.0483  -52.4075 H         1 UNK         0.0600 
    213 H213       -5.0933  -30.0063  -51.1307 H         1 UNK         0.0600 
    214 H214       -3.3742  -29.6583  -51.0755 H         1 UNK         0.0600 
    215 H215       -5.3182  -25.5012  -50.3743 H         1 UNK         0.3000 
    216 H216       -6.9003  -24.1298  -51.0286 H         1 UNK         0.0600 
    217 H217       -9.2493  -24.6611  -50.5874 H         1 UNK         0.0600 
    218 H218       -8.2555  -25.3232  -49.3012 H         1 UNK         0.0600 
    219 H219       -8.9074  -26.3849  -50.5497 H         1 UNK         0.0600 
    220 H220       -5.6447  -26.0192  -53.0711 H         1 UNK         0.3000 
    221 H221       -7.6960  -25.9690  -55.2526 H         1 UNK         0.0600 
    222 H222       -5.3354  -27.8618  -54.7590 H         1 UNK         0.0600 
    223 H223       -7.0383  -28.2410  -54.5256 H         1 UNK         0.0600 
    224 H224       -6.4253  -27.9178  -56.1410 H         1 UNK         0.0600 
    225 H225       -4.1320  -25.7282  -54.6474 H         1 UNK         0.3000 
    226 H226       -3.6702  -24.4806  -57.2505 H         1 UNK         0.0600 
    227 H227       -1.9904  -25.9977  -56.3127 H         1 UNK         0.0600 
    228 H228       -1.3046  -24.3867  -56.4434 H         1 UNK         0.0600 
    229 H229       -1.8083  -25.0016  -54.8755 H         1 UNK         0.0600 
    230 H230       -4.4820  -23.3581  -54.0774 H         1 UNK         0.3000 
    231 H231       -4.8386  -20.6639  -54.8653 H         1 UNK         0.0600 
    232 H232       -2.3553  -20.5176  -54.3776 H         1 UNK         0.0600 
    233 H233       -2.6265  -21.2261  -52.7870 H         1 UNK         0.0600 
    234 H234       -3.2862  -19.6439  -53.1745 H         1 UNK         0.0600 
    235 H235       -6.0777  -19.5920  -53.1704 H         1 UNK         0.3000 
    236 H236       -6.9135  -21.1570  -50.8182 H         1 UNK         0.0600 
    237 H237       -9.3200  -20.9280  -51.4185 H         1 UNK         0.0600 
    238 H238       -8.8856  -20.2568  -52.9880 H         1 UNK         0.0600 
    239 H239       -8.4798  -21.9267  -52.5930 H         1 UNK         0.0600 
    240 H240       -5.2460  -19.2021  -50.6416 H         1 UNK         0.3000 
    241 H241       -6.0970  -16.5483  -50.5891 H         1 UNK         0.0600 
    242 H242       -6.9170  -15.1094  -48.9499 H         1 UNK         0.3800 
    243 H243       -7.5971  -15.7213  -47.4707 H         1 UNK         0.3800 
    244 H244       -4.1069  -16.1763  -49.1098 H         1 UNK         0.0800 
    245 H245       -3.9503  -17.8974  -48.8698 H         1 UNK         0.0800 
    246 H246       -1.7987  -15.5983  -51.9850 H         1 UNK         0.0800 
    247 H247       -3.0529  -14.8797  -51.0057 H         1 UNK         0.0800 
@<TRIPOS>BOND
     1    1    2 1    
     2    1  127 1    
     3    1  128 1    
     4    1  129 1    
     5    2    3 2    
     6    2    4 am   BACKBONE|DICT|INTERRES
     7    4    5 1    
     8    4  130 1    
     9    5    6 1    
    10    5   65 1    
    11    5  131 1    
    12    6    7 1    
    13    6  132 1    
    14    6  133 1    
    15    7    8 1    
    16    8    9 1    
    17    8  134 1    
    18    8  135 1    
    19    9   10 ar   
    20    9   14 ar   
    21   10   11 ar   
    22   10  136 1    
    23   11   12 ar   
    24   11  126 1    
    25   12   13 ar   
    26   12  137 1    
    27   13   14 ar   
    28   13   15 1    
    29   14  138 1    
    30   15   16 1    
    31   15  139 1    
    32   15  140 1    
    33   16   17 1    
    34   17   18 1    
    35   17  141 1    
    36   17  142 1    
    37   18   19 1    
    38   18   67 1    
    39   18  143 1    
    40   19   20 am   BACKBONE|DICT|INTERRES
    41   19  144 1    
    42   20   21 2    
    43   20   22 1    
    44   22   23 1    
    45   22   24 1    
    46   22  145 1    
    47   23  146 1    
    48   23  147 1    
    49   23  148 1    
    50   24   25 am   BACKBONE|DICT|INTERRES
    51   24  149 1    
    52   25   26 2    
    53   25   27 1    
    54   27   28 1    
    55   27   29 1    
    56   27  150 1    
    57   28  151 1    
    58   28  152 1    
    59   28  153 1    
    60   29   30 am   BACKBONE|DICT|INTERRES
    61   29  154 1    
    62   30   31 2    
    63   30   32 1    
    64   32   33 1    
    65   32   34 1    
    66   32  155 1    
    67   33  156 1    
    68   33  157 1    
    69   33  158 1    
    70   34   35 am   BACKBONE|DICT|INTERRES
    71   34  159 1    
    72   35   36 2    
    73   35   37 1    
    74   37   38 1    
    75   37   39 1    
    76   37  160 1    
    77   38  161 1    
    78   38  162 1    
    79   38  163 1    
    80   39   40 am   BACKBONE|DICT|INTERRES
    81   39  164 1    
    82   40   41 2    
    83   40   42 1    
    84   42   43 1    
    85   42   44 1    
    86   42  165 1    
    87   43  166 1    
    88   43  167 1    
    89   43  168 1    
    90   44   45 am   BACKBONE|DICT|INTERRES
    91   44  169 1    
    92   45   46 2    
    93   45   47 1    
    94   47   48 1    
    95   47   49 1    
    96   47  170 1    
    97   48  171 1    
    98   48  172 1    
    99   48  173 1    
   100   49   50 am   BACKBONE|DICT|INTERRES
   101   49  174 1    
   102   50   51 2    
   103   50   52 1    
   104   52   53 1    
   105   52   54 1    
   106   52  175 1    
   107   53  176 1    
   108   53  177 1    
   109   53  178 1    
   110   54   55 am   BACKBONE|DICT|INTERRES
   111   54  179 1    
   112   55   56 2    
   113   55   57 1    
   114   57   58 1    
   115   57   59 1    
   116   57  180 1    
   117   58  181 1    
   118   58  182 1    
   119   58  183 1    
   120   59   60 am   BACKBONE|DICT|INTERRES
   121   59  184 1    
   122   60   61 2    
   123   60   62 1    
   124   62   63 1    
   125   62   64 1    
   126   62  185 1    
   127   63  186 1    
   128   63  187 1    
   129   63  188 1    
   130   64   65 am   BACKBONE|DICT|INTERRES
   131   64  189 1    
   132   65   66 2    
   133   67   68 2    
   134   67   69 am   BACKBONE|DICT|INTERRES
   135   69   70 1    
   136   69  190 1    
   137   70   71 1    
   138   70   72 1    
   139   70  191 1    
   140   71  192 1    
   141   71  193 1    
   142   71  194 1    
   143   72   73 2    
   144   72   74 am   BACKBONE|DICT|INTERRES
   145   74   75 1    
   146   74  195 1    
   147   75   76 1    
   148   75   77 1    
   149   75  196 1    
   150   76  197 1    
   151   76  198 1    
   152   76  199 1    
   153   77   78 2    
   154   77   79 am   BACKBONE|DICT|INTERRES
   155   79   80 1    
   156   79  200 1    
   157   80   81 1    
   158   80   82 1    
   159   80  201 1    
   160   81  202 1    
   161   81  203 1    
   162   81  204 1    
   163   82   83 2    
   164   82   84 am   BACKBONE|DICT|INTERRES
   165   84   85 1    
   166   84  205 1    
   167   85   86 1    
   168   85   87 1    
   169   85  206 1    
   170   86  207 1    
   171   86  208 1    
   172   86  209 1    
   173   87   88 2    
   174   87   89 am   BACKBONE|DICT|INTERRES
   175   89   90 1    
   176   89  210 1    
   177   90   91 1    
   178   90   92 1    
   179   90  211 1    
   180   91  212 1    
   181   91  213 1    
   182   91  214 1    
   183   92   93 2    
   184   92   94 am   BACKBONE|DICT|INTERRES
   185   94   95 1    
   186   94  215 1    
   187   95   96 1    
   188   95   97 1    
   189   95  216 1    
   190   96  217 1    
   191   96  218 1    
   192   96  219 1    
   193   97   98 2    
   194   97   99 am   BACKBONE|DICT|INTERRES
   195   99  100 1    
   196   99  220 1    
   197  100  101 1    
   198  100  102 1    
   199  100  221 1    
   200  101  222 1    
   201  101  223 1    
   202  101  224 1    
   203  102  103 2    
   204  102  104 am   BACKBONE|DICT|INTERRES
   205  104  105 1    
   206  104  225 1    
   207  105  106 1    
   208  105  107 1    
   209  105  226 1    
   210  106  227 1    
   211  106  228 1    
   212  106  229 1    
   213  107  108 2    
   214  107  109 am   BACKBONE|DICT|INTERRES
   215  109  110 1    
   216  109  230 1    
   217  110  111 1    
   218  110  112 1    
   219  110  231 1    
   220  111  232 1    
   221  111  233 1    
   222  111  234 1    
   223  112  113 2    
   224  112  114 am   BACKBONE|DICT|INTERRES
   225  114  115 1    
   226  114  235 1    
   227  115  116 1    
   228  115  117 1    
   229  115  236 1    
   230  116  237 1    
   231  116  238 1    
   232  116  239 1    
   233  117  118 2    
   234  117  119 am   BACKBONE|DICT|INTERRES
   235  119  120 1    
   236  119  240 1    
   237  120  121 1    
   238  120  124 1    
   239  120  241 1    
   240  121  122 am   BACKBONE|DICT|INTERRES
   241  121  123 2    
   242  122  242 1    
   243  122  243 1    
   244  124  125 1    
   245  124  244 1    
   246  124  245 1    
   247  125  126 1    
   248  126  246 1    
   249  126  247 1    
@<TRIPOS>SUBSTRUCTURE
     1 UNK         1 GROUP             0       ****    0 ROOT    
