@<TRIPOS>MOLECULE
3R540
247   249    1
SMALL
USER_CHARGES


@<TRIPOS>ATOM
      1 CA          6.6842  -11.2961  -47.7407 C.3       0 UNK        -0.1800 
      2 C           5.4172  -12.0502  -47.3639 C.2       0 UNK         0.5000 
      3 O           4.9961  -12.0044  -46.2075 O.2       0 UNK        -0.5000 
      4 N           4.8030  -12.7390  -48.3333 N.am      1 UNK        -0.5000 
      5 CA          3.5786  -13.5312  -48.1733 C.3       1 UNK         0.1400 
      6 C6          3.4579  -14.6387  -49.2478 C.3       23 UNK        -0.0398 
      7 S7          4.8142  -15.8558  -49.1778 S.3       23 UNK        -0.2404 
      8 C8          4.7646  -16.5238  -50.8714 C.3       23 UNK        -0.0205 
      9 C9          3.5509  -17.4144  -51.0979 C.ar      23 UNK        -0.0193 
     10 C10         2.3227  -16.8565  -51.4619 C.ar      23 UNK        -0.1150 
     11 C11         1.2007  -17.6653  -51.6577 C.ar      23 UNK        -0.0193 
     12 C12         1.3197  -19.0514  -51.5217 C.ar      23 UNK        -0.1150 
     13 C13         2.5504  -19.6247  -51.1835 C.ar      23 UNK        -0.0193 
     14 C14         3.6577  -18.8006  -50.9607 C.ar      23 UNK        -0.1150 
     15 C15         2.6997  -21.1344  -51.0797 C.3       23 UNK        -0.0205 
     16 S16         2.5370  -21.7092  -49.3631 S.3       23 UNK        -0.2404 
     17 C17         0.7407  -21.5429  -49.1088 C.3       23 UNK        -0.0398 
     18 CA          0.2175  -22.5779  -48.0886 C.3       11 UNK         0.1400 
     19 N           0.6476  -22.2871  -46.7185 N.am      11 UNK        -0.5000 
     20 C           0.4558  -23.1092  -45.6772 C.2       10 UNK         0.5000 
     21 O          -0.0539  -24.2259  -45.7706 O.2       10 UNK        -0.5000 
     22 CA          0.8444  -22.5736  -44.2899 C.3       10 UNK         0.1400 
     23 CB          2.3627  -22.6621  -44.0755 C.3       10 UNK        -0.1800 
     24 N           0.3848  -21.2008  -44.0739 N.am      10 UNK        -0.5000 
     25 C          -0.9033  -20.8282  -44.0466 C.2       9 UNK         0.5000 
     26 O          -1.8424  -21.6162  -44.1566 O.2       9 UNK        -0.5000 
     27 CA         -1.1972  -19.3228  -43.9115 C.3       9 UNK         0.1400 
     28 CB         -1.0833  -18.8721  -42.4480 C.3       9 UNK        -0.1800 
     29 N          -0.3323  -18.4923  -44.7488 N.am      9 UNK        -0.5000 
     30 C          -0.2937  -18.5348  -46.0890 C.2       8 UNK         0.5000 
     31 O          -0.9982  -19.2726  -46.7766 O.2       8 UNK        -0.5000 
     32 CA          0.7499  -17.6380  -46.7743 C.3       8 UNK         0.1400 
     33 CB          0.2663  -16.1824  -46.8249 C.3       8 UNK        -0.1800 
     34 N           2.0472  -17.7017  -46.1028 N.am      8 UNK        -0.5000 
     35 C           2.8030  -18.8061  -46.0222 C.2       7 UNK         0.5000 
     36 O           2.4928  -19.8903  -46.5148 O.2       7 UNK        -0.5000 
     37 CA          4.0951  -18.6866  -45.1959 C.3       7 UNK         0.1400 
     38 CB          5.1751  -17.9219  -45.9768 C.3       7 UNK        -0.1800 
     39 N           3.8699  -18.0328  -43.9052 N.am      7 UNK        -0.5000 
     40 C           3.1054  -18.5337  -42.9237 C.2       6 UNK         0.5000 
     41 O           2.5316  -19.6187  -42.9890 O.2       6 UNK        -0.5000 
     42 CA          2.9159  -17.6585  -41.6722 C.3       6 UNK         0.1400 
     43 CB          4.0472  -17.9067  -40.6634 C.3       6 UNK        -0.1800 
     44 N           2.8365  -16.2276  -41.9719 N.am      6 UNK        -0.5000 
     45 C           1.8811  -15.6561  -42.7163 C.2       5 UNK         0.5000 
     46 O           0.9750  -16.2817  -43.2729 O.2       5 UNK        -0.5000 
     47 CA          2.0041  -14.1373  -42.9152 C.3       5 UNK         0.1400 
     48 CB          2.8013  -13.8391  -44.1937 C.3       5 UNK        -0.1800 
     49 N           0.6935  -13.4880  -42.9837 N.am      5 UNK        -0.5000 
     50 C          -0.0975  -13.2901  -41.9171 C.2       4 UNK         0.5000 
     51 O           0.2161  -13.6426  -40.7784 O.2       4 UNK        -0.5000 
     52 CA         -1.4394  -12.5528  -42.1172 C.3       4 UNK         0.1400 
     53 CB         -1.4983  -11.2885  -41.2424 C.3       4 UNK        -0.1800 
     54 N          -1.6725  -12.1544  -43.5049 N.am      4 UNK        -0.5000 
     55 C          -2.4806  -12.7836  -44.3675 C.2       3 UNK         0.5000 
     56 O          -3.1654  -13.7641  -44.0746 O.2       3 UNK        -0.5000 
     57 CA         -2.5287  -12.2291  -45.8096 C.3       3 UNK         0.1400 
     58 CB         -3.7709  -11.3453  -46.0012 C.3       3 UNK        -0.1800 
     59 N          -1.3385  -11.4718  -46.2242 N.am      3 UNK        -0.5000 
     60 C          -0.0959  -11.9690  -46.2552 C.2       2 UNK         0.5000 
     61 O           0.1814  -13.1009  -45.8579 O.2       2 UNK        -0.5000 
     62 CA          1.0256  -11.0335  -46.7474 C.3       2 UNK         0.1400 
     63 CB          1.3952  -10.0198  -45.6528 C.3       2 UNK        -0.1800 
     64 N           2.2259  -11.7914  -47.1014 N.am      2 UNK        -0.5000 
     65 C           2.3292  -12.6220  -48.1450 C.2       1 UNK         0.5000 
     66 O           1.4958  -12.6771  -49.0515 O.2       1 UNK        -0.5000 
     67 C          -1.3127  -22.7182  -48.1852 C.2       11 UNK         0.5000 
     68 O          -1.7886  -23.6777  -48.7923 O.2       11 UNK        -0.5000 
     69 N          -2.0550  -21.7907  -47.5626 N.am      12 UNK        -0.5000 
     70 CA         -3.5159  -21.8071  -47.5024 C.3       12 UNK         0.1400 
     71 CB         -4.0347  -20.5260  -46.8361 C.3       12 UNK        -0.1800 
     72 C          -4.0772  -23.0578  -46.8070 C.2       12 UNK         0.5000 
     73 O          -5.0482  -23.6284  -47.2995 O.2       12 UNK        -0.5000 
     74 N          -3.4393  -23.4877  -45.7113 N.am      13 UNK        -0.5000 
     75 CA         -3.7651  -24.7281  -45.0095 C.3       13 UNK         0.1400 
     76 CB         -3.0133  -24.7717  -43.6704 C.3       13 UNK        -0.1800 
     77 C          -3.4627  -25.9832  -45.8506 C.2       13 UNK         0.5000 
     78 O          -4.2744  -26.9094  -45.8689 O.2       13 UNK        -0.5000 
     79 N          -2.3092  -25.9898  -46.5327 N.am      14 UNK        -0.5000 
     80 CA         -1.8385  -27.1028  -47.3567 C.3       14 UNK         0.1400 
     81 CB         -0.3542  -26.8957  -47.6956 C.3       14 UNK        -0.1800 
     82 C          -2.6587  -27.3122  -48.6426 C.2       14 UNK         0.5000 
     83 O          -2.9554  -28.4581  -48.9837 O.2       14 UNK        -0.5000 
     84 N          -2.9984  -26.2164  -49.3334 N.am      15 UNK        -0.5000 
     85 CA         -3.6480  -26.2236  -50.6465 C.3       15 UNK         0.1400 
     86 CB         -2.6764  -25.6534  -51.6963 C.3       15 UNK        -0.1800 
     87 C          -5.0266  -25.5355  -50.6232 C.2       15 UNK         0.5000 
     88 O          -5.4197  -24.9021  -51.6041 O.2       15 UNK        -0.5000 
     89 N          -5.7516  -25.7084  -49.5080 N.am      16 UNK        -0.5000 
     90 CA         -7.1819  -25.4264  -49.3115 C.3       16 UNK         0.1400 
     91 CB         -8.0151  -26.5224  -50.0069 C.3       16 UNK        -0.1800 
     92 C          -7.6364  -24.0049  -49.7141 C.2       16 UNK         0.5000 
     93 O          -8.7324  -23.8370  -50.2538 O.2       16 UNK        -0.5000 
     94 N          -6.7748  -23.0139  -49.4523 N.am      17 UNK        -0.5000 
     95 CA         -6.8846  -21.5755  -49.7235 C.3       17 UNK         0.1400 
     96 CB         -8.0344  -20.9489  -48.9138 C.3       17 UNK        -0.1800 
     97 C          -6.9789  -21.1819  -51.2124 C.2       17 UNK         0.5000 
     98 O          -6.2470  -20.2875  -51.6448 O.2       17 UNK        -0.5000 
     99 N          -7.8804  -21.8302  -51.9563 N.am      18 UNK        -0.5000 
    100 CA        -8.2111  -21.5396  -53.3481 C.3       18 UNK         0.1400 
    101 CB        -9.5314  -22.2357  -53.7131 C.3       18 UNK        -0.1800 
    102 C         -7.0918  -21.9389  -54.3204 C.2       18 UNK         0.5000 
    103 O         -6.6833  -21.1153  -55.1393 O.2       18 UNK        -0.5000 
    104 N         -6.5944  -23.1789  -54.1996 N.am      19 UNK        -0.5000 
    105 CA        -5.4930  -23.6912  -55.0222 C.3       19 UNK         0.1400 
    106 CB        -5.4984  -25.2278  -55.0156 C.3       19 UNK        -0.1800 
    107 C         -4.1291  -23.1268  -54.5832 C.2       19 UNK         0.5000 
    108 O         -3.2160  -23.0373  -55.4044 O.2       19 UNK        -0.5000 
    109 N         -4.0318  -22.7178  -53.3103 N.am      20 UNK        -0.5000 
    110 CA        -2.8991  -21.9854  -52.7461 C.3       20 UNK         0.1400 
    111 CB        -3.0884  -21.8663  -51.2263 C.3       20 UNK        -0.1800 
    112 C         -2.7495  -20.5716  -53.3343 C.2       20 UNK         0.5000 
    113 O         -1.6317  -20.0633  -53.3985 O.2       20 UNK        -0.5000 
    114 N         -3.8884  -19.9580  -53.6951 N.am      21 UNK        -0.5000 
    115 CA        -4.0645  -18.5592  -54.1026 C.3       21 UNK         0.1400 
    116 CB        -3.3044  -18.2596  -55.4112 C.3       21 UNK        -0.1800 
    117 C         -3.7361  -17.5586  -52.9709 C.2       21 UNK         0.5000 
    118 O         -3.4017  -16.4058  -53.2475 O.2       21 UNK        -0.5000 
    119 N         -3.8437  -18.0231  -51.7203 N.am      22 UNK        -0.5000 
    120 CA        -3.5264  -17.2864  -50.4878 C.3       22 UNK         0.1400 
    121 C         -4.5680  -17.5155  -49.3551 C.2       22 UNK         0.5000 
    122 N         -5.6482  -18.2577  -49.5688 N.am      22 UNK        -0.7600 
    123 O         -4.4155  -16.9797  -48.2617 O.2       22 UNK        -0.5000 
    124 C124       -2.0597  -17.5462  -50.0240 C.3       23 UNK        -0.0398 
    125 S125       -0.9277  -16.2400  -50.6078 S.3       23 UNK        -0.2404 
    126 C126       -0.1252  -17.0274  -52.0390 C.3       23 UNK        -0.0205 
    127 H127        7.5228  -11.6499  -47.1409 H         1 UNK         0.0600 
    128 H128        6.5554  -10.2301  -47.5538 H         1 UNK         0.0600 
    129 H129        6.9381  -11.4294  -48.7926 H         1 UNK         0.0600 
    130 H130        5.1918  -12.7276  -49.2653 H         1 UNK         0.3000 
    131 H131        3.6196  -14.0332  -47.2042 H         1 UNK         0.0600 
    132 H132        3.4287  -14.1910  -50.2425 H         1 UNK         0.0800 
    133 H133        2.5224  -15.1873  -49.1268 H         1 UNK         0.0800 
    134 H134        4.7743  -15.7070  -51.5946 H         1 UNK         0.0800 
    135 H135        5.6794  -17.0916  -51.0479 H         1 UNK         0.0800 
    136 H136        2.2311  -15.7868  -51.5835 H         1 UNK         0.1150 
    137 H137        0.4587  -19.6824  -51.6918 H         1 UNK         0.1150 
    138 H138        4.6062  -19.2416  -50.6877 H         1 UNK         0.1150 
    139 H139        1.9724  -21.6401  -51.7167 H         1 UNK         0.0800 
    140 H140        3.6814  -21.4285  -51.4539 H         1 UNK         0.0800 
    141 H141        0.2478  -21.6771  -50.0732 H         1 UNK         0.0800 
    142 H142        0.5190  -20.5239  -48.7865 H         1 UNK         0.0800 
    143 H143        0.6322  -23.5523  -48.3561 H         1 UNK         0.0600 
    144 H144        1.1140  -21.3974  -46.5684 H         1 UNK         0.3000 
    145 H145        0.3606  -23.2073  -43.5438 H         1 UNK         0.0600 
    146 H146        2.7233  -23.6774  -44.2445 H         1 UNK         0.0600 
    147 H147        2.9053  -22.0024  -44.7533 H         1 UNK         0.0600 
    148 H148        2.6319  -22.3880  -43.0554 H         1 UNK         0.0600 
    149 H149        1.1063  -20.5016  -43.9213 H         1 UNK         0.3000 
    150 H150       -2.2257  -19.1557  -44.2370 H         1 UNK         0.0600 
    151 H151       -1.3490  -17.8205  -42.3371 H         1 UNK         0.0600 
    152 H152       -0.0715  -19.0034  -42.0648 H         1 UNK         0.0600 
    153 H153       -1.7542  -19.4477  -41.8092 H         1 UNK         0.0600 
    154 H154        0.2623  -17.8248  -44.2656 H         1 UNK         0.3000 
    155 H155        0.8815  -17.9917  -47.7997 H         1 UNK         0.0600 
    156 H156       -0.6819  -16.1022  -47.3571 H         1 UNK         0.0600 
    157 H157        0.9804  -15.5408  -47.3390 H         1 UNK         0.0600 
    158 H158        0.1120  -15.7754  -45.8252 H         1 UNK         0.0600 
    159 H159        2.3466  -16.8724  -45.6141 H         1 UNK         0.3000 
    160 H160        4.4625  -19.6971  -45.0045 H         1 UNK         0.0600 
    161 H161        5.3512  -18.3813  -46.9506 H         1 UNK         0.0600 
    162 H162        6.1243  -17.9232  -45.4411 H         1 UNK         0.0600 
    163 H163        4.8903  -16.8837  -46.1522 H         1 UNK         0.0600 
    164 H164        4.3062  -17.1342  -43.7636 H         1 UNK         0.3000 
    165 H165        1.9741  -17.9516  -41.2044 H         1 UNK         0.0600 
    166 H166        3.8761  -17.3597  -39.7360 H         1 UNK         0.0600 
    167 H167        4.1154  -18.9648  -40.4067 H         1 UNK         0.0600 
    168 H168        5.0164  -17.6021  -41.0602 H         1 UNK         0.0600 
    169 H169        3.5507  -15.6442  -41.5603 H         1 UNK         0.3000 
    170 H170        2.5493  -13.7123  -42.0696 H         1 UNK         0.0600 
    171 H171        2.8722  -12.7669  -44.3731 H         1 UNK         0.0600 
    172 H172        3.8201  -14.2210  -44.1196 H         1 UNK         0.0600 
    173 H173        2.3453  -14.3004  -45.0698 H         1 UNK         0.0600 
    174 H174        0.3503  -13.2687  -43.9136 H         1 UNK         0.3000 
    175 H175       -2.2273  -13.2302  -41.7818 H         1 UNK         0.0600 
    176 H176       -0.7101  -10.5813  -41.5036 H         1 UNK         0.0600 
    177 H177       -2.4559  -10.7789  -41.3514 H         1 UNK         0.0600 
    178 H178       -1.3834  -11.5335  -40.1857 H         1 UNK         0.0600 
    179 H179       -1.1476  -11.3597  -43.8387 H         1 UNK         0.3000 
    180 H180       -2.6161  -13.0887  -46.4776 H         1 UNK         0.0600 
    181 H181       -3.8772  -11.0322  -47.0400 H         1 UNK         0.0600 
    182 H182       -3.7252  -10.4490  -45.3815 H         1 UNK         0.0600 
    183 H183       -4.6804  -11.8843  -45.7322 H         1 UNK         0.0600 
    184 H184       -1.4973  -10.5262  -46.5414 H         1 UNK         0.3000 
    185 H185        0.6741  -10.4974  -47.6312 H         1 UNK         0.0600 
    186 H186        1.7311  -10.5155  -44.7409 H         1 UNK         0.0600 
    187 H187        2.1932   -9.3555  -45.9850 H         1 UNK         0.0600 
    188 H188        0.5422   -9.3928  -45.3907 H         1 UNK         0.0600 
    189 H189        2.9862  -11.7894  -46.4302 H         1 UNK         0.3000 
    190 H190       -1.5935  -21.0009  -47.1161 H         1 UNK         0.3000 
    191 H191       -3.8779  -21.8183  -48.5297 H         1 UNK         0.0600 
    192 H192       -3.7023  -20.4467  -45.8014 H         1 UNK         0.0600 
    193 H193       -5.1250  -20.4989  -46.8352 H         1 UNK         0.0600 
    194 H194       -3.6882  -19.6393  -47.3660 H         1 UNK         0.0600 
    195 H195       -2.6822  -22.9273  -45.3300 H         1 UNK         0.3000 
    196 H196       -4.8359  -24.7217  -44.7954 H         1 UNK         0.0600 
    197 H197       -3.2522  -25.6807  -43.1170 H         1 UNK         0.0600 
    198 H198       -3.2846  -23.9251  -43.0395 H         1 UNK         0.0600 
    199 H199       -1.9326  -24.7472  -43.8132 H         1 UNK         0.0600 
    200 H200       -1.6763  -25.2023  -46.4312 H         1 UNK         0.3000 
    201 H201       -1.9202  -28.0152  -46.7622 H         1 UNK         0.0600 
    202 H202        0.2529  -26.8459  -46.7916 H         1 UNK         0.0600 
    203 H203       -0.1945  -25.9743  -48.2565 H         1 UNK         0.0600 
    204 H204        0.0289  -27.7192  -48.2994 H         1 UNK         0.0600 
    205 H205       -2.6901  -25.3073  -48.9928 H         1 UNK         0.3000 
    206 H206       -3.8649  -27.2485  -50.9530 H         1 UNK         0.0600 
    207 H207       -3.1434  -25.5682  -52.6778 H         1 UNK         0.0600 
    208 H208       -2.3026  -24.6715  -51.4153 H         1 UNK         0.0600 
    209 H209       -1.8111  -26.3060  -51.8117 H         1 UNK         0.0600 
    210 H210       -5.2952  -26.1738  -48.7358 H         1 UNK         0.3000 
    211 H211       -7.3612  -25.5034  -48.2382 H         1 UNK         0.0600 
    212 H212       -7.9064  -26.4803  -51.0913 H         1 UNK         0.0600 
    213 H213       -9.0764  -26.4183  -49.7776 H         1 UNK         0.0600 
    214 H214       -7.7121  -27.5166  -49.6783 H         1 UNK         0.0600 
    215 H215       -5.9433  -23.2921  -48.9381 H         1 UNK         0.3000 
    216 H216       -5.9581  -21.1383  -49.3528 H         1 UNK         0.0600 
    217 H217       -8.0859  -19.8714  -49.0720 H         1 UNK         0.0600 
    218 H218       -7.8961  -21.1145  -47.8453 H         1 UNK         0.0600 
    219 H219       -9.0038  -21.3621  -49.1934 H         1 UNK         0.0600 
    220 H220       -8.4059  -22.5719  -51.4974 H         1 UNK         0.3000 
    221 H221       -8.3616  -20.4618  -53.4399 H         1 UNK         0.0600 
    222 H222       -9.4656  -23.3177  -53.5918 H         1 UNK         0.0600 
    223 H223      -10.3490  -21.8794  -53.0863 H         1 UNK         0.0600 
    224 H224       -9.8059  -22.0359  -54.7497 H         1 UNK         0.0600 
    225 H225       -6.9431  -23.7870  -53.4712 H         1 UNK         0.3000 
    226 H226       -5.6572  -23.3696  -56.0531 H         1 UNK         0.0600 
    227 H227       -6.4486  -25.6190  -55.3791 H         1 UNK         0.0600 
    228 H228       -4.7162  -25.6202  -55.6665 H         1 UNK         0.0600 
    229 H229       -5.3271  -25.6371  -54.0219 H         1 UNK         0.0600 
    230 H230       -4.8088  -22.9132  -52.6936 H         1 UNK         0.3000 
    231 H231       -1.9874  -22.5506  -52.9500 H         1 UNK         0.0600 
    232 H232       -3.8778  -21.1632  -50.9664 H         1 UNK         0.0600 
    233 H233       -3.3470  -22.8198  -50.7705 H         1 UNK         0.0600 
    234 H234       -2.1740  -21.5070  -50.7549 H         1 UNK         0.0600 
    235 H235       -4.7496  -20.4774  -53.5856 H         1 UNK         0.3000 
    236 H236       -5.1295  -18.4419  -54.3073 H         1 UNK         0.0600 
    237 H237       -2.2241  -18.2647  -55.2645 H         1 UNK         0.0600 
    238 H238       -3.5432  -18.9927  -56.1817 H         1 UNK         0.0600 
    239 H239       -3.5743  -17.2784  -55.8032 H         1 UNK         0.0600 
    240 H240       -4.1671  -18.9717  -51.5982 H         1 UNK         0.3000 
    241 H241       -3.6423  -16.2214  -50.6979 H         1 UNK         0.0600 
    242 H242       -6.3148  -18.3447  -48.8197 H         1 UNK         0.3800 
    243 H243       -5.8413  -18.6855  -50.4654 H         1 UNK         0.3800 
    244 H244       -1.9728  -17.5598  -48.9364 H         1 UNK         0.0800 
    245 H245       -1.7072  -18.5267  -50.3481 H         1 UNK         0.0800 
    246 H246        0.0492  -16.2669  -52.8013 H         1 UNK         0.0800 
    247 H247       -0.7940  -17.7570  -52.4939 H         1 UNK         0.0800 
@<TRIPOS>BOND
     1    1    2 1    
     2    1  127 1    
     3    1  128 1    
     4    1  129 1    
     5    2    3 2    
     6    2    4 am   BACKBONE|DICT|INTERRES
     7    4    5 1    
     8    4  130 1    
     9    5    6 1    
    10    5   65 1    
    11    5  131 1    
    12    6    7 1    
    13    6  132 1    
    14    6  133 1    
    15    7    8 1    
    16    8    9 1    
    17    8  134 1    
    18    8  135 1    
    19    9   10 ar   
    20    9   14 ar   
    21   10   11 ar   
    22   10  136 1    
    23   11   12 ar   
    24   11  126 1    
    25   12   13 ar   
    26   12  137 1    
    27   13   14 ar   
    28   13   15 1    
    29   14  138 1    
    30   15   16 1    
    31   15  139 1    
    32   15  140 1    
    33   16   17 1    
    34   17   18 1    
    35   17  141 1    
    36   17  142 1    
    37   18   19 1    
    38   18   67 1    
    39   18  143 1    
    40   19   20 am   BACKBONE|DICT|INTERRES
    41   19  144 1    
    42   20   21 2    
    43   20   22 1    
    44   22   23 1    
    45   22   24 1    
    46   22  145 1    
    47   23  146 1    
    48   23  147 1    
    49   23  148 1    
    50   24   25 am   BACKBONE|DICT|INTERRES
    51   24  149 1    
    52   25   26 2    
    53   25   27 1    
    54   27   28 1    
    55   27   29 1    
    56   27  150 1    
    57   28  151 1    
    58   28  152 1    
    59   28  153 1    
    60   29   30 am   BACKBONE|DICT|INTERRES
    61   29  154 1    
    62   30   31 2    
    63   30   32 1    
    64   32   33 1    
    65   32   34 1    
    66   32  155 1    
    67   33  156 1    
    68   33  157 1    
    69   33  158 1    
    70   34   35 am   BACKBONE|DICT|INTERRES
    71   34  159 1    
    72   35   36 2    
    73   35   37 1    
    74   37   38 1    
    75   37   39 1    
    76   37  160 1    
    77   38  161 1    
    78   38  162 1    
    79   38  163 1    
    80   39   40 am   BACKBONE|DICT|INTERRES
    81   39  164 1    
    82   40   41 2    
    83   40   42 1    
    84   42   43 1    
    85   42   44 1    
    86   42  165 1    
    87   43  166 1    
    88   43  167 1    
    89   43  168 1    
    90   44   45 am   BACKBONE|DICT|INTERRES
    91   44  169 1    
    92   45   46 2    
    93   45   47 1    
    94   47   48 1    
    95   47   49 1    
    96   47  170 1    
    97   48  171 1    
    98   48  172 1    
    99   48  173 1    
   100   49   50 am   BACKBONE|DICT|INTERRES
   101   49  174 1    
   102   50   51 2    
   103   50   52 1    
   104   52   53 1    
   105   52   54 1    
   106   52  175 1    
   107   53  176 1    
   108   53  177 1    
   109   53  178 1    
   110   54   55 am   BACKBONE|DICT|INTERRES
   111   54  179 1    
   112   55   56 2    
   113   55   57 1    
   114   57   58 1    
   115   57   59 1    
   116   57  180 1    
   117   58  181 1    
   118   58  182 1    
   119   58  183 1    
   120   59   60 am   BACKBONE|DICT|INTERRES
   121   59  184 1    
   122   60   61 2    
   123   60   62 1    
   124   62   63 1    
   125   62   64 1    
   126   62  185 1    
   127   63  186 1    
   128   63  187 1    
   129   63  188 1    
   130   64   65 am   BACKBONE|DICT|INTERRES
   131   64  189 1    
   132   65   66 2    
   133   67   68 2    
   134   67   69 am   BACKBONE|DICT|INTERRES
   135   69   70 1    
   136   69  190 1    
   137   70   71 1    
   138   70   72 1    
   139   70  191 1    
   140   71  192 1    
   141   71  193 1    
   142   71  194 1    
   143   72   73 2    
   144   72   74 am   BACKBONE|DICT|INTERRES
   145   74   75 1    
   146   74  195 1    
   147   75   76 1    
   148   75   77 1    
   149   75  196 1    
   150   76  197 1    
   151   76  198 1    
   152   76  199 1    
   153   77   78 2    
   154   77   79 am   BACKBONE|DICT|INTERRES
   155   79   80 1    
   156   79  200 1    
   157   80   81 1    
   158   80   82 1    
   159   80  201 1    
   160   81  202 1    
   161   81  203 1    
   162   81  204 1    
   163   82   83 2    
   164   82   84 am   BACKBONE|DICT|INTERRES
   165   84   85 1    
   166   84  205 1    
   167   85   86 1    
   168   85   87 1    
   169   85  206 1    
   170   86  207 1    
   171   86  208 1    
   172   86  209 1    
   173   87   88 2    
   174   87   89 am   BACKBONE|DICT|INTERRES
   175   89   90 1    
   176   89  210 1    
   177   90   91 1    
   178   90   92 1    
   179   90  211 1    
   180   91  212 1    
   181   91  213 1    
   182   91  214 1    
   183   92   93 2    
   184   92   94 am   BACKBONE|DICT|INTERRES
   185   94   95 1    
   186   94  215 1    
   187   95   96 1    
   188   95   97 1    
   189   95  216 1    
   190   96  217 1    
   191   96  218 1    
   192   96  219 1    
   193   97   98 2    
   194   97   99 am   BACKBONE|DICT|INTERRES
   195   99  100 1    
   196   99  220 1    
   197  100  101 1    
   198  100  102 1    
   199  100  221 1    
   200  101  222 1    
   201  101  223 1    
   202  101  224 1    
   203  102  103 2    
   204  102  104 am   BACKBONE|DICT|INTERRES
   205  104  105 1    
   206  104  225 1    
   207  105  106 1    
   208  105  107 1    
   209  105  226 1    
   210  106  227 1    
   211  106  228 1    
   212  106  229 1    
   213  107  108 2    
   214  107  109 am   BACKBONE|DICT|INTERRES
   215  109  110 1    
   216  109  230 1    
   217  110  111 1    
   218  110  112 1    
   219  110  231 1    
   220  111  232 1    
   221  111  233 1    
   222  111  234 1    
   223  112  113 2    
   224  112  114 am   BACKBONE|DICT|INTERRES
   225  114  115 1    
   226  114  235 1    
   227  115  116 1    
   228  115  117 1    
   229  115  236 1    
   230  116  237 1    
   231  116  238 1    
   232  116  239 1    
   233  117  118 2    
   234  117  119 am   BACKBONE|DICT|INTERRES
   235  119  120 1    
   236  119  240 1    
   237  120  121 1    
   238  120  124 1    
   239  120  241 1    
   240  121  122 am   BACKBONE|DICT|INTERRES
   241  121  123 2    
   242  122  242 1    
   243  122  243 1    
   244  124  125 1    
   245  124  244 1    
   246  124  245 1    
   247  125  126 1    
   248  126  246 1    
   249  126  247 1    
@<TRIPOS>SUBSTRUCTURE
     1 UNK         1 GROUP             0       ****    0 ROOT    
