@<TRIPOS>MOLECULE
3R540
247   249    1
SMALL
USER_CHARGES


@<TRIPOS>ATOM
      1 CA          6.3083  -13.5862  -47.9772 C.3       0 UNK        -0.1800 
      2 C           6.7135  -14.4275  -46.7753 C.2       0 UNK         0.5000 
      3 O           7.4538  -13.9534  -45.9138 O.2       0 UNK        -0.5000 
      4 N           6.2262  -15.6727  -46.7133 N.am      1 UNK        -0.5000 
      5 CA          6.4626  -16.6240  -45.6184 C.3       1 UNK         0.1400 
      6 C6          6.3497  -18.0969  -46.0943 C.3       23 UNK        -0.0398 
      7 S7          4.7947  -18.5021  -46.9649 S.3       23 UNK        -0.2404 
      8 C8          5.3421  -18.4318  -48.7018 C.3       23 UNK        -0.0205 
      9 C9          4.1852  -18.6713  -49.6588 C.ar      23 UNK        -0.0193 
     10 C10         3.3998  -17.6048  -50.1081 C.ar      23 UNK        -0.1150 
     11 C11         2.3240  -17.8327  -50.9721 C.ar      23 UNK        -0.0193 
     12 C12         2.0520  -19.1339  -51.4047 C.ar      23 UNK        -0.1150 
     13 C13         2.8199  -20.2108  -50.9493 C.ar      23 UNK        -0.0193 
     14 C14         3.8934  -19.9671  -50.0902 C.ar      23 UNK        -0.1150 
     15 C15         2.5032  -21.6451  -51.3594 C.3       23 UNK        -0.0205 
     16 S16         0.7292  -22.0694  -51.3025 S.3       23 UNK        -0.2404 
     17 C17         0.2452  -21.5956  -49.6084 C.3       23 UNK        -0.0398 
     18 CA          0.5722  -22.6961  -48.5643 C.3       11 UNK         0.1400 
     19 N           1.7259  -22.3284  -47.7386 N.am      11 UNK        -0.5000 
     20 C           2.6215  -23.1955  -47.2509 C.2       10 UNK         0.5000 
     21 O           2.6138  -24.3996  -47.5071 O.2       10 UNK        -0.5000 
     22 CA          3.6949  -22.6382  -46.2929 C.3       10 UNK         0.1400 
     23 CB          4.9977  -22.3181  -47.0381 C.3       10 UNK        -0.1800 
     24 N           3.2668  -21.4560  -45.5399 N.am      10 UNK        -0.5000 
     25 C           2.3454  -21.4927  -44.5695 C.2       9 UNK         0.5000 
     26 O           1.7220  -22.5085  -44.2622 O.2       9 UNK        -0.5000 
     27 CA          2.0492  -20.1768  -43.8256 C.3       9 UNK         0.1400 
     28 CB          3.1997  -19.8422  -42.8629 C.3       9 UNK        -0.1800 
     29 N           1.7388  -18.9945  -44.6426 N.am      9 UNK        -0.5000 
     30 C           1.0184  -18.9386  -45.7717 C.2       8 UNK         0.5000 
     31 O           0.6871  -19.9261  -46.4326 O.2       8 UNK        -0.5000 
     32 CA          0.5823  -17.5337  -46.2333 C.3       8 UNK         0.1400 
     33 CB          1.7485  -16.7529  -46.8515 C.3       8 UNK        -0.1800 
     34 N          -0.4769  -17.6432  -47.2308 N.am      8 UNK        -0.5000 
     35 C          -1.7691  -17.8321  -46.9538 C.2       7 UNK         0.5000 
     36 O          -2.2589  -17.7520  -45.8251 O.2       7 UNK        -0.5000 
     37 CA         -2.6618  -18.2093  -48.1386 C.3       7 UNK         0.1400 
     38 CB         -2.9192  -19.7198  -48.1699 C.3       7 UNK        -0.1800 
     39 N          -3.9110  -17.4744  -48.0290 N.am      7 UNK        -0.5000 
     40 C          -4.5939  -16.9753  -49.0640 C.2       6 UNK         0.5000 
     41 O          -4.3350  -17.2232  -50.2412 O.2       6 UNK        -0.5000 
     42 CA         -5.7231  -15.9837  -48.7224 C.3       6 UNK         0.1400 
     43 CB         -7.0275  -16.7349  -48.4151 C.3       6 UNK        -0.1800 
     44 N          -5.3863  -15.1071  -47.5934 N.am      6 UNK        -0.5000 
     45 C          -4.3597  -14.2443  -47.5847 C.2       5 UNK         0.5000 
     46 O          -3.6315  -14.0424  -48.5619 O.2       5 UNK        -0.5000 
     47 CA         -4.0823  -13.5020  -46.2654 C.3       5 UNK         0.1400 
     48 CB         -3.8130  -14.4911  -45.1108 C.3       5 UNK        -0.1800 
     49 N          -2.9179  -12.6504  -46.4813 N.am      5 UNK        -0.5000 
     50 C          -2.4268  -11.7168  -45.6642 C.2       4 UNK         0.5000 
     51 O          -2.9494  -11.3782  -44.5995 O.2       4 UNK        -0.5000 
     52 CA         -1.1230  -11.0404  -46.1317 C.3       4 UNK         0.1400 
     53 CB         -1.3962   -9.6073  -46.6146 C.3       4 UNK        -0.1800 
     54 N          -0.0963  -11.0087  -45.0881 N.am      4 UNK        -0.5000 
     55 C           0.4254  -12.0839  -44.4818 C.2       3 UNK         0.5000 
     56 O           0.0900  -13.2453  -44.7310 O.2       3 UNK        -0.5000 
     57 CA          1.4954  -11.7985  -43.4062 C.3       3 UNK         0.1400 
     58 CB          0.8379  -11.2941  -42.1110 C.3       3 UNK        -0.1800 
     59 N           2.3020  -12.9787  -43.0878 N.am      3 UNK        -0.5000 
     60 C           3.1426  -13.5876  -43.9333 C.2       2 UNK         0.5000 
     61 O           3.4269  -13.1528  -45.0543 O.2       2 UNK        -0.5000 
     62 CA          3.7582  -14.9092  -43.4433 C.3       2 UNK         0.1400 
     63 CB          2.6758  -15.9361  -43.0581 C.3       2 UNK        -0.1800 
     64 N           4.6086  -15.4391  -44.5027 N.am      2 UNK        -0.5000 
     65 C           5.5948  -16.3338  -44.3700 C.2       1 UNK         0.5000 
     66 O           5.8519  -16.9064  -43.3102 O.2       1 UNK        -0.5000 
     67 C          -0.6422  -23.0195  -47.6702 C.2       11 UNK         0.5000 
     68 O          -1.4000  -23.9390  -47.9815 O.2       11 UNK        -0.5000 
     69 N          -0.8001  -22.2917  -46.5557 N.am      12 UNK        -0.5000 
     70 CA         -1.8492  -22.5087  -45.5577 C.3       12 UNK         0.1400 
     71 CB         -1.8178  -21.3780  -44.5211 C.3       12 UNK        -0.1800 
     72 C          -1.7410  -23.8861  -44.8782 C.2       12 UNK         0.5000 
     73 O          -2.7636  -24.5346  -44.6601 O.2       12 UNK        -0.5000 
     74 N          -0.5049  -24.3448  -44.6337 N.am      13 UNK        -0.5000 
     75 CA         -0.1811  -25.6888  -44.1457 C.3       13 UNK         0.1400 
     76 CB          1.3226  -25.7604  -43.8397 C.3       13 UNK        -0.1800 
     77 C          -0.5829  -26.8184  -45.1181 C.2       13 UNK         0.5000 
     78 O          -0.8292  -27.9393  -44.6723 O.2       13 UNK        -0.5000 
     79 N          -0.6669  -26.5011  -46.4172 N.am      14 UNK        -0.5000 
     80 CA         -1.1430  -27.3906  -47.4782 C.3       14 UNK         0.1400 
     81 CB         -0.3286  -27.1124  -48.7539 C.3       14 UNK        -0.1800 
     82 C          -2.6577  -27.2366  -47.7394 C.2       14 UNK         0.5000 
     83 O          -3.1715  -27.8692  -48.6627 O.2       14 UNK        -0.5000 
     84 N          -3.3410  -26.3986  -46.9418 N.am      15 UNK        -0.5000 
     85 CA         -4.7616  -26.0383  -47.0149 C.3       15 UNK         0.1400 
     86 CB         -5.6645  -27.2680  -46.7848 C.3       15 UNK        -0.1800 
     87 C          -5.1370  -25.2494  -48.2872 C.2       15 UNK         0.5000 
     88 O          -6.3072  -25.2281  -48.6741 O.2       15 UNK        -0.5000 
     89 N          -4.1565  -24.5703  -48.9011 N.am      16 UNK        -0.5000 
     90 CA         -4.3203  -23.8149  -50.1465 C.3       16 UNK         0.1400 
     91 CB         -2.9599  -23.6977  -50.8455 C.3       16 UNK        -0.1800 
     92 C          -4.9931  -22.4378  -49.9553 C.2       16 UNK         0.5000 
     93 O          -5.1689  -21.7063  -50.9310 O.2       16 UNK        -0.5000 
     94 N          -5.4054  -22.1171  -48.7195 N.am      17 UNK        -0.5000 
     95 CA         -6.2578  -20.9742  -48.3810 C.3       17 UNK         0.1400 
     96 CB         -6.4098  -20.8867  -46.8543 C.3       17 UNK        -0.1800 
     97 C          -7.6429  -21.0575  -49.0485 C.2       17 UNK         0.5000 
     98 O          -8.1874  -20.0272  -49.4411 O.2       17 UNK        -0.5000 
     99 N          -8.1588  -22.2849  -49.2164 N.am      18 UNK        -0.5000 
    100 CA        -9.4085  -22.5775  -49.9225 C.3       18 UNK         0.1400 
    101 CB        -9.7954  -24.0413  -49.6632 C.3       18 UNK        -0.1800 
    102 C         -9.3247  -22.3005  -51.4370 C.2       18 UNK         0.5000 
    103 O        -10.3365  -21.9581  -52.0493 O.2       18 UNK        -0.5000 
    104 N         -8.1186  -22.4340  -52.0055 N.am      19 UNK        -0.5000 
    105 CA        -7.8062  -22.1075  -53.3976 C.3       19 UNK         0.1400 
    106 CB        -6.6514  -23.0091  -53.8653 C.3       19 UNK        -0.1800 
    107 C         -7.4406  -20.6212  -53.5888 C.2       19 UNK         0.5000 
    108 O         -7.3656  -20.1688  -54.7316 O.2       19 UNK        -0.5000 
    109 N         -7.2076  -19.9024  -52.4786 N.am      20 UNK        -0.5000 
    110 CA        -6.7364  -18.5184  -52.3842 C.3       20 UNK         0.1400 
    111 CB        -7.8178  -17.5329  -52.8704 C.3       20 UNK        -0.1800 
    112 C         -5.3728  -18.3271  -53.0779 C.2       20 UNK         0.5000 
    113 O         -5.2192  -17.4385  -53.9187 O.2       20 UNK        -0.5000 
    114 N         -4.4158  -19.1941  -52.7159 N.am      21 UNK        -0.5000 
    115 CA        -3.0779  -19.3150  -53.3013 C.3       21 UNK         0.1400 
    116 CB        -2.2868  -20.3591  -52.5054 C.3       21 UNK        -0.1800 
    117 C         -2.2555  -18.0165  -53.4163 C.2       21 UNK         0.5000 
    118 O         -1.4923  -17.8856  -54.3748 O.2       21 UNK        -0.5000 
    119 N         -2.4196  -17.0899  -52.4644 N.am      22 UNK        -0.5000 
    120 CA        -1.7543  -15.7746  -52.4725 C.3       22 UNK         0.1400 
    121 C         -2.6574  -14.6286  -53.0167 C.2       22 UNK         0.5000 
    122 N         -3.8578  -14.8950  -53.5188 N.am      22 UNK        -0.7600 
    123 O         -2.2539  -13.4687  -53.0057 O.2       22 UNK        -0.5000 
    124 C124       -1.1309  -15.4075  -51.0993 C.3       23 UNK        -0.0398 
    125 S125       -0.0894  -16.7179  -50.3745 S.3       23 UNK        -0.2404 
    126 C126        1.4122  -16.6920  -51.3946 C.3       23 UNK        -0.0205 
    127 H127        5.6820  -14.1464  -48.6722 H         1 UNK         0.0600 
    128 H128        7.1939  -13.2476  -48.5150 H         1 UNK         0.0600 
    129 H129        5.7504  -12.7093  -47.6484 H         1 UNK         0.0600 
    130 H130        5.6080  -16.0031  -47.4397 H         1 UNK         0.3000 
    131 H131        7.4943  -16.4892  -45.2862 H         1 UNK         0.0600 
    132 H132        7.1890  -18.3242  -46.7528 H         1 UNK         0.0800 
    133 H133        6.4586  -18.7824  -45.2519 H         1 UNK         0.0800 
    134 H134        5.7992  -17.4644  -48.9120 H         1 UNK         0.0800 
    135 H135        6.1202  -19.1793  -48.8644 H         1 UNK         0.0800 
    136 H136        3.6081  -16.6020  -49.7625 H         1 UNK         0.1150 
    137 H137        1.2135  -19.3109  -52.0639 H         1 UNK         0.1150 
    138 H138        4.5010  -20.7926  -49.7522 H         1 UNK         0.1150 
    139 H139        2.8705  -21.8074  -52.3732 H         1 UNK         0.0800 
    140 H140        3.0369  -22.3507  -50.7204 H         1 UNK         0.0800 
    141 H141       -0.8235  -21.3941  -49.6668 H         1 UNK         0.0800 
    142 H142        0.6892  -20.6375  -49.3354 H         1 UNK         0.0800 
    143 H143        0.7989  -23.6238  -49.0946 H         1 UNK         0.0600 
    144 H144        1.7584  -21.3670  -47.4177 H         1 UNK         0.3000 
    145 H145        3.9145  -23.4304  -45.5737 H         1 UNK         0.0600 
    146 H146        5.8045  -22.0969  -46.3391 H         1 UNK         0.0600 
    147 H147        5.3203  -23.1598  -47.6523 H         1 UNK         0.0600 
    148 H148        4.8817  -21.4558  -47.6904 H         1 UNK         0.0600 
    149 H149        3.7073  -20.5755  -45.7685 H         1 UNK         0.3000 
    150 H150        1.1637  -20.3635  -43.2161 H         1 UNK         0.0600 
    151 H151        4.0705  -19.4544  -43.3936 H         1 UNK         0.0600 
    152 H152        3.5203  -20.7242  -42.3062 H         1 UNK         0.0600 
    153 H153        2.8933  -19.1004  -42.1262 H         1 UNK         0.0600 
    154 H154        1.9906  -18.1164  -44.2158 H         1 UNK         0.3000 
    155 H155        0.2082  -16.9821  -45.3683 H         1 UNK         0.0600 
    156 H156        2.1402  -17.2642  -47.7288 H         1 UNK         0.0600 
    157 H157        2.5689  -16.6332  -46.1451 H         1 UNK         0.0600 
    158 H158        1.4365  -15.7541  -47.1575 H         1 UNK         0.0600 
    159 H159       -0.1666  -17.7286  -48.1893 H         1 UNK         0.3000 
    160 H160       -2.1585  -17.9329  -49.0628 H         1 UNK         0.0600 
    161 H161       -3.5311  -20.0399  -47.3288 H         1 UNK         0.0600 
    162 H162       -1.9819  -20.2680  -48.1085 H         1 UNK         0.0600 
    163 H163       -3.4118  -20.0129  -49.0959 H         1 UNK         0.0600 
    164 H164       -4.1544  -17.1927  -47.0889 H         1 UNK         0.3000 
    165 H165       -5.8872  -15.3543  -49.5997 H         1 UNK         0.0600 
    166 H166       -7.8471  -16.0420  -48.2248 H         1 UNK         0.0600 
    167 H167       -7.3255  -17.3616  -49.2559 H         1 UNK         0.0600 
    168 H168       -6.9260  -17.3837  -47.5442 H         1 UNK         0.0600 
    169 H169       -5.9507  -15.2070  -46.7620 H         1 UNK         0.3000 
    170 H170       -4.9459  -12.8770  -46.0312 H         1 UNK         0.0600 
    171 H171       -2.9400  -15.1120  -45.3150 H         1 UNK         0.0600 
    172 H172       -3.6333  -13.9703  -44.1706 H         1 UNK         0.0600 
    173 H173       -4.6599  -15.1568  -44.9432 H         1 UNK         0.0600 
    174 H174       -2.4642  -12.8359  -47.3687 H         1 UNK         0.3000 
    175 H175       -0.7137  -11.6086  -46.9699 H         1 UNK         0.0600 
    176 H176       -1.7705   -8.9757  -45.8079 H         1 UNK         0.0600 
    177 H177       -0.4931   -9.1447  -47.0132 H         1 UNK         0.0600 
    178 H178       -2.1423   -9.5995  -47.4103 H         1 UNK         0.0600 
    179 H179        0.2113  -10.0919  -44.7986 H         1 UNK         0.3000 
    180 H180        2.1643  -11.0235  -43.7865 H         1 UNK         0.0600 
    181 H181        0.1588  -12.0369  -41.6902 H         1 UNK         0.0600 
    182 H182        0.2597  -10.3865  -42.2886 H         1 UNK         0.0600 
    183 H183        1.5861  -11.0558  -41.3547 H         1 UNK         0.0600 
    184 H184        2.1097  -13.4162  -42.1991 H         1 UNK         0.3000 
    185 H185        4.3791  -14.6882  -42.5728 H         1 UNK         0.0600 
    186 H186        3.1178  -16.8973  -42.8043 H         1 UNK         0.0600 
    187 H187        2.1121  -15.6077  -42.1846 H         1 UNK         0.0600 
    188 H188        1.9622  -16.0866  -43.8670 H         1 UNK         0.0600 
    189 H189        4.5004  -14.9562  -45.3863 H         1 UNK         0.3000 
    190 H190       -0.1649  -21.5145  -46.3875 H         1 UNK         0.3000 
    191 H191       -2.8103  -22.4680  -46.0747 H         1 UNK         0.0600 
    192 H192       -1.9377  -20.4044  -44.9960 H         1 UNK         0.0600 
    193 H193       -2.6263  -21.4891  -43.7977 H         1 UNK         0.0600 
    194 H194       -0.8799  -21.3677  -43.9670 H         1 UNK         0.0600 
    195 H195        0.2817  -23.7165  -44.7744 H         1 UNK         0.3000 
    196 H196       -0.7295  -25.8475  -43.2151 H         1 UNK         0.0600 
    197 H197        1.6033  -26.7486  -43.4730 H         1 UNK         0.0600 
    198 H198        1.6029  -25.0389  -43.0721 H         1 UNK         0.0600 
    199 H199        1.9223  -25.5546  -44.7276 H         1 UNK         0.0600 
    200 H200       -0.4817  -25.5467  -46.6960 H         1 UNK         0.3000 
    201 H201       -0.9694  -28.4294  -47.1906 H         1 UNK         0.0600 
    202 H202       -0.5803  -27.8235  -49.5415 H         1 UNK         0.0600 
    203 H203        0.7416  -27.2031  -48.5668 H         1 UNK         0.0600 
    204 H204       -0.5152  -26.1131  -49.1469 H         1 UNK         0.0600 
    205 H205       -2.8269  -25.9206  -46.2109 H         1 UNK         0.3000 
    206 H206       -4.9350  -25.3529  -46.1845 H         1 UNK         0.0600 
    207 H207       -5.3779  -27.8037  -45.8798 H         1 UNK         0.0600 
    208 H208       -6.7072  -26.9709  -46.6670 H         1 UNK         0.0600 
    209 H209       -5.6194  -27.9683  -47.6191 H         1 UNK         0.0600 
    210 H210       -3.2194  -24.5870  -48.5085 H         1 UNK         0.3000 
    211 H211       -4.9723  -24.3938  -50.8039 H         1 UNK         0.0600 
    212 H212       -2.3366  -22.9335  -50.3859 H         1 UNK         0.0600 
    213 H213       -3.0903  -23.4379  -51.8951 H         1 UNK         0.0600 
    214 H214       -2.4114  -24.6396  -50.8179 H         1 UNK         0.0600 
    215 H215       -5.2113  -22.7736  -47.9792 H         1 UNK         0.3000 
    216 H216       -5.7730  -20.0637  -48.7380 H         1 UNK         0.0600 
    217 H217       -6.9918  -20.0083  -46.5724 H         1 UNK         0.0600 
    218 H218       -5.4452  -20.8083  -46.3548 H         1 UNK         0.0600 
    219 H219       -6.9208  -21.7616  -46.4504 H         1 UNK         0.0600 
    220 H220       -7.6396  -23.0816  -48.8720 H         1 UNK         0.3000 
    221 H221      -10.1910  -21.9364  -49.5109 H         1 UNK         0.0600 
    222 H222       -9.0327  -24.7300  -50.0293 H         1 UNK         0.0600 
    223 H223       -9.9330  -24.2300  -48.5984 H         1 UNK         0.0600 
    224 H224      -10.7328  -24.2926  -50.1612 H         1 UNK         0.0600 
    225 H225       -7.3371  -22.6985  -51.4241 H         1 UNK         0.3000 
    226 H226       -8.6760  -22.3173  -54.0237 H         1 UNK         0.0600 
    227 H227       -6.4266  -22.8396  -54.9190 H         1 UNK         0.0600 
    228 H228       -5.7362  -22.8210  -53.3032 H         1 UNK         0.0600 
    229 H229       -6.9035  -24.0638  -53.7540 H         1 UNK         0.0600 
    230 H230       -7.3004  -20.3815  -51.5939 H         1 UNK         0.3000 
    231 H231       -6.5711  -18.3269  -51.3242 H         1 UNK         0.0600 
    232 H232       -8.0221  -17.6450  -53.9355 H         1 UNK         0.0600 
    233 H233       -7.5057  -16.5013  -52.7034 H         1 UNK         0.0600 
    234 H234       -8.7535  -17.6802  -52.3311 H         1 UNK         0.0600 
    235 H235       -4.6563  -19.8982  -52.0275 H         1 UNK         0.3000 
    236 H236       -3.2149  -19.6952  -54.3153 H         1 UNK         0.0600 
    237 H237       -2.7781  -21.3279  -52.5501 H         1 UNK         0.0600 
    238 H238       -1.2833  -20.4857  -52.9133 H         1 UNK         0.0600 
    239 H239       -2.1856  -20.0759  -51.4570 H         1 UNK         0.0600 
    240 H240       -3.0915  -17.2506  -51.7181 H         1 UNK         0.3000 
    241 H241       -0.9214  -15.8077  -53.1757 H         1 UNK         0.0600 
    242 H242       -4.2066  -15.8477  -53.5814 H         1 UNK         0.3800 
    243 H243       -4.4204  -14.1390  -53.8743 H         1 UNK         0.3800 
    244 H244       -0.5323  -14.4985  -51.1770 H         1 UNK         0.0800 
    245 H245       -1.9231  -15.1892  -50.3814 H         1 UNK         0.0800 
    246 H246        1.9151  -15.7296  -51.2886 H         1 UNK         0.0800 
    247 H247        1.1497  -16.8020  -52.4476 H         1 UNK         0.0800 
@<TRIPOS>BOND
     1    1    2 1    
     2    1  127 1    
     3    1  128 1    
     4    1  129 1    
     5    2    3 2    
     6    2    4 am   BACKBONE|DICT|INTERRES
     7    4    5 1    
     8    4  130 1    
     9    5    6 1    
    10    5   65 1    
    11    5  131 1    
    12    6    7 1    
    13    6  132 1    
    14    6  133 1    
    15    7    8 1    
    16    8    9 1    
    17    8  134 1    
    18    8  135 1    
    19    9   10 ar   
    20    9   14 ar   
    21   10   11 ar   
    22   10  136 1    
    23   11   12 ar   
    24   11  126 1    
    25   12   13 ar   
    26   12  137 1    
    27   13   14 ar   
    28   13   15 1    
    29   14  138 1    
    30   15   16 1    
    31   15  139 1    
    32   15  140 1    
    33   16   17 1    
    34   17   18 1    
    35   17  141 1    
    36   17  142 1    
    37   18   19 1    
    38   18   67 1    
    39   18  143 1    
    40   19   20 am   BACKBONE|DICT|INTERRES
    41   19  144 1    
    42   20   21 2    
    43   20   22 1    
    44   22   23 1    
    45   22   24 1    
    46   22  145 1    
    47   23  146 1    
    48   23  147 1    
    49   23  148 1    
    50   24   25 am   BACKBONE|DICT|INTERRES
    51   24  149 1    
    52   25   26 2    
    53   25   27 1    
    54   27   28 1    
    55   27   29 1    
    56   27  150 1    
    57   28  151 1    
    58   28  152 1    
    59   28  153 1    
    60   29   30 am   BACKBONE|DICT|INTERRES
    61   29  154 1    
    62   30   31 2    
    63   30   32 1    
    64   32   33 1    
    65   32   34 1    
    66   32  155 1    
    67   33  156 1    
    68   33  157 1    
    69   33  158 1    
    70   34   35 am   BACKBONE|DICT|INTERRES
    71   34  159 1    
    72   35   36 2    
    73   35   37 1    
    74   37   38 1    
    75   37   39 1    
    76   37  160 1    
    77   38  161 1    
    78   38  162 1    
    79   38  163 1    
    80   39   40 am   BACKBONE|DICT|INTERRES
    81   39  164 1    
    82   40   41 2    
    83   40   42 1    
    84   42   43 1    
    85   42   44 1    
    86   42  165 1    
    87   43  166 1    
    88   43  167 1    
    89   43  168 1    
    90   44   45 am   BACKBONE|DICT|INTERRES
    91   44  169 1    
    92   45   46 2    
    93   45   47 1    
    94   47   48 1    
    95   47   49 1    
    96   47  170 1    
    97   48  171 1    
    98   48  172 1    
    99   48  173 1    
   100   49   50 am   BACKBONE|DICT|INTERRES
   101   49  174 1    
   102   50   51 2    
   103   50   52 1    
   104   52   53 1    
   105   52   54 1    
   106   52  175 1    
   107   53  176 1    
   108   53  177 1    
   109   53  178 1    
   110   54   55 am   BACKBONE|DICT|INTERRES
   111   54  179 1    
   112   55   56 2    
   113   55   57 1    
   114   57   58 1    
   115   57   59 1    
   116   57  180 1    
   117   58  181 1    
   118   58  182 1    
   119   58  183 1    
   120   59   60 am   BACKBONE|DICT|INTERRES
   121   59  184 1    
   122   60   61 2    
   123   60   62 1    
   124   62   63 1    
   125   62   64 1    
   126   62  185 1    
   127   63  186 1    
   128   63  187 1    
   129   63  188 1    
   130   64   65 am   BACKBONE|DICT|INTERRES
   131   64  189 1    
   132   65   66 2    
   133   67   68 2    
   134   67   69 am   BACKBONE|DICT|INTERRES
   135   69   70 1    
   136   69  190 1    
   137   70   71 1    
   138   70   72 1    
   139   70  191 1    
   140   71  192 1    
   141   71  193 1    
   142   71  194 1    
   143   72   73 2    
   144   72   74 am   BACKBONE|DICT|INTERRES
   145   74   75 1    
   146   74  195 1    
   147   75   76 1    
   148   75   77 1    
   149   75  196 1    
   150   76  197 1    
   151   76  198 1    
   152   76  199 1    
   153   77   78 2    
   154   77   79 am   BACKBONE|DICT|INTERRES
   155   79   80 1    
   156   79  200 1    
   157   80   81 1    
   158   80   82 1    
   159   80  201 1    
   160   81  202 1    
   161   81  203 1    
   162   81  204 1    
   163   82   83 2    
   164   82   84 am   BACKBONE|DICT|INTERRES
   165   84   85 1    
   166   84  205 1    
   167   85   86 1    
   168   85   87 1    
   169   85  206 1    
   170   86  207 1    
   171   86  208 1    
   172   86  209 1    
   173   87   88 2    
   174   87   89 am   BACKBONE|DICT|INTERRES
   175   89   90 1    
   176   89  210 1    
   177   90   91 1    
   178   90   92 1    
   179   90  211 1    
   180   91  212 1    
   181   91  213 1    
   182   91  214 1    
   183   92   93 2    
   184   92   94 am   BACKBONE|DICT|INTERRES
   185   94   95 1    
   186   94  215 1    
   187   95   96 1    
   188   95   97 1    
   189   95  216 1    
   190   96  217 1    
   191   96  218 1    
   192   96  219 1    
   193   97   98 2    
   194   97   99 am   BACKBONE|DICT|INTERRES
   195   99  100 1    
   196   99  220 1    
   197  100  101 1    
   198  100  102 1    
   199  100  221 1    
   200  101  222 1    
   201  101  223 1    
   202  101  224 1    
   203  102  103 2    
   204  102  104 am   BACKBONE|DICT|INTERRES
   205  104  105 1    
   206  104  225 1    
   207  105  106 1    
   208  105  107 1    
   209  105  226 1    
   210  106  227 1    
   211  106  228 1    
   212  106  229 1    
   213  107  108 2    
   214  107  109 am   BACKBONE|DICT|INTERRES
   215  109  110 1    
   216  109  230 1    
   217  110  111 1    
   218  110  112 1    
   219  110  231 1    
   220  111  232 1    
   221  111  233 1    
   222  111  234 1    
   223  112  113 2    
   224  112  114 am   BACKBONE|DICT|INTERRES
   225  114  115 1    
   226  114  235 1    
   227  115  116 1    
   228  115  117 1    
   229  115  236 1    
   230  116  237 1    
   231  116  238 1    
   232  116  239 1    
   233  117  118 2    
   234  117  119 am   BACKBONE|DICT|INTERRES
   235  119  120 1    
   236  119  240 1    
   237  120  121 1    
   238  120  124 1    
   239  120  241 1    
   240  121  122 am   BACKBONE|DICT|INTERRES
   241  121  123 2    
   242  122  242 1    
   243  122  243 1    
   244  124  125 1    
   245  124  244 1    
   246  124  245 1    
   247  125  126 1    
   248  126  246 1    
   249  126  247 1    
@<TRIPOS>SUBSTRUCTURE
     1 UNK         1 GROUP             0       ****    0 ROOT    
