@<TRIPOS>MOLECULE
3R540
247   249    1
SMALL
USER_CHARGES


@<TRIPOS>ATOM
      1 CA          5.0647  -15.3395  -46.8114 C.3       0 UNK        -0.1800 
      2 C           4.0836  -14.3153  -47.3634 C.2       0 UNK         0.5000 
      3 O           4.4093  -13.6046  -48.3135 O.2       0 UNK        -0.5000 
      4 N           2.8887  -14.2393  -46.7632 N.am      1 UNK        -0.5000 
      5 CA          1.7677  -13.3612  -47.1395 C.3       1 UNK         0.1400 
      6 C6          1.2036  -13.6319  -48.5609 C.3       23 UNK        -0.0398 
      7 S7          0.5583  -15.3309  -48.7156 S.3       23 UNK        -0.2404 
      8 C8          1.6621  -16.0378  -49.9759 C.3       23 UNK        -0.0205 
      9 C9          1.2919  -17.4851  -50.2597 C.ar      23 UNK        -0.0193 
     10 C10         0.1107  -17.7792  -50.9465 C.ar      23 UNK        -0.1150 
     11 C11        -0.2692  -19.1038  -51.1753 C.ar      23 UNK        -0.0193 
     12 C12         0.5541  -20.1396  -50.7257 C.ar      23 UNK        -0.1150 
     13 C13         1.7539  -19.8623  -50.0630 C.ar      23 UNK        -0.0193 
     14 C14         2.1175  -18.5300  -49.8333 C.ar      23 UNK        -0.1150 
     15 C15         2.6592  -21.0140  -49.6369 C.3       23 UNK        -0.0205 
     16 S16         3.2832  -20.8975  -47.9260 S.3       23 UNK        -0.2404 
     17 C17         1.7624  -20.7025  -46.9404 C.3       23 UNK        -0.0398 
     18 CA          1.0350  -22.0409  -46.6457 C.3       11 UNK         0.1400 
     19 N           0.5254  -22.0934  -45.2728 N.am      11 UNK        -0.5000 
     20 C          -0.0599  -23.1522  -44.6963 C.2       10 UNK         0.5000 
     21 O          -0.1800  -24.2496  -45.2379 O.2       10 UNK        -0.5000 
     22 CA         -0.6628  -22.9287  -43.2987 C.3       10 UNK         0.1400 
     23 CB          0.3969  -23.1135  -42.2020 C.3       10 UNK        -0.1800 
     24 N          -1.2774  -21.6060  -43.1791 N.am      10 UNK        -0.5000 
     25 C          -2.4051  -21.2407  -43.8054 C.2       9 UNK         0.5000 
     26 O          -3.0758  -22.0025  -44.5025 O.2       9 UNK        -0.5000 
     27 CA         -2.8240  -19.7648  -43.6658 C.3       9 UNK         0.1400 
     28 CB         -3.5477  -19.5276  -42.3323 C.3       9 UNK        -0.1800 
     29 N          -1.6887  -18.8462  -43.7708 N.am      9 UNK        -0.5000 
     30 C          -0.9600  -18.6687  -44.8829 C.2       8 UNK         0.5000 
     31 O          -1.1972  -19.2328  -45.9495 O.2       8 UNK        -0.5000 
     32 CA          0.2752  -17.7536  -44.7747 C.3       8 UNK         0.1400 
     33 CB         -0.1133  -16.3025  -45.0860 C.3       8 UNK        -0.1800 
     34 N           0.9422  -17.8119  -43.4696 N.am      8 UNK        -0.5000 
     35 C           1.4173  -18.9301  -42.8966 C.2       7 UNK         0.5000 
     36 O           1.3840  -20.0295  -43.4481 O.2       7 UNK        -0.5000 
     37 CA          2.0012  -18.8384  -41.4710 C.3       7 UNK         0.1400 
     38 CB          3.5244  -19.0345  -41.5068 C.3       7 UNK        -0.1800 
     39 N           1.7065  -17.5867  -40.7739 N.am      7 UNK        -0.5000 
     40 C           0.4933  -17.1431  -40.4137 C.2       6 UNK         0.5000 
     41 O          -0.5430  -17.7921  -40.5628 O.2       6 UNK        -0.5000 
     42 CA          0.4280  -15.7069  -39.8471 C.3       6 UNK         0.1400 
     43 CB          0.3700  -15.7354  -38.3127 C.3       6 UNK        -0.1800 
     44 N           1.5465  -14.8507  -40.2679 N.am      6 UNK        -0.5000 
     45 C           1.8519  -14.5480  -41.5369 C.2       5 UNK         0.5000 
     46 O           1.1845  -14.9245  -42.5012 O.2       5 UNK        -0.5000 
     47 CA          3.1343  -13.7267  -41.7531 C.3       5 UNK         0.1400 
     48 CB          3.6237  -13.7834  -43.2111 C.3       5 UNK        -0.1800 
     49 N           2.9458  -12.3330  -41.3518 N.am      5 UNK        -0.5000 
     50 C           3.0782  -11.8810  -40.0960 C.2       4 UNK         0.5000 
     51 O           3.3064  -12.6244  -39.1397 O.2       4 UNK        -0.5000 
     52 CA          2.9697  -10.3615  -39.8501 C.3       4 UNK         0.1400 
     53 CB          4.3236   -9.7998  -39.3855 C.3       4 UNK        -0.1800 
     54 N           2.5478   -9.6150  -41.0363 N.am      4 UNK        -0.5000 
     55 C           1.2860   -9.2617  -41.3124 C.2       3 UNK         0.5000 
     56 O           0.3295   -9.5033  -40.5751 O.2       3 UNK        -0.5000 
     57 CA          1.0475   -8.5262  -42.6493 C.3       3 UNK         0.1400 
     58 CB          1.0715   -7.0050  -42.4344 C.3       3 UNK        -0.1800 
     59 N           1.9950   -8.8736  -43.7177 N.am      3 UNK        -0.5000 
     60 C           2.1683  -10.1071  -44.2090 C.2       2 UNK         0.5000 
     61 O           1.5919  -11.0990  -43.7563 O.2       2 UNK        -0.5000 
     62 CA          3.1884  -10.2667  -45.3543 C.3       2 UNK         0.1400 
     63 CB          4.6246  -10.1754  -44.8139 C.3       2 UNK        -0.1800 
     64 N           3.0168  -11.5628  -46.0099 N.am      2 UNK        -0.5000 
     65 C           2.0290  -11.8603  -46.8647 C.2       1 UNK         0.5000 
     66 O           1.3028  -11.0056  -47.3758 O.2       1 UNK        -0.5000 
     67 C          -0.0845  -22.3140  -47.6724 C.2       11 UNK         0.5000 
     68 O           0.0781  -23.1718  -48.5398 O.2       11 UNK        -0.5000 
     69 N          -1.2207  -21.6186  -47.5178 N.am      12 UNK        -0.5000 
     70 CA         -2.4262  -21.7932  -48.3264 C.3       12 UNK         0.1400 
     71 CB         -3.4675  -20.7358  -47.9330 C.3       12 UNK        -0.1800 
     72 C          -3.0210  -23.2066  -48.2081 C.2       12 UNK         0.5000 
     73 O          -3.4047  -23.7848  -49.2245 O.2       12 UNK        -0.5000 
     74 N          -3.0556  -23.7520  -46.9835 N.am      13 UNK        -0.5000 
     75 CA         -3.4988  -25.1180  -46.7019 C.3       13 UNK         0.1400 
     76 CB         -3.6057  -25.3316  -45.1848 C.3       13 UNK        -0.1800 
     77 C          -2.5901  -26.1791  -47.3495 C.2       13 UNK         0.5000 
     78 O          -3.0997  -27.1029  -47.9841 O.2       13 UNK        -0.5000 
     79 N          -1.2662  -26.0033  -47.2275 N.am      14 UNK        -0.5000 
     80 CA         -0.2457  -26.8544  -47.8470 C.3       14 UNK         0.1400 
     81 CB          1.1431  -26.4476  -47.3317 C.3       14 UNK        -0.1800 
     82 C          -0.2855  -26.8209  -49.3869 C.2       14 UNK         0.5000 
     83 O          -0.0689  -27.8513  -50.0252 O.2       14 UNK        -0.5000 
     84 N          -0.6052  -25.6492  -49.9511 N.am      15 UNK        -0.5000 
     85 CA         -0.8249  -25.4300  -51.3808 C.3       15 UNK         0.1400 
     86 CB         -0.6700  -23.9282  -51.6772 C.3       15 UNK        -0.1800 
     87 C          -2.1915  -25.9394  -51.8865 C.2       15 UNK         0.5000 
     88 O          -2.4521  -25.8334  -53.0853 O.2       15 UNK        -0.5000 
     89 N          -3.0577  -26.4345  -50.9865 N.am      16 UNK        -0.5000 
     90 CA         -4.4365  -26.8792  -51.2324 C.3       16 UNK         0.1400 
     91 CB         -4.4503  -28.1741  -52.0702 C.3       16 UNK        -0.1800 
     92 C          -5.3096  -25.7576  -51.8347 C.2       16 UNK         0.5000 
     93 O          -6.0593  -25.9843  -52.7868 O.2       16 UNK        -0.5000 
     94 N          -5.1272  -24.5414  -51.3000 N.am      17 UNK        -0.5000 
     95 CA         -5.6871  -23.2621  -51.7420 C.3       17 UNK         0.1400 
     96 CB         -7.2237  -23.2506  -51.6117 C.3       17 UNK        -0.1800 
     97 C          -5.2215  -22.8217  -53.1453 C.2       17 UNK         0.5000 
     98 O          -5.7986  -21.8821  -53.6929 O.2       17 UNK        -0.5000 
     99 N          -4.1983  -23.4852  -53.7077 N.am      18 UNK        -0.5000 
    100 CA        -3.6311  -23.2753  -55.0442 C.3       18 UNK         0.1400 
    101 CB        -2.8603  -21.9398  -55.0960 C.3       18 UNK        -0.1800 
    102 C         -4.6871  -23.4108  -56.1624 C.2       18 UNK         0.5000 
    103 O         -4.7055  -22.6078  -57.0946 O.2       18 UNK        -0.5000 
    104 N         -5.5881  -24.3958  -56.0145 N.am      19 UNK        -0.5000 
    105 CA        -6.7787  -24.6215  -56.8470 C.3       19 UNK         0.1400 
    106 CB        -6.3855  -25.0469  -58.2774 C.3       19 UNK        -0.1800 
    107 C         -7.7513  -23.4200  -56.8109 C.2       19 UNK         0.5000 
    108 O         -8.2927  -23.0193  -57.8420 O.2       19 UNK        -0.5000 
    109 N         -7.9196  -22.8635  -55.6030 N.am      20 UNK        -0.5000 
    110 CA        -8.7123  -21.6907  -55.2176 C.3       20 UNK         0.1400 
    111 CB       -10.1778  -21.8022  -55.6853 C.3       20 UNK        -0.1800 
    112 C         -8.0817  -20.3321  -55.5887 C.2       20 UNK         0.5000 
    113 O         -8.6490  -19.2994  -55.2266 O.2       20 UNK        -0.5000 
    114 N         -6.9092  -20.3228  -56.2425 N.am      21 UNK        -0.5000 
    115 CA        -6.1765  -19.1027  -56.6012 C.3       21 UNK         0.1400 
    116 CB        -5.0576  -19.4410  -57.5968 C.3       21 UNK        -0.1800 
    117 C         -5.6059  -18.3442  -55.3852 C.2       21 UNK         0.5000 
    118 O         -5.3659  -17.1405  -55.4879 O.2       21 UNK        -0.5000 
    119 N         -5.4194  -19.0441  -54.2580 N.am      22 UNK        -0.5000 
    120 CA        -5.0373  -18.4645  -52.9607 C.3       22 UNK         0.1400 
    121 C         -6.2060  -17.7393  -52.2229 C.2       22 UNK         0.5000 
    122 N         -7.4479  -17.8158  -52.6911 N.am      22 UNK        -0.7600 
    123 O         -5.9846  -17.0809  -51.2111 O.2       22 UNK        -0.5000 
    124 C124       -4.3552  -19.5323  -52.0629 C.3       23 UNK        -0.0398 
    125 S125       -3.0280  -18.8758  -51.0014 S.3       23 UNK        -0.2404 
    126 C126       -1.5552  -19.4138  -51.9265 C.3       23 UNK        -0.0205 
    127 H127        4.6436  -15.8956  -45.9733 H         1 UNK         0.0600 
    128 H128        5.9724  -14.8431  -46.4683 H         1 UNK         0.0600 
    129 H129        5.3374  -16.0532  -47.5889 H         1 UNK         0.0600 
    130 H130        2.6954  -14.8621  -45.9926 H         1 UNK         0.3000 
    131 H131        0.9707  -13.6111  -46.4377 H         1 UNK         0.0600 
    132 H132        0.3709  -12.9622  -48.7813 H         1 UNK         0.0800 
    133 H133        1.9556  -13.4372  -49.3263 H         1 UNK         0.0800 
    134 H134        1.5885  -15.4557  -50.8956 H         1 UNK         0.0800 
    135 H135        2.6963  -15.9617  -49.6369 H         1 UNK         0.0800 
    136 H136       -0.5271  -16.9741  -51.2842 H         1 UNK         0.1150 
    137 H137        0.2669  -21.1659  -50.9043 H         1 UNK         0.1150 
    138 H138        3.0406  -18.3082  -49.3166 H         1 UNK         0.1150 
    139 H139        2.1496  -21.9709  -49.7556 H         1 UNK         0.0800 
    140 H140        3.5143  -21.0446  -50.3131 H         1 UNK         0.0800 
    141 H141        1.1055  -19.9577  -47.3934 H         1 UNK         0.0800 
    142 H142        2.0936  -20.2494  -46.0060 H         1 UNK         0.0800 
    143 H143        1.7548  -22.8581  -46.7270 H         1 UNK         0.0600 
    144 H144        0.6366  -21.2527  -44.7136 H         1 UNK         0.3000 
    145 H145       -1.4398  -23.6804  -43.1454 H         1 UNK         0.0600 
    146 H146       -0.0375  -22.9919  -41.2096 H         1 UNK         0.0600 
    147 H147        0.8292  -24.1139  -42.2467 H         1 UNK         0.0600 
    148 H148        1.2155  -22.4006  -42.2997 H         1 UNK         0.0600 
    149 H149       -0.7540  -20.9065  -42.6736 H         1 UNK         0.3000 
    150 H150       -3.5191  -19.5388  -44.4773 H         1 UNK         0.0600 
    151 H151       -3.9232  -18.5064  -42.2647 H         1 UNK         0.0600 
    152 H152       -4.4034  -20.1960  -42.2277 H         1 UNK         0.0600 
    153 H153       -2.8893  -19.6987  -41.4794 H         1 UNK         0.0600 
    154 H154       -1.4143  -18.3584  -42.9285 H         1 UNK         0.3000 
    155 H155        0.9942  -18.0796  -45.5281 H         1 UNK         0.0600 
    156 H156       -0.7883  -15.8958  -44.3320 H         1 UNK         0.0600 
    157 H157       -0.6159  -16.2291  -46.0511 H         1 UNK         0.0600 
    158 H158        0.7666  -15.6623  -45.1270 H         1 UNK         0.0600 
    159 H159        1.0137  -16.9333  -42.9677 H         1 UNK         0.3000 
    160 H160        1.5630  -19.6540  -40.8924 H         1 UNK         0.0600 
    161 H161        4.0195  -18.2362  -42.0613 H         1 UNK         0.0600 
    162 H162        3.7870  -19.9787  -41.9862 H         1 UNK         0.0600 
    163 H163        3.9439  -19.0567  -40.5008 H         1 UNK         0.0600 
    164 H164        2.4926  -16.9778  -40.6033 H         1 UNK         0.3000 
    165 H165       -0.4934  -15.2538  -40.2183 H         1 UNK         0.0600 
    166 H166        0.2378  -14.7333  -37.9042 H         1 UNK         0.0600 
    167 H167       -0.4679  -16.3406  -37.9639 H         1 UNK         0.0600 
    168 H168        1.2805  -16.1559  -37.8839 H         1 UNK         0.0600 
    169 H169        2.1270  -14.4603  -39.5349 H         1 UNK         0.3000 
    170 H170        3.9183  -14.1741  -41.1381 H         1 UNK         0.0600 
    171 H171        3.8301  -14.8116  -43.5107 H         1 UNK         0.0600 
    172 H172        2.8779  -13.3884  -43.8988 H         1 UNK         0.0600 
    173 H173        4.5456  -13.2176  -43.3423 H         1 UNK         0.0600 
    174 H174        2.6326  -11.6981  -42.0770 H         1 UNK         0.3000 
    175 H175        2.2500  -10.2151  -39.0421 H         1 UNK         0.0600 
    176 H176        5.0969   -9.9334  -40.1431 H         1 UNK         0.0600 
    177 H177        4.2524   -8.7350  -39.1624 H         1 UNK         0.0600 
    178 H178        4.6649  -10.2972  -38.4766 H         1 UNK         0.0600 
    179 H179        3.2695   -9.3705  -41.6984 H         1 UNK         0.3000 
    180 H180        0.0497   -8.8044  -42.9950 H         1 UNK         0.0600 
    181 H181        2.0571   -6.6588  -42.1209 H         1 UNK         0.0600 
    182 H182        0.3587   -6.7073  -41.6641 H         1 UNK         0.0600 
    183 H183        0.8017   -6.4725  -43.3466 H         1 UNK         0.0600 
    184 H184        2.5134   -8.1071  -44.1227 H         1 UNK         0.3000 
    185 H185        3.0298   -9.4689  -46.0829 H         1 UNK         0.0600 
    186 H186        4.8195   -9.1948  -44.3782 H         1 UNK         0.0600 
    187 H187        4.8159  -10.9200  -44.0407 H         1 UNK         0.0600 
    188 H188        5.3547  -10.3242  -45.6097 H         1 UNK         0.0600 
    189 H189        3.5489  -12.3303  -45.6301 H         1 UNK         0.3000 
    190 H190       -1.2575  -20.8893  -46.8094 H         1 UNK         0.3000 
    191 H191       -2.1507  -21.6300  -49.3703 H         1 UNK         0.0600 
    192 H192       -3.0682  -19.7283  -48.0507 H         1 UNK         0.0600 
    193 H193       -4.3553  -20.8095  -48.5622 H         1 UNK         0.0600 
    194 H194       -3.7862  -20.8467  -46.8964 H         1 UNK         0.0600 
    195 H195       -2.7665  -23.1914  -46.1893 H         1 UNK         0.3000 
    196 H196       -4.4976  -25.2343  -47.1277 H         1 UNK         0.0600 
    197 H197       -3.9793  -26.3307  -44.9578 H         1 UNK         0.0600 
    198 H198       -4.2938  -24.6164  -44.7337 H         1 UNK         0.0600 
    199 H199       -2.6405  -25.2233  -44.6911 H         1 UNK         0.0600 
    200 H200       -0.9246  -25.2352  -46.6542 H         1 UNK         0.3000 
    201 H201       -0.4370  -27.8829  -47.5344 H         1 UNK         0.0600 
    202 H202        1.2062  -26.5495  -46.2482 H         1 UNK         0.0600 
    203 H203        1.3788  -25.4132  -47.5837 H         1 UNK         0.0600 
    204 H204        1.9214  -27.0776  -47.7639 H         1 UNK         0.0600 
    205 H205       -0.6921  -24.8336  -49.3520 H         1 UNK         0.3000 
    206 H206       -0.0545  -25.9670  -51.9374 H         1 UNK         0.0600 
    207 H207        0.3150  -23.5704  -51.3773 H         1 UNK         0.0600 
    208 H208       -0.7782  -23.7204  -52.7425 H         1 UNK         0.0600 
    209 H209       -1.4174  -23.3349  -51.1497 H         1 UNK         0.0600 
    210 H210       -2.7667  -26.4634  -50.0166 H         1 UNK         0.3000 
    211 H211       -4.8653  -27.1105  -50.2564 H         1 UNK         0.0600 
    212 H212       -4.0766  -28.0087  -53.0811 H         1 UNK         0.0600 
    213 H213       -5.4621  -28.5718  -52.1569 H         1 UNK         0.0600 
    214 H214       -3.8365  -28.9473  -51.6081 H         1 UNK         0.0600 
    215 H215       -4.4585  -24.4559  -50.5345 H         1 UNK         0.3000 
    216 H216       -5.2937  -22.5161  -51.0506 H         1 UNK         0.0600 
    217 H217       -7.6232  -22.2494  -51.7778 H         1 UNK         0.0600 
    218 H218       -7.5362  -23.5596  -50.6143 H         1 UNK         0.0600 
    219 H219       -7.6995  -23.9148  -52.3335 H         1 UNK         0.0600 
    220 H220       -3.7970  -24.2661  -53.2007 H         1 UNK         0.3000 
    221 H221       -2.9113  -24.0787  -55.2059 H         1 UNK         0.0600 
    222 H222       -3.5254  -21.0830  -54.9951 H         1 UNK         0.0600 
    223 H223       -2.1168  -21.8831  -54.3012 H         1 UNK         0.0600 
    224 H224       -2.3309  -21.8309  -56.0431 H         1 UNK         0.0600 
    225 H225       -5.5015  -24.9941  -55.2028 H         1 UNK         0.3000 
    226 H226       -7.3139  -25.4571  -56.3937 H         1 UNK         0.0600 
    227 H227       -5.7053  -25.8984  -58.2622 H         1 UNK         0.0600 
    228 H228       -7.2645  -25.3449  -58.8500 H         1 UNK         0.0600 
    229 H229       -5.8997  -24.2390  -58.8252 H         1 UNK         0.0600 
    230 H230       -7.3553  -23.2368  -54.8526 H         1 UNK         0.3000 
    231 H231       -8.7259  -21.7092  -54.1270 H         1 UNK         0.0600 
    232 H232      -10.2714  -21.6924  -56.7657 H         1 UNK         0.0600 
    233 H233      -10.7910  -21.0241  -55.2294 H         1 UNK         0.0600 
    234 H234      -10.6115  -22.7617  -55.4036 H         1 UNK         0.0600 
    235 H235       -6.4713  -21.2036  -56.4796 H         1 UNK         0.3000 
    236 H236       -6.8780  -18.4329  -57.1029 H         1 UNK         0.0600 
    237 H237       -5.4383  -20.0065  -58.4475 H         1 UNK         0.0600 
    238 H238       -4.5993  -18.5321  -57.9880 H         1 UNK         0.0600 
    239 H239       -4.2660  -20.0260  -57.1292 H         1 UNK         0.0600 
    240 H240       -5.6512  -20.0338  -54.2506 H         1 UNK         0.3000 
    241 H241       -4.2970  -17.6910  -53.1741 H         1 UNK         0.0600 
    242 H242       -8.1866  -17.3340  -52.2035 H         1 UNK         0.3800 
    243 H243       -7.6622  -18.3299  -53.5358 H         1 UNK         0.3800 
    244 H244       -5.0863  -20.0471  -51.4376 H         1 UNK         0.0800 
    245 H245       -3.9070  -20.3075  -52.6821 H         1 UNK         0.0800 
    246 H246       -1.6263  -20.4845  -52.1247 H         1 UNK         0.0800 
    247 H247       -1.5360  -18.9169  -52.8975 H         1 UNK         0.0800 
@<TRIPOS>BOND
     1    1    2 1    
     2    1  127 1    
     3    1  128 1    
     4    1  129 1    
     5    2    3 2    
     6    2    4 am   BACKBONE|DICT|INTERRES
     7    4    5 1    
     8    4  130 1    
     9    5    6 1    
    10    5   65 1    
    11    5  131 1    
    12    6    7 1    
    13    6  132 1    
    14    6  133 1    
    15    7    8 1    
    16    8    9 1    
    17    8  134 1    
    18    8  135 1    
    19    9   10 ar   
    20    9   14 ar   
    21   10   11 ar   
    22   10  136 1    
    23   11   12 ar   
    24   11  126 1    
    25   12   13 ar   
    26   12  137 1    
    27   13   14 ar   
    28   13   15 1    
    29   14  138 1    
    30   15   16 1    
    31   15  139 1    
    32   15  140 1    
    33   16   17 1    
    34   17   18 1    
    35   17  141 1    
    36   17  142 1    
    37   18   19 1    
    38   18   67 1    
    39   18  143 1    
    40   19   20 am   BACKBONE|DICT|INTERRES
    41   19  144 1    
    42   20   21 2    
    43   20   22 1    
    44   22   23 1    
    45   22   24 1    
    46   22  145 1    
    47   23  146 1    
    48   23  147 1    
    49   23  148 1    
    50   24   25 am   BACKBONE|DICT|INTERRES
    51   24  149 1    
    52   25   26 2    
    53   25   27 1    
    54   27   28 1    
    55   27   29 1    
    56   27  150 1    
    57   28  151 1    
    58   28  152 1    
    59   28  153 1    
    60   29   30 am   BACKBONE|DICT|INTERRES
    61   29  154 1    
    62   30   31 2    
    63   30   32 1    
    64   32   33 1    
    65   32   34 1    
    66   32  155 1    
    67   33  156 1    
    68   33  157 1    
    69   33  158 1    
    70   34   35 am   BACKBONE|DICT|INTERRES
    71   34  159 1    
    72   35   36 2    
    73   35   37 1    
    74   37   38 1    
    75   37   39 1    
    76   37  160 1    
    77   38  161 1    
    78   38  162 1    
    79   38  163 1    
    80   39   40 am   BACKBONE|DICT|INTERRES
    81   39  164 1    
    82   40   41 2    
    83   40   42 1    
    84   42   43 1    
    85   42   44 1    
    86   42  165 1    
    87   43  166 1    
    88   43  167 1    
    89   43  168 1    
    90   44   45 am   BACKBONE|DICT|INTERRES
    91   44  169 1    
    92   45   46 2    
    93   45   47 1    
    94   47   48 1    
    95   47   49 1    
    96   47  170 1    
    97   48  171 1    
    98   48  172 1    
    99   48  173 1    
   100   49   50 am   BACKBONE|DICT|INTERRES
   101   49  174 1    
   102   50   51 2    
   103   50   52 1    
   104   52   53 1    
   105   52   54 1    
   106   52  175 1    
   107   53  176 1    
   108   53  177 1    
   109   53  178 1    
   110   54   55 am   BACKBONE|DICT|INTERRES
   111   54  179 1    
   112   55   56 2    
   113   55   57 1    
   114   57   58 1    
   115   57   59 1    
   116   57  180 1    
   117   58  181 1    
   118   58  182 1    
   119   58  183 1    
   120   59   60 am   BACKBONE|DICT|INTERRES
   121   59  184 1    
   122   60   61 2    
   123   60   62 1    
   124   62   63 1    
   125   62   64 1    
   126   62  185 1    
   127   63  186 1    
   128   63  187 1    
   129   63  188 1    
   130   64   65 am   BACKBONE|DICT|INTERRES
   131   64  189 1    
   132   65   66 2    
   133   67   68 2    
   134   67   69 am   BACKBONE|DICT|INTERRES
   135   69   70 1    
   136   69  190 1    
   137   70   71 1    
   138   70   72 1    
   139   70  191 1    
   140   71  192 1    
   141   71  193 1    
   142   71  194 1    
   143   72   73 2    
   144   72   74 am   BACKBONE|DICT|INTERRES
   145   74   75 1    
   146   74  195 1    
   147   75   76 1    
   148   75   77 1    
   149   75  196 1    
   150   76  197 1    
   151   76  198 1    
   152   76  199 1    
   153   77   78 2    
   154   77   79 am   BACKBONE|DICT|INTERRES
   155   79   80 1    
   156   79  200 1    
   157   80   81 1    
   158   80   82 1    
   159   80  201 1    
   160   81  202 1    
   161   81  203 1    
   162   81  204 1    
   163   82   83 2    
   164   82   84 am   BACKBONE|DICT|INTERRES
   165   84   85 1    
   166   84  205 1    
   167   85   86 1    
   168   85   87 1    
   169   85  206 1    
   170   86  207 1    
   171   86  208 1    
   172   86  209 1    
   173   87   88 2    
   174   87   89 am   BACKBONE|DICT|INTERRES
   175   89   90 1    
   176   89  210 1    
   177   90   91 1    
   178   90   92 1    
   179   90  211 1    
   180   91  212 1    
   181   91  213 1    
   182   91  214 1    
   183   92   93 2    
   184   92   94 am   BACKBONE|DICT|INTERRES
   185   94   95 1    
   186   94  215 1    
   187   95   96 1    
   188   95   97 1    
   189   95  216 1    
   190   96  217 1    
   191   96  218 1    
   192   96  219 1    
   193   97   98 2    
   194   97   99 am   BACKBONE|DICT|INTERRES
   195   99  100 1    
   196   99  220 1    
   197  100  101 1    
   198  100  102 1    
   199  100  221 1    
   200  101  222 1    
   201  101  223 1    
   202  101  224 1    
   203  102  103 2    
   204  102  104 am   BACKBONE|DICT|INTERRES
   205  104  105 1    
   206  104  225 1    
   207  105  106 1    
   208  105  107 1    
   209  105  226 1    
   210  106  227 1    
   211  106  228 1    
   212  106  229 1    
   213  107  108 2    
   214  107  109 am   BACKBONE|DICT|INTERRES
   215  109  110 1    
   216  109  230 1    
   217  110  111 1    
   218  110  112 1    
   219  110  231 1    
   220  111  232 1    
   221  111  233 1    
   222  111  234 1    
   223  112  113 2    
   224  112  114 am   BACKBONE|DICT|INTERRES
   225  114  115 1    
   226  114  235 1    
   227  115  116 1    
   228  115  117 1    
   229  115  236 1    
   230  116  237 1    
   231  116  238 1    
   232  116  239 1    
   233  117  118 2    
   234  117  119 am   BACKBONE|DICT|INTERRES
   235  119  120 1    
   236  119  240 1    
   237  120  121 1    
   238  120  124 1    
   239  120  241 1    
   240  121  122 am   BACKBONE|DICT|INTERRES
   241  121  123 2    
   242  122  242 1    
   243  122  243 1    
   244  124  125 1    
   245  124  244 1    
   246  124  245 1    
   247  125  126 1    
   248  126  246 1    
   249  126  247 1    
@<TRIPOS>SUBSTRUCTURE
     1 UNK         1 GROUP             0       ****    0 ROOT    
