@<TRIPOS>MOLECULE
3R540
247   249    1
SMALL
USER_CHARGES


@<TRIPOS>ATOM
      1 CA          0.9815  -10.3391  -49.7182 C.3       0 UNK        -0.1800 
      2 C           0.0460  -11.4476  -50.1987 C.2       0 UNK         0.5000 
      3 O          -1.1617  -11.3450  -49.9986 O.2       0 UNK        -0.5000 
      4 N           0.5421  -12.5167  -50.8364 N.am      1 UNK        -0.5000 
      5 CA          1.9555  -12.8135  -51.1068 C.3       1 UNK         0.1400 
      6 C6          2.1164  -13.7135  -52.3572 C.3       23 UNK        -0.0398 
      7 S7          1.2467  -15.3162  -52.2312 S.3       23 UNK        -0.2404 
      8 C8          2.6501  -16.4713  -52.2134 C.3       23 UNK        -0.0205 
      9 C9          2.2175  -17.8780  -51.8295 C.ar      23 UNK        -0.0193 
     10 C10         1.4916  -18.6667  -52.7270 C.ar      23 UNK        -0.1150 
     11 C11         1.1175  -19.9717  -52.3892 C.ar      23 UNK        -0.0193 
     12 C12         1.4795  -20.4877  -51.1404 C.ar      23 UNK        -0.1150 
     13 C13         2.2070  -19.7075  -50.2346 C.ar      23 UNK        -0.0193 
     14 C14         2.5692  -18.4039  -50.5842 C.ar      23 UNK        -0.1150 
     15 C15         2.6369  -20.2748  -48.8897 C.3       23 UNK        -0.0205 
     16 S16         1.7435  -19.5107  -47.5000 S.3       23 UNK        -0.2404 
     17 C17         0.1066  -20.2897  -47.6677 C.3       23 UNK        -0.0398 
     18 CA         -0.0125  -21.5944  -46.8455 C.3       11 UNK         0.1400 
     19 N           0.0114  -21.3693  -45.3941 N.am      11 UNK        -0.5000 
     20 C           0.0279  -22.3340  -44.4610 C.2       10 UNK         0.5000 
     21 O           0.0522  -23.5365  -44.7244 O.2       10 UNK        -0.5000 
     22 CA         -0.0551  -21.8866  -42.9900 C.3       10 UNK         0.1400 
     23 CB          1.3216  -21.4678  -42.4518 C.3       10 UNK        -0.1800 
     24 N          -1.0201  -20.8011  -42.8095 N.am      10 UNK        -0.5000 
     25 C          -2.3494  -20.9678  -42.8614 C.2       9 UNK         0.5000 
     26 O          -2.8898  -22.0686  -42.9613 O.2       9 UNK        -0.5000 
     27 CA         -3.2285  -19.7027  -42.8203 C.3       9 UNK         0.1400 
     28 CB         -3.5920  -19.3434  -41.3722 C.3       9 UNK        -0.1800 
     29 N          -2.6095  -18.5468  -43.4701 N.am      9 UNK        -0.5000 
     30 C          -2.3457  -18.4600  -44.7814 C.2       8 UNK         0.5000 
     31 O          -2.6558  -19.3279  -45.5974 O.2       8 UNK        -0.5000 
     32 CA         -1.5499  -17.2242  -45.2484 C.3       8 UNK         0.1400 
     33 CB         -2.4762  -16.0190  -45.4643 C.3       8 UNK        -0.1800 
     34 N          -0.4793  -16.8531  -44.3199 N.am      8 UNK        -0.5000 
     35 C           0.5505  -17.6473  -43.9941 C.2       7 UNK         0.5000 
     36 O           0.7142  -18.7700  -44.4630 O.2       7 UNK        -0.5000 
     37 CA          1.5177  -17.1391  -42.9136 C.3       7 UNK         0.1400 
     38 CB          2.5133  -16.1169  -43.4799 C.3       7 UNK        -0.1800 
     39 N           0.7949  -16.5627  -41.7825 N.am      7 UNK        -0.5000 
     40 C           0.0823  -17.2816  -40.9034 C.2       6 UNK         0.5000 
     41 O           0.0123  -18.5103  -40.9213 O.2       6 UNK        -0.5000 
     42 CA         -0.7156  -16.4896  -39.8517 C.3       6 UNK         0.1400 
     43 CB          0.1610  -16.1778  -38.6297 C.3       6 UNK        -0.1800 
     44 N          -1.2628  -15.2415  -40.3864 N.am      6 UNK        -0.5000 
     45 C          -2.2176  -15.1738  -41.3253 C.2       5 UNK         0.5000 
     46 O          -2.7656  -16.1595  -41.8160 O.2       5 UNK        -0.5000 
     47 CA         -2.5772  -13.7684  -41.8389 C.3       5 UNK         0.1400 
     48 CB         -3.6128  -13.1030  -40.9205 C.3       5 UNK        -0.1800 
     49 N          -1.4047  -12.8983  -41.9678 N.am      5 UNK        -0.5000 
     50 C          -0.4048  -13.1080  -42.8327 C.2       4 UNK         0.5000 
     51 O          -0.3620  -14.0605  -43.6159 O.2       4 UNK        -0.5000 
     52 CA          0.7620  -12.1174  -42.7881 C.3       4 UNK         0.1400 
     53 CB          1.8268  -12.5740  -41.7738 C.3       4 UNK        -0.1800 
     54 N           1.3333  -12.0253  -44.1265 N.am      4 UNK        -0.5000 
     55 C           2.0973  -11.0261  -44.5790 C.2       3 UNK         0.5000 
     56 O           2.4607  -10.0841  -43.8724 O.2       3 UNK        -0.5000 
     57 CA          2.4801  -11.0380  -46.0746 C.3       3 UNK         0.1400 
     58 CB          3.9363  -10.5872  -46.3140 C.3       3 UNK        -0.1800 
     59 N           2.1939  -12.2894  -46.7898 N.am      3 UNK        -0.5000 
     60 C           2.7999  -13.4801  -46.6577 C.2       2 UNK         0.5000 
     61 O           3.6415  -13.7366  -45.7979 O.2       2 UNK        -0.5000 
     62 CA          2.4087  -14.5626  -47.6858 C.3       2 UNK         0.1400 
     63 CB          1.3439  -15.5075  -47.1107 C.3       2 UNK        -0.1800 
     64 N           1.9106  -13.9951  -48.9426 N.am      2 UNK        -0.5000 
     65 C           2.6773  -13.4094  -49.8759 C.2       1 UNK         0.5000 
     66 O           3.9008  -13.3077  -49.7873 O.2       1 UNK        -0.5000 
     67 C          -1.2406  -22.4034  -47.3052 C.2       11 UNK         0.5000 
     68 O          -1.1056  -23.2007  -48.2301 O.2       11 UNK        -0.5000 
     69 N          -2.3828  -22.2509  -46.6164 N.am      12 UNK        -0.5000 
     70 CA         -3.6318  -22.9845  -46.8546 C.3       12 UNK         0.1400 
     71 CB         -4.6860  -22.5263  -45.8327 C.3       12 UNK        -0.1800 
     72 C          -3.5027  -24.5237  -46.7988 C.2       12 UNK         0.5000 
     73 O          -4.3533  -25.2165  -47.3564 O.2       12 UNK        -0.5000 
     74 N          -2.4612  -25.0353  -46.1265 N.am      13 UNK        -0.5000 
     75 CA         -2.1549  -26.4619  -46.0308 C.3       13 UNK         0.1400 
     76 CB         -1.2800  -26.6965  -44.7893 C.3       13 UNK        -0.1800 
     77 C          -1.4700  -27.0357  -47.2895 C.2       13 UNK         0.5000 
     78 O          -1.4038  -28.2597  -47.4184 O.2       13 UNK        -0.5000 
     79 N          -0.9510  -26.1759  -48.1796 N.am      14 UNK        -0.5000 
     80 CA         -0.2925  -26.5797  -49.4237 C.3       14 UNK         0.1400 
     81 CB          0.5459  -25.4070  -49.9581 C.3       14 UNK        -0.1800 
     82 C          -1.2961  -27.0705  -50.4863 C.2       14 UNK         0.5000 
     83 O          -2.4915  -26.7740  -50.4080 O.2       14 UNK        -0.5000 
     84 N          -0.7824  -27.8123  -51.4761 N.am      15 UNK        -0.5000 
     85 CA         -1.5478  -28.3554  -52.5984 C.3       15 UNK         0.1400 
     86 CB         -0.6342  -29.2523  -53.4485 C.3       15 UNK        -0.1800 
     87 C          -2.1788  -27.2420  -53.4559 C.2       15 UNK         0.5000 
     88 O          -1.4578  -26.3717  -53.9483 O.2       15 UNK        -0.5000 
     89 N          -3.5106  -27.2968  -53.5972 N.am      16 UNK        -0.5000 
     90 CA         -4.3713  -26.3581  -54.3290 C.3       16 UNK         0.1400 
     91 CB         -4.0489  -26.3781  -55.8384 C.3       16 UNK        -0.1800 
     92 C          -4.3963  -24.9239  -53.7529 C.2       16 UNK         0.5000 
     93 O          -4.8053  -23.9981  -54.4574 O.2       16 UNK        -0.5000 
     94 N          -3.9811  -24.7517  -52.4915 N.am      17 UNK        -0.5000 
     95 CA         -4.0263  -23.4752  -51.7867 C.3       17 UNK         0.1400 
     96 CB         -2.9119  -23.4344  -50.7392 C.3       17 UNK        -0.1800 
     97 C          -5.3934  -23.2661  -51.1221 C.2       17 UNK         0.5000 
     98 O          -5.9332  -24.2017  -50.5276 O.2       17 UNK        -0.5000 
     99 N          -5.9064  -22.0347  -51.1986 N.am      18 UNK        -0.5000 
    100 CA        -7.0390  -21.5667  -50.4010 C.3       18 UNK         0.1400 
    101 CB        -7.9052  -20.6207  -51.2476 C.3       18 UNK        -0.1800 
    102 C         -6.5245  -20.8541  -49.1387 C.2       18 UNK         0.5000 
    103 O         -7.0875  -21.0383  -48.0600 O.2       18 UNK        -0.5000 
    104 N         -5.4447  -20.0814  -49.3014 N.am      19 UNK        -0.5000 
    105 CA        -4.7033  -19.3775  -48.2628 C.3       19 UNK         0.1400 
    106 CB        -5.5238  -18.1912  -47.7077 C.3       19 UNK        -0.1800 
    107 C         -3.3586  -18.9904  -48.8940 C.2       19 UNK         0.5000 
    108 O         -2.6663  -19.8718  -49.4011 O.2       19 UNK        -0.5000 
    109 N         -3.0412  -17.6888  -48.9310 N.am      20 UNK        -0.5000 
    110 CA        -1.9978  -17.1363  -49.8009 C.3       20 UNK         0.1400 
    111 CB        -1.6710  -15.7057  -49.3474 C.3       20 UNK        -0.1800 
    112 C         -2.4292  -17.1561  -51.2844 C.2       20 UNK         0.5000 
    113 O         -1.5803  -17.2262  -52.1699 O.2       20 UNK        -0.5000 
    114 N         -3.7479  -17.1140  -51.5290 N.am      21 UNK        -0.5000 
    115 CA        -4.3564  -17.3977  -52.8247 C.3       21 UNK         0.1400 
    116 CB        -5.8107  -16.9028  -52.8166 C.3       21 UNK        -0.1800 
    117 C         -4.2981  -18.9098  -53.0988 C.2       21 UNK         0.5000 
    118 O         -4.6686  -19.6972  -52.2210 O.2       21 UNK        -0.5000 
    119 N         -3.8408  -19.2805  -54.2976 N.am      22 UNK        -0.5000 
    120 CA        -3.6565  -20.6695  -54.7353 C.3       22 UNK         0.1400 
    121 C         -4.1929  -20.8632  -56.1758 C.2       22 UNK         0.5000 
    122 N         -4.7112  -22.0407  -56.4930 N.am      22 UNK        -0.7600 
    123 O         -4.1164  -19.9684  -57.0158 O.2       22 UNK        -0.5000 
    124 C124       -2.1755  -21.1364  -54.6364 C.3       23 UNK        -0.0398 
    125 S125       -1.4230  -20.9098  -52.9839 S.3       23 UNK        -0.2404 
    126 C126        0.3500  -20.8275  -53.3879 C.3       23 UNK        -0.0205 
    127 H127        0.4688   -9.6904  -49.0076 H         1 UNK         0.0600 
    128 H128        1.2997   -9.7258  -50.5612 H         1 UNK         0.0600 
    129 H129        1.8678  -10.7311  -49.2226 H         1 UNK         0.0600 
    130 H130       -0.1031  -13.2167  -51.1748 H         1 UNK         0.3000 
    131 H131        2.4620  -11.8743  -51.3374 H         1 UNK         0.0600 
    132 H132        1.7185  -13.1918  -53.2286 H         1 UNK         0.0800 
    133 H133        3.1731  -13.8753  -52.5779 H         1 UNK         0.0800 
    134 H134        3.4086  -16.1079  -51.5180 H         1 UNK         0.0800 
    135 H135        3.1162  -16.4891  -53.1996 H         1 UNK         0.0800 
    136 H136        1.2153  -18.2591  -53.6893 H         1 UNK         0.1150 
    137 H137        1.1957  -21.4976  -50.8784 H         1 UNK         0.1150 
    138 H138        3.1333  -17.8029  -49.8846 H         1 UNK         0.1150 
    139 H139        2.5021  -21.3571  -48.8609 H         1 UNK         0.0800 
    140 H140        3.7052  -20.0985  -48.7565 H         1 UNK         0.0800 
    141 H141       -0.0812  -20.4738  -48.7269 H         1 UNK         0.0800 
    142 H142       -0.6509  -19.5713  -47.3558 H         1 UNK         0.0800 
    143 H143        0.8570  -22.2134  -47.0766 H         1 UNK         0.0600 
    144 H144        0.0716  -20.3999  -45.0901 H         1 UNK         0.3000 
    145 H145       -0.3913  -22.7429  -42.4013 H         1 UNK         0.0600 
    146 H146        1.2601  -21.1648  -41.4065 H         1 UNK         0.0600 
    147 H147        2.0276  -22.2970  -42.5100 H         1 UNK         0.0600 
    148 H148        1.7484  -20.6387  -43.0147 H         1 UNK         0.0600 
    149 H149       -0.6445  -19.8680  -42.6992 H         1 UNK         0.3000 
    150 H150       -4.1531  -19.9290  -43.3556 H         1 UNK         0.0600 
    151 H151       -4.0769  -20.1820  -40.8709 H         1 UNK         0.0600 
    152 H152       -4.2822  -18.5004  -41.3366 H         1 UNK         0.0600 
    153 H153       -2.7091  -19.0782  -40.7902 H         1 UNK         0.0600 
    154 H154       -2.3873  -17.7551  -42.8736 H         1 UNK         0.3000 
    155 H155       -1.0844  -17.4692  -46.2051 H         1 UNK         0.0600 
    156 H156       -2.9932  -15.7392  -44.5464 H         1 UNK         0.0600 
    157 H157       -3.2342  -16.2368  -46.2153 H         1 UNK         0.0600 
    158 H158       -1.9186  -15.1486  -45.8102 H         1 UNK         0.0600 
    159 H159       -0.5264  -15.9200  -43.9192 H         1 UNK         0.3000 
    160 H160        2.0910  -17.9952  -42.5511 H         1 UNK         0.0600 
    161 H161        2.0130  -15.2336  -43.8761 H         1 UNK         0.0600 
    162 H162        3.0976  -16.5530  -44.2910 H         1 UNK         0.0600 
    163 H163        3.2188  -15.7889  -42.7168 H         1 UNK         0.0600 
    164 H164        0.7649  -15.5568  -41.7238 H         1 UNK         0.3000 
    165 H165       -1.5492  -17.1150  -39.5251 H         1 UNK         0.0600 
    166 H166       -0.4144  -15.6809  -37.8483 H         1 UNK         0.0600 
    167 H167        0.5689  -17.0932  -38.1989 H         1 UNK         0.0600 
    168 H168        1.0022  -15.5337  -38.8893 H         1 UNK         0.0600 
    169 H169       -0.8690  -14.3813  -40.0354 H         1 UNK         0.3000 
    170 H170       -3.0237  -13.8819  -42.8290 H         1 UNK         0.0600 
    171 H171       -4.5033  -13.7253  -40.8222 H         1 UNK         0.0600 
    172 H172       -3.2167  -12.9357  -39.9181 H         1 UNK         0.0600 
    173 H173       -3.9333  -12.1407  -41.3201 H         1 UNK         0.0600 
    174 H174       -1.3678  -12.0964  -41.3546 H         1 UNK         0.3000 
    175 H175        0.3750  -11.1385  -42.4972 H         1 UNK         0.0600 
    176 H176        2.2705  -13.5279  -42.0574 H         1 UNK         0.0600 
    177 H177        2.6335  -11.8458  -41.6912 H         1 UNK         0.0600 
    178 H178        1.3979  -12.6920  -40.7780 H         1 UNK         0.0600 
    179 H179        1.0492  -12.7645  -44.7561 H         1 UNK         0.3000 
    180 H180        1.8366  -10.2888  -46.5377 H         1 UNK         0.0600 
    181 H181        4.6506  -11.2417  -45.8141 H         1 UNK         0.0600 
    182 H182        4.1023   -9.5774  -45.9370 H         1 UNK         0.0600 
    183 H183        4.1763  -10.5774  -47.3773 H         1 UNK         0.0600 
    184 H184        1.4890  -12.2192  -47.5078 H         1 UNK         0.3000 
    185 H185        3.3015  -15.1520  -47.9055 H         1 UNK         0.0600 
    186 H186        1.7324  -16.0430  -46.2464 H         1 UNK         0.0600 
    187 H187        0.4512  -14.9691  -46.7908 H         1 UNK         0.0600 
    188 H188        1.0459  -16.2613  -47.8402 H         1 UNK         0.0600 
    189 H189        0.9161  -14.0455  -49.1050 H         1 UNK         0.3000 
    190 H190       -2.4040  -21.5459  -45.8900 H         1 UNK         0.3000 
    191 H191       -3.9759  -22.7134  -47.8546 H         1 UNK         0.0600 
    192 H192       -4.4917  -22.9430  -44.8444 H         1 UNK         0.0600 
    193 H193       -5.6809  -22.8575  -46.1327 H         1 UNK         0.0600 
    194 H194       -4.7220  -21.4432  -45.7281 H         1 UNK         0.0600 
    195 H195       -1.7952  -24.4019  -45.7006 H         1 UNK         0.3000 
    196 H196       -3.0894  -27.0092  -45.8905 H         1 UNK         0.0600 
    197 H197       -1.1023  -27.7611  -44.6321 H         1 UNK         0.0600 
    198 H198       -1.7577  -26.3106  -43.8886 H         1 UNK         0.0600 
    199 H199       -0.3069  -26.2141  -44.8870 H         1 UNK         0.0600 
    200 H200       -1.0852  -25.1782  -48.0465 H         1 UNK         0.3000 
    201 H201        0.3872  -27.4033  -49.1947 H         1 UNK         0.0600 
    202 H202        1.2504  -25.0498  -49.2067 H         1 UNK         0.0600 
    203 H203       -0.0786  -24.5657  -50.2548 H         1 UNK         0.0600 
    204 H204        1.1264  -25.7037  -50.8322 H         1 UNK         0.0600 
    205 H205        0.2118  -27.9860  -51.4907 H         1 UNK         0.3000 
    206 H206       -2.3425  -28.9796  -52.1844 H         1 UNK         0.0600 
    207 H207       -1.1828  -29.6840  -54.2867 H         1 UNK         0.0600 
    208 H208        0.2081  -28.6948  -53.8603 H         1 UNK         0.0600 
    209 H209       -0.2351  -30.0798  -52.8616 H         1 UNK         0.0600 
    210 H210       -4.0031  -28.0426  -53.1250 H         1 UNK         0.3000 
    211 H211       -5.3877  -26.7361  -54.2111 H         1 UNK         0.0600 
    212 H212       -3.0771  -25.9323  -56.0517 H         1 UNK         0.0600 
    213 H213       -4.7937  -25.8193  -56.4063 H         1 UNK         0.0600 
    214 H214       -4.0449  -27.3960  -56.2283 H         1 UNK         0.0600 
    215 H215       -3.6819  -25.5534  -51.9501 H         1 UNK         0.3000 
    216 H216       -3.8378  -22.6653  -52.4870 H         1 UNK         0.0600 
    217 H217       -2.8899  -22.4675  -50.2355 H         1 UNK         0.0600 
    218 H218       -1.9366  -23.5772  -51.2022 H         1 UNK         0.0600 
    219 H219       -3.0426  -24.2005  -49.9746 H         1 UNK         0.0600 
    220 H220       -5.3953  -21.3118  -51.7012 H         1 UNK         0.3000 
    221 H221       -7.6619  -22.4076  -50.0890 H         1 UNK         0.0600 
    222 H222       -7.3475  -19.7442  -51.5787 H         1 UNK         0.0600 
    223 H223       -8.2877  -21.1269  -52.1340 H         1 UNK         0.0600 
    224 H224       -8.7650  -20.2664  -50.6778 H         1 UNK         0.0600 
    225 H225       -5.0299  -20.0195  -50.2269 H         1 UNK         0.3000 
    226 H226       -4.4863  -20.0716  -47.4537 H         1 UNK         0.0600 
    227 H227       -6.4516  -18.5339  -47.2501 H         1 UNK         0.0600 
    228 H228       -4.9742  -17.6631  -46.9290 H         1 UNK         0.0600 
    229 H229       -5.7895  -17.4762  -48.4871 H         1 UNK         0.0600 
    230 H230       -3.6546  -17.0260  -48.4810 H         1 UNK         0.3000 
    231 H231       -1.0954  -17.7451  -49.7027 H         1 UNK         0.0600 
    232 H232       -1.3719  -15.6834  -48.3007 H         1 UNK         0.0600 
    233 H233       -2.5251  -15.0379  -49.4661 H         1 UNK         0.0600 
    234 H234       -0.8481  -15.2946  -49.9322 H         1 UNK         0.0600 
    235 H235       -4.3771  -17.0765  -50.7432 H         1 UNK         0.3000 
    236 H236       -3.8076  -16.8611  -53.6017 H         1 UNK         0.0600 
    237 H237       -6.2938  -17.0987  -53.7747 H         1 UNK         0.0600 
    238 H238       -6.4018  -17.3963  -52.0440 H         1 UNK         0.0600 
    239 H239       -5.8602  -15.8280  -52.6412 H         1 UNK         0.0600 
    240 H240       -3.6034  -18.5815  -54.9876 H         1 UNK         0.3000 
    241 H241       -4.2694  -21.3104  -54.1043 H         1 UNK         0.0600 
    242 H242       -5.0573  -22.1954  -57.4266 H         1 UNK         0.3800 
    243 H243       -4.7792  -22.7870  -55.8010 H         1 UNK         0.3800 
    244 H244       -1.5750  -20.5964  -55.3699 H         1 UNK         0.0800 
    245 H245       -2.0973  -22.1940  -54.8947 H         1 UNK         0.0800 
    246 H246        0.4886  -20.4273  -54.3929 H         1 UNK         0.0800 
    247 H247        0.7596  -21.8385  -53.4031 H         1 UNK         0.0800 
@<TRIPOS>BOND
     1    1    2 1    
     2    1  127 1    
     3    1  128 1    
     4    1  129 1    
     5    2    3 2    
     6    2    4 am   BACKBONE|DICT|INTERRES
     7    4    5 1    
     8    4  130 1    
     9    5    6 1    
    10    5   65 1    
    11    5  131 1    
    12    6    7 1    
    13    6  132 1    
    14    6  133 1    
    15    7    8 1    
    16    8    9 1    
    17    8  134 1    
    18    8  135 1    
    19    9   10 ar   
    20    9   14 ar   
    21   10   11 ar   
    22   10  136 1    
    23   11   12 ar   
    24   11  126 1    
    25   12   13 ar   
    26   12  137 1    
    27   13   14 ar   
    28   13   15 1    
    29   14  138 1    
    30   15   16 1    
    31   15  139 1    
    32   15  140 1    
    33   16   17 1    
    34   17   18 1    
    35   17  141 1    
    36   17  142 1    
    37   18   19 1    
    38   18   67 1    
    39   18  143 1    
    40   19   20 am   BACKBONE|DICT|INTERRES
    41   19  144 1    
    42   20   21 2    
    43   20   22 1    
    44   22   23 1    
    45   22   24 1    
    46   22  145 1    
    47   23  146 1    
    48   23  147 1    
    49   23  148 1    
    50   24   25 am   BACKBONE|DICT|INTERRES
    51   24  149 1    
    52   25   26 2    
    53   25   27 1    
    54   27   28 1    
    55   27   29 1    
    56   27  150 1    
    57   28  151 1    
    58   28  152 1    
    59   28  153 1    
    60   29   30 am   BACKBONE|DICT|INTERRES
    61   29  154 1    
    62   30   31 2    
    63   30   32 1    
    64   32   33 1    
    65   32   34 1    
    66   32  155 1    
    67   33  156 1    
    68   33  157 1    
    69   33  158 1    
    70   34   35 am   BACKBONE|DICT|INTERRES
    71   34  159 1    
    72   35   36 2    
    73   35   37 1    
    74   37   38 1    
    75   37   39 1    
    76   37  160 1    
    77   38  161 1    
    78   38  162 1    
    79   38  163 1    
    80   39   40 am   BACKBONE|DICT|INTERRES
    81   39  164 1    
    82   40   41 2    
    83   40   42 1    
    84   42   43 1    
    85   42   44 1    
    86   42  165 1    
    87   43  166 1    
    88   43  167 1    
    89   43  168 1    
    90   44   45 am   BACKBONE|DICT|INTERRES
    91   44  169 1    
    92   45   46 2    
    93   45   47 1    
    94   47   48 1    
    95   47   49 1    
    96   47  170 1    
    97   48  171 1    
    98   48  172 1    
    99   48  173 1    
   100   49   50 am   BACKBONE|DICT|INTERRES
   101   49  174 1    
   102   50   51 2    
   103   50   52 1    
   104   52   53 1    
   105   52   54 1    
   106   52  175 1    
   107   53  176 1    
   108   53  177 1    
   109   53  178 1    
   110   54   55 am   BACKBONE|DICT|INTERRES
   111   54  179 1    
   112   55   56 2    
   113   55   57 1    
   114   57   58 1    
   115   57   59 1    
   116   57  180 1    
   117   58  181 1    
   118   58  182 1    
   119   58  183 1    
   120   59   60 am   BACKBONE|DICT|INTERRES
   121   59  184 1    
   122   60   61 2    
   123   60   62 1    
   124   62   63 1    
   125   62   64 1    
   126   62  185 1    
   127   63  186 1    
   128   63  187 1    
   129   63  188 1    
   130   64   65 am   BACKBONE|DICT|INTERRES
   131   64  189 1    
   132   65   66 2    
   133   67   68 2    
   134   67   69 am   BACKBONE|DICT|INTERRES
   135   69   70 1    
   136   69  190 1    
   137   70   71 1    
   138   70   72 1    
   139   70  191 1    
   140   71  192 1    
   141   71  193 1    
   142   71  194 1    
   143   72   73 2    
   144   72   74 am   BACKBONE|DICT|INTERRES
   145   74   75 1    
   146   74  195 1    
   147   75   76 1    
   148   75   77 1    
   149   75  196 1    
   150   76  197 1    
   151   76  198 1    
   152   76  199 1    
   153   77   78 2    
   154   77   79 am   BACKBONE|DICT|INTERRES
   155   79   80 1    
   156   79  200 1    
   157   80   81 1    
   158   80   82 1    
   159   80  201 1    
   160   81  202 1    
   161   81  203 1    
   162   81  204 1    
   163   82   83 2    
   164   82   84 am   BACKBONE|DICT|INTERRES
   165   84   85 1    
   166   84  205 1    
   167   85   86 1    
   168   85   87 1    
   169   85  206 1    
   170   86  207 1    
   171   86  208 1    
   172   86  209 1    
   173   87   88 2    
   174   87   89 am   BACKBONE|DICT|INTERRES
   175   89   90 1    
   176   89  210 1    
   177   90   91 1    
   178   90   92 1    
   179   90  211 1    
   180   91  212 1    
   181   91  213 1    
   182   91  214 1    
   183   92   93 2    
   184   92   94 am   BACKBONE|DICT|INTERRES
   185   94   95 1    
   186   94  215 1    
   187   95   96 1    
   188   95   97 1    
   189   95  216 1    
   190   96  217 1    
   191   96  218 1    
   192   96  219 1    
   193   97   98 2    
   194   97   99 am   BACKBONE|DICT|INTERRES
   195   99  100 1    
   196   99  220 1    
   197  100  101 1    
   198  100  102 1    
   199  100  221 1    
   200  101  222 1    
   201  101  223 1    
   202  101  224 1    
   203  102  103 2    
   204  102  104 am   BACKBONE|DICT|INTERRES
   205  104  105 1    
   206  104  225 1    
   207  105  106 1    
   208  105  107 1    
   209  105  226 1    
   210  106  227 1    
   211  106  228 1    
   212  106  229 1    
   213  107  108 2    
   214  107  109 am   BACKBONE|DICT|INTERRES
   215  109  110 1    
   216  109  230 1    
   217  110  111 1    
   218  110  112 1    
   219  110  231 1    
   220  111  232 1    
   221  111  233 1    
   222  111  234 1    
   223  112  113 2    
   224  112  114 am   BACKBONE|DICT|INTERRES
   225  114  115 1    
   226  114  235 1    
   227  115  116 1    
   228  115  117 1    
   229  115  236 1    
   230  116  237 1    
   231  116  238 1    
   232  116  239 1    
   233  117  118 2    
   234  117  119 am   BACKBONE|DICT|INTERRES
   235  119  120 1    
   236  119  240 1    
   237  120  121 1    
   238  120  124 1    
   239  120  241 1    
   240  121  122 am   BACKBONE|DICT|INTERRES
   241  121  123 2    
   242  122  242 1    
   243  122  243 1    
   244  124  125 1    
   245  124  244 1    
   246  124  245 1    
   247  125  126 1    
   248  126  246 1    
   249  126  247 1    
@<TRIPOS>SUBSTRUCTURE
     1 UNK         1 GROUP             0       ****    0 ROOT    
