@<TRIPOS>MOLECULE
3R540
247   249    1
SMALL
USER_CHARGES


@<TRIPOS>ATOM
      1 CA         -1.1558  -12.9621  -53.7878 C.3       0 UNK        -0.1800 
      2 C          -1.0254  -13.6459  -52.4340 C.2       0 UNK         0.5000 
      3 O          -0.1158  -14.4531  -52.2421 O.2       0 UNK        -0.5000 
      4 N          -1.9309  -13.3305  -51.5000 N.am      1 UNK        -0.5000 
      5 CA         -1.9457  -13.8532  -50.1328 C.3       1 UNK         0.1400 
      6 C6         -3.2894  -13.5674  -49.4139 C.3       23 UNK        -0.0398 
      7 S7         -4.6818  -14.5326  -50.0974 S.3       23 UNK        -0.2404 
      8 C8         -5.0304  -15.7199  -48.7540 C.3       23 UNK        -0.0205 
      9 C9         -4.1238  -16.9415  -48.8170 C.ar      23 UNK        -0.0193 
     10 C10        -4.6194  -18.1689  -49.2694 C.ar      23 UNK        -0.1150 
     11 C11        -3.7818  -19.2858  -49.3505 C.ar      23 UNK        -0.0193 
     12 C12        -2.4357  -19.1591  -49.0015 C.ar      23 UNK        -0.1150 
     13 C13        -1.9274  -17.9413  -48.5447 C.ar      23 UNK        -0.0193 
     14 C14        -2.7856  -16.8464  -48.4270 C.ar      23 UNK        -0.1150 
     15 C15        -0.4494  -17.7834  -48.2227 C.3       23 UNK        -0.0205 
     16 S16         0.0827  -18.8474  -46.8545 S.3       23 UNK        -0.2404 
     17 C17         0.7731  -20.2897  -47.7331 C.3       23 UNK        -0.0398 
     18 CA          0.4991  -21.6286  -47.0127 C.3       11 UNK         0.1400 
     19 N           0.9974  -21.6100  -45.6336 N.am      11 UNK        -0.5000 
     20 C           1.3237  -22.6957  -44.9247 C.2       10 UNK         0.5000 
     21 O           1.2330  -23.8454  -45.3515 O.2       10 UNK        -0.5000 
     22 CA          1.7599  -22.4463  -43.4745 C.3       10 UNK         0.1400 
     23 CB          3.0953  -21.6876  -43.4085 C.3       10 UNK        -0.1800 
     24 N           0.7438  -21.7050  -42.7319 N.am      10 UNK        -0.5000 
     25 C          -0.4480  -22.1951  -42.3656 C.2       9 UNK         0.5000 
     26 O          -0.8471  -23.3129  -42.6957 O.2       9 UNK        -0.5000 
     27 CA         -1.3544  -21.2760  -41.5181 C.3       9 UNK         0.1400 
     28 CB         -2.2592  -22.0615  -40.5475 C.3       9 UNK        -0.1800 
     29 N          -0.6267  -20.2120  -40.8178 N.am      9 UNK        -0.5000 
     30 C           0.3031  -20.3276  -39.8564 C.2       8 UNK         0.5000 
     31 O           0.6454  -21.4004  -39.3583 O.2       8 UNK        -0.5000 
     32 CA          0.9944  -19.0283  -39.3878 C.3       8 UNK         0.1400 
     33 CB          2.4645  -19.0090  -39.8378 C.3       8 UNK        -0.1800 
     34 N           0.3390  -17.8164  -39.8846 N.am      8 UNK        -0.5000 
     35 C          -0.7769  -17.2827  -39.3692 C.2       7 UNK         0.5000 
     36 O          -1.3310  -17.7042  -38.3536 O.2       7 UNK        -0.5000 
     37 CA         -1.3995  -16.1046  -40.1435 C.3       7 UNK         0.1400 
     38 CB         -0.8084  -14.7711  -39.6626 C.3       7 UNK        -0.1800 
     39 N          -1.2265  -16.2189  -41.5945 N.am      7 UNK        -0.5000 
     40 C          -1.7615  -17.1835  -42.3576 C.2       6 UNK         0.5000 
     41 O          -2.5085  -18.0600  -41.9249 O.2       6 UNK        -0.5000 
     42 CA         -1.3395  -17.2187  -43.8355 C.3       6 UNK         0.1400 
     43 CB         -2.1731  -16.2388  -44.6724 C.3       6 UNK        -0.1800 
     44 N           0.0824  -16.9275  -44.0084 N.am      6 UNK        -0.5000 
     45 C           1.0818  -17.7233  -43.6030 C.2       5 UNK         0.5000 
     46 O           0.9126  -18.8139  -43.0570 O.2       5 UNK        -0.5000 
     47 CA          2.5118  -17.2035  -43.8218 C.3       5 UNK         0.1400 
     48 CB          3.0306  -17.5810  -45.2166 C.3       5 UNK        -0.1800 
     49 N           2.5945  -15.7547  -43.6457 N.am      5 UNK        -0.5000 
     50 C           2.5478  -15.1387  -42.4571 C.2       4 UNK         0.5000 
     51 O           2.4736  -15.7329  -41.3809 O.2       4 UNK        -0.5000 
     52 CA          2.5497  -13.5989  -42.4823 C.3       4 UNK         0.1400 
     53 CB          3.9820  -13.0599  -42.6142 C.3       4 UNK        -0.1800 
     54 N           1.7217  -13.0468  -43.5578 N.am      4 UNK        -0.5000 
     55 C           0.3872  -13.1570  -43.6094 C.2       3 UNK         0.5000 
     56 O          -0.2820  -13.7344  -42.7538 O.2       3 UNK        -0.5000 
     57 CA         -0.3204  -12.5524  -44.8365 C.3       3 UNK         0.1400 
     58 CB         -0.6037  -11.0598  -44.6119 C.3       3 UNK        -0.1800 
     59 N           0.3883  -12.7227  -46.1089 N.am      3 UNK        -0.5000 
     60 C           0.7878  -13.8902  -46.6290 C.2       2 UNK         0.5000 
     61 O           0.7079  -14.9676  -46.0377 O.2       2 UNK        -0.5000 
     62 CA          1.3094  -13.8526  -48.0766 C.3       2 UNK         0.1400 
     63 CB          2.4347  -14.8767  -48.3050 C.3       2 UNK        -0.1800 
     64 N           0.2111  -14.1388  -48.9977 N.am      2 UNK        -0.5000 
     65 C          -0.7660  -13.2820  -49.3199 C.2       1 UNK         0.5000 
     66 O          -0.7731  -12.0948  -48.9875 O.2       1 UNK        -0.5000 
     67 C          -0.9832  -22.0525  -47.1026 C.2       11 UNK         0.5000 
     68 O          -1.4349  -22.4372  -48.1792 O.2       11 UNK        -0.5000 
     69 N          -1.7110  -22.0032  -45.9767 N.am      12 UNK        -0.5000 
     70 CA         -3.0633  -22.5477  -45.8605 C.3       12 UNK         0.1400 
     71 CB         -3.7264  -22.0288  -44.5760 C.3       12 UNK        -0.1800 
     72 C          -3.0488  -24.0876  -45.9003 C.2       12 UNK         0.5000 
     73 O          -3.9069  -24.6853  -46.5500 O.2       12 UNK        -0.5000 
     74 N          -2.0547  -24.6962  -45.2354 N.am      13 UNK        -0.5000 
     75 CA         -1.7682  -26.1269  -45.3094 C.3       13 UNK         0.1400 
     76 CB         -0.8795  -26.5374  -44.1247 C.3       13 UNK        -0.1800 
     77 C          -1.1153  -26.4934  -46.6541 C.2       13 UNK         0.5000 
     78 O          -1.6134  -27.3745  -47.3567 O.2       13 UNK        -0.5000 
     79 N          -0.0336  -25.7876  -47.0111 N.am      14 UNK        -0.5000 
     80 CA          0.6900  -25.9333  -48.2740 C.3       14 UNK         0.1400 
     81 CB          2.1537  -25.5024  -48.0727 C.3       14 UNK        -0.1800 
     82 C          -0.0094  -25.1545  -49.4053 C.2       14 UNK         0.5000 
     83 O           0.5540  -24.2020  -49.9488 O.2       14 UNK        -0.5000 
     84 N          -1.2302  -25.5911  -49.7469 N.am      15 UNK        -0.5000 
     85 CA         -2.1315  -24.9911  -50.7402 C.3       15 UNK         0.1400 
     86 CB         -3.4531  -25.7737  -50.7399 C.3       15 UNK        -0.1800 
     87 C          -1.5588  -24.8937  -52.1707 C.2       15 UNK         0.5000 
     88 O          -2.0710  -24.1180  -52.9785 O.2       15 UNK        -0.5000 
     89 N          -0.4727  -25.6317  -52.4444 N.am      16 UNK        -0.5000 
     90 CA          0.3656  -25.5380  -53.6431 C.3       16 UNK         0.1400 
     91 CB          1.4636  -26.6094  -53.5581 C.3       16 UNK        -0.1800 
     92 C           0.9887  -24.1423  -53.8764 C.2       16 UNK         0.5000 
     93 O           1.4185  -23.8592  -54.9952 O.2       16 UNK        -0.5000 
     94 N           0.9945  -23.2849  -52.8424 N.am      17 UNK        -0.5000 
     95 CA          1.3052  -21.8550  -52.9182 C.3       17 UNK         0.1400 
     96 CB          1.2458  -21.2629  -51.5009 C.3       17 UNK        -0.1800 
     97 C           0.3708  -21.0628  -53.8597 C.2       17 UNK         0.5000 
     98 O           0.7890  -20.0314  -54.3884 O.2       17 UNK        -0.5000 
     99 N          -0.8606  -21.5603  -54.0576 N.am      18 UNK        -0.5000 
    100 CA        -1.9296  -21.0778  -54.9389 C.3       18 UNK         0.1400 
    101 CB        -1.4911  -21.0742  -56.4150 C.3       18 UNK        -0.1800 
    102 C         -2.5377  -19.7246  -54.5307 C.2       18 UNK         0.5000 
    103 O         -3.7615  -19.6316  -54.4191 O.2       18 UNK        -0.5000 
    104 N         -1.6920  -18.7026  -54.3327 N.am      19 UNK        -0.5000 
    105 CA        -1.9758  -17.3566  -53.8044 C.3       19 UNK         0.1400 
    106 CB        -2.3255  -17.4669  -52.3067 C.3       19 UNK        -0.1800 
    107 C         -3.0494  -16.5373  -54.5608 C.2       19 UNK         0.5000 
    108 O         -3.4354  -15.4683  -54.0882 O.2       19 UNK        -0.5000 
    109 N         -3.5436  -17.0661  -55.6907 N.am      20 UNK        -0.5000 
    110 CA        -4.7858  -16.6930  -56.3760 C.3       20 UNK         0.1400 
    111 CB        -4.6559  -15.3021  -57.0316 C.3       20 UNK        -0.1800 
    112 C         -6.0282  -16.8214  -55.4595 C.2       20 UNK         0.5000 
    113 O         -6.9827  -16.0569  -55.6158 O.2       20 UNK        -0.5000 
    114 N         -5.9868  -17.7651  -54.5047 N.am      21 UNK        -0.5000 
    115 CA        -6.9613  -17.8748  -53.4180 C.3       21 UNK         0.1400 
    116 CB        -6.5624  -16.9183  -52.2797 C.3       21 UNK        -0.1800 
    117 C         -7.1497  -19.3030  -52.8775 C.2       21 UNK         0.5000 
    118 O         -8.2135  -19.5761  -52.3190 O.2       21 UNK        -0.5000 
    119 N         -6.1538  -20.1900  -53.0231 N.am      22 UNK        -0.5000 
    120 CA        -6.2042  -21.5636  -52.4815 C.3       22 UNK         0.1400 
    121 C         -7.0688  -22.5594  -53.3099 C.2       22 UNK         0.5000 
    122 N         -7.5301  -22.2085  -54.5042 N.am      22 UNK        -0.7600 
    123 O         -7.3316  -23.6701  -52.8569 O.2       22 UNK        -0.5000 
    124 C124       -4.8003  -22.1709  -52.2006 C.3       23 UNK        -0.0398 
    125 S125       -3.5785  -21.0460  -51.4451 S.3       23 UNK        -0.2404 
    126 C126       -4.3155  -20.6227  -49.8405 C.3       23 UNK        -0.0205 
    127 H127       -2.0594  -12.3550  -53.8489 H         1 UNK         0.0600 
    128 H128       -0.2961  -12.3169  -53.9676 H         1 UNK         0.0600 
    129 H129       -1.1967  -13.7077  -54.5819 H         1 UNK         0.0600 
    130 H130       -2.6578  -12.6655  -51.7205 H         1 UNK         0.3000 
    131 H131       -1.8190  -14.9349  -50.1950 H         1 UNK         0.0600 
    132 H132       -3.5414  -12.5083  -49.4902 H         1 UNK         0.0800 
    133 H133       -3.2121  -13.7675  -48.3443 H         1 UNK         0.0800 
    134 H134       -6.0738  -16.0279  -48.8367 H         1 UNK         0.0800 
    135 H135       -4.9395  -15.2349  -47.7812 H         1 UNK         0.0800 
    136 H136       -5.6554  -18.2538  -49.5652 H         1 UNK         0.1150 
    137 H137       -1.7858  -20.0128  -49.1075 H         1 UNK         0.1150 
    138 H138       -2.4014  -15.9081  -48.0585 H         1 UNK         0.1150 
    139 H139        0.1481  -17.9739  -49.1150 H         1 UNK         0.0800 
    140 H140       -0.2389  -16.7561  -47.9274 H         1 UNK         0.0800 
    141 H141        1.8501  -20.1385  -47.8160 H         1 UNK         0.0800 
    142 H142        0.4078  -20.3265  -48.7593 H         1 UNK         0.0800 
    143 H143        1.0575  -22.3932  -47.5563 H         1 UNK         0.0600 
    144 H144        1.0632  -20.7001  -45.1988 H         1 UNK         0.3000 
    145 H145        1.8963  -23.4175  -42.9940 H         1 UNK         0.0600 
    146 H146        3.4407  -21.5938  -42.3787 H         1 UNK         0.0600 
    147 H147        3.8717  -22.2138  -43.9653 H         1 UNK         0.0600 
    148 H148        3.0154  -20.6824  -43.8233 H         1 UNK         0.0600 
    149 H149        0.9485  -20.7347  -42.5145 H         1 UNK         0.3000 
    150 H150       -2.0049  -20.7669  -42.2299 H         1 UNK         0.0600 
    151 H151       -2.9171  -22.7425  -41.0887 H         1 UNK         0.0600 
    152 H152       -2.8947  -21.3892  -39.9712 H         1 UNK         0.0600 
    153 H153       -1.6783  -22.6603  -39.8458 H         1 UNK         0.0600 
    154 H154       -0.8280  -19.2786  -41.1525 H         1 UNK         0.3000 
    155 H155        0.9724  -19.0194  -38.2962 H         1 UNK         0.0600 
    156 H156        2.5558  -19.0439  -40.9235 H         1 UNK         0.0600 
    157 H157        3.0084  -19.8651  -39.4367 H         1 UNK         0.0600 
    158 H158        2.9722  -18.1094  -39.4891 H         1 UNK         0.0600 
    159 H159        0.7463  -17.3858  -40.7042 H         1 UNK         0.3000 
    160 H160       -2.4709  -16.0996  -39.9332 H         1 UNK         0.0600 
    161 H161       -1.3091  -13.9257  -40.1348 H         1 UNK         0.0600 
    162 H162        0.2560  -14.6983  -39.8894 H         1 UNK         0.0600 
    163 H163       -0.9248  -14.6564  -38.5842 H         1 UNK         0.0600 
    164 H164       -0.6741  -15.4926  -42.0424 H         1 UNK         0.3000 
    165 H165       -1.5221  -18.2269  -44.2137 H         1 UNK         0.0600 
    166 H166       -1.8583  -16.2507  -45.7150 H         1 UNK         0.0600 
    167 H167       -3.2302  -16.5053  -44.6463 H         1 UNK         0.0600 
    168 H168       -2.0815  -15.2169  -44.3063 H         1 UNK         0.0600 
    169 H169        0.3158  -16.0901  -44.5341 H         1 UNK         0.3000 
    170 H170        3.1556  -17.6832  -43.0815 H         1 UNK         0.0600 
    171 H171        4.0715  -17.2838  -45.3436 H         1 UNK         0.0600 
    172 H172        2.9777  -18.6584  -45.3768 H         1 UNK         0.0600 
    173 H173        2.4484  -17.1039  -46.0051 H         1 UNK         0.0600 
    174 H174        2.5807  -15.1944  -44.4858 H         1 UNK         0.3000 
    175 H175        2.1423  -13.2525  -41.5299 H         1 UNK         0.0600 
    176 H176        4.0011  -11.9718  -42.5495 H         1 UNK         0.0600 
    177 H177        4.6178  -13.4430  -41.8149 H         1 UNK         0.0600 
    178 H178        4.4369  -13.3484  -43.5626 H         1 UNK         0.0600 
    179 H179        2.1968  -12.5626  -44.3052 H         1 UNK         0.3000 
    180 H180       -1.2802  -13.0617  -44.9381 H         1 UNK         0.0600 
    181 H181        0.3180  -10.4796  -44.5528 H         1 UNK         0.0600 
    182 H182       -1.1524  -10.9010  -43.6824 H         1 UNK         0.0600 
    183 H183       -1.2095  -10.6473  -45.4190 H         1 UNK         0.0600 
    184 H184        0.4527  -11.8995  -46.6915 H         1 UNK         0.3000 
    185 H185        1.7090  -12.8579  -48.2848 H         1 UNK         0.0600 
    186 H186        2.0906  -15.9020  -48.1651 H         1 UNK         0.0600 
    187 H187        2.8383  -14.7967  -49.3144 H         1 UNK         0.0600 
    188 H188        3.2596  -14.7110  -47.6109 H         1 UNK         0.0600 
    189 H189        0.1662  -15.0814  -49.3542 H         1 UNK         0.3000 
    190 H190       -1.2709  -21.6661  -45.1352 H         1 UNK         0.3000 
    191 H191       -3.6496  -22.1912  -46.7101 H         1 UNK         0.0600 
    192 H192       -3.7070  -20.9396  -44.5304 H         1 UNK         0.0600 
    193 H193       -3.2377  -22.4147  -43.6823 H         1 UNK         0.0600 
    194 H194       -4.7714  -22.3376  -44.5310 H         1 UNK         0.0600 
    195 H195       -1.4141  -24.1374  -44.6852 H         1 UNK         0.3000 
    196 H196       -2.7087  -26.6763  -45.2298 H         1 UNK         0.0600 
    197 H197       -0.6540  -27.6039  -44.1567 H         1 UNK         0.0600 
    198 H198       -1.3762  -26.3373  -43.1751 H         1 UNK         0.0600 
    199 H199        0.0693  -25.9999  -44.1207 H         1 UNK         0.0600 
    200 H200        0.3202  -25.0737  -46.3774 H         1 UNK         0.3000 
    201 H201        0.6989  -26.9872  -48.5599 H         1 UNK         0.0600 
    202 H202        2.6304  -26.0840  -47.2835 H         1 UNK         0.0600 
    203 H203        2.2355  -24.4492  -47.8054 H         1 UNK         0.0600 
    204 H204        2.7332  -25.6541  -48.9841 H         1 UNK         0.0600 
    205 H205       -1.6075  -26.3642  -49.2104 H         1 UNK         0.3000 
    206 H206       -2.3384  -23.9695  -50.4142 H         1 UNK         0.0600 
    207 H207       -3.9350  -25.7292  -49.7627 H         1 UNK         0.0600 
    208 H208       -4.1558  -25.3647  -51.4667 H         1 UNK         0.0600 
    209 H209       -3.2969  -26.8234  -50.9912 H         1 UNK         0.0600 
    210 H210       -0.1301  -26.2335  -51.7109 H         1 UNK         0.3000 
    211 H211       -0.2669  -25.7573  -54.5054 H         1 UNK         0.0600 
    212 H212        2.1126  -26.4508  -52.6958 H         1 UNK         0.0600 
    213 H213        2.0926  -26.5976  -54.4492 H         1 UNK         0.0600 
    214 H214        1.0356  -27.6090  -53.4786 H         1 UNK         0.0600 
    215 H215        0.6802  -23.6222  -51.9380 H         1 UNK         0.3000 
    216 H216        2.3236  -21.7527  -53.2977 H         1 UNK         0.0600 
    217 H217        1.4889  -20.1995  -51.5073 H         1 UNK         0.0600 
    218 H218        1.9557  -21.7556  -50.8361 H         1 UNK         0.0600 
    219 H219        0.2510  -21.3709  -51.0652 H         1 UNK         0.0600 
    220 H220       -1.1061  -22.4013  -53.5446 H         1 UNK         0.3000 
    221 H221       -2.7284  -21.8148  -54.8449 H         1 UNK         0.0600 
    222 H222       -0.6956  -20.3537  -56.6065 H         1 UNK         0.0600 
    223 H223       -1.1314  -22.0573  -56.7190 H         1 UNK         0.0600 
    224 H224       -2.3265  -20.8176  -57.0675 H         1 UNK         0.0600 
    225 H225       -0.7058  -18.9195  -54.4591 H         1 UNK         0.3000 
    226 H226       -1.0474  -16.7906  -53.8902 H         1 UNK         0.0600 
    227 H227       -1.5352  -17.9717  -51.7512 H         1 UNK         0.0600 
    228 H228       -2.4608  -16.4848  -51.8546 H         1 UNK         0.0600 
    229 H229       -3.2499  -18.0228  -52.1489 H         1 UNK         0.0600 
    230 H230       -3.1536  -17.9549  -55.9693 H         1 UNK         0.3000 
    231 H231       -4.9241  -17.4228  -57.1747 H         1 UNK         0.0600 
    232 H232       -3.7677  -15.2442  -57.6605 H         1 UNK         0.0600 
    233 H233       -4.5933  -14.5069  -56.2883 H         1 UNK         0.0600 
    234 H234       -5.5163  -15.0876  -57.6664 H         1 UNK         0.0600 
    235 H235       -5.1749  -18.3744  -54.4591 H         1 UNK         0.3000 
    236 H236       -7.9410  -17.5693  -53.7916 H         1 UNK         0.0600 
    237 H237       -7.2499  -16.9936  -51.4364 H         1 UNK         0.0600 
    238 H238       -5.5605  -17.1370  -51.9093 H         1 UNK         0.0600 
    239 H239       -6.5710  -15.8801  -52.6118 H         1 UNK         0.0600 
    240 H240       -5.2842  -19.9314  -53.4817 H         1 UNK         0.3000 
    241 H241       -6.7101  -21.5050  -51.5168 H         1 UNK         0.0600 
    242 H242       -8.0931  -22.8573  -55.0316 H         1 UNK         0.3800 
    243 H243       -7.3209  -21.2993  -54.8840 H         1 UNK         0.3800 
    244 H244       -4.8927  -23.0472  -51.5579 H         1 UNK         0.0800 
    245 H245       -4.3583  -22.5285  -53.1316 H         1 UNK         0.0800 
    246 H246       -4.0759  -21.4039  -49.1179 H         1 UNK         0.0800 
    247 H247       -5.4014  -20.5852  -49.9159 H         1 UNK         0.0800 
@<TRIPOS>BOND
     1    1    2 1    
     2    1  127 1    
     3    1  128 1    
     4    1  129 1    
     5    2    3 2    
     6    2    4 am   BACKBONE|DICT|INTERRES
     7    4    5 1    
     8    4  130 1    
     9    5    6 1    
    10    5   65 1    
    11    5  131 1    
    12    6    7 1    
    13    6  132 1    
    14    6  133 1    
    15    7    8 1    
    16    8    9 1    
    17    8  134 1    
    18    8  135 1    
    19    9   10 ar   
    20    9   14 ar   
    21   10   11 ar   
    22   10  136 1    
    23   11   12 ar   
    24   11  126 1    
    25   12   13 ar   
    26   12  137 1    
    27   13   14 ar   
    28   13   15 1    
    29   14  138 1    
    30   15   16 1    
    31   15  139 1    
    32   15  140 1    
    33   16   17 1    
    34   17   18 1    
    35   17  141 1    
    36   17  142 1    
    37   18   19 1    
    38   18   67 1    
    39   18  143 1    
    40   19   20 am   BACKBONE|DICT|INTERRES
    41   19  144 1    
    42   20   21 2    
    43   20   22 1    
    44   22   23 1    
    45   22   24 1    
    46   22  145 1    
    47   23  146 1    
    48   23  147 1    
    49   23  148 1    
    50   24   25 am   BACKBONE|DICT|INTERRES
    51   24  149 1    
    52   25   26 2    
    53   25   27 1    
    54   27   28 1    
    55   27   29 1    
    56   27  150 1    
    57   28  151 1    
    58   28  152 1    
    59   28  153 1    
    60   29   30 am   BACKBONE|DICT|INTERRES
    61   29  154 1    
    62   30   31 2    
    63   30   32 1    
    64   32   33 1    
    65   32   34 1    
    66   32  155 1    
    67   33  156 1    
    68   33  157 1    
    69   33  158 1    
    70   34   35 am   BACKBONE|DICT|INTERRES
    71   34  159 1    
    72   35   36 2    
    73   35   37 1    
    74   37   38 1    
    75   37   39 1    
    76   37  160 1    
    77   38  161 1    
    78   38  162 1    
    79   38  163 1    
    80   39   40 am   BACKBONE|DICT|INTERRES
    81   39  164 1    
    82   40   41 2    
    83   40   42 1    
    84   42   43 1    
    85   42   44 1    
    86   42  165 1    
    87   43  166 1    
    88   43  167 1    
    89   43  168 1    
    90   44   45 am   BACKBONE|DICT|INTERRES
    91   44  169 1    
    92   45   46 2    
    93   45   47 1    
    94   47   48 1    
    95   47   49 1    
    96   47  170 1    
    97   48  171 1    
    98   48  172 1    
    99   48  173 1    
   100   49   50 am   BACKBONE|DICT|INTERRES
   101   49  174 1    
   102   50   51 2    
   103   50   52 1    
   104   52   53 1    
   105   52   54 1    
   106   52  175 1    
   107   53  176 1    
   108   53  177 1    
   109   53  178 1    
   110   54   55 am   BACKBONE|DICT|INTERRES
   111   54  179 1    
   112   55   56 2    
   113   55   57 1    
   114   57   58 1    
   115   57   59 1    
   116   57  180 1    
   117   58  181 1    
   118   58  182 1    
   119   58  183 1    
   120   59   60 am   BACKBONE|DICT|INTERRES
   121   59  184 1    
   122   60   61 2    
   123   60   62 1    
   124   62   63 1    
   125   62   64 1    
   126   62  185 1    
   127   63  186 1    
   128   63  187 1    
   129   63  188 1    
   130   64   65 am   BACKBONE|DICT|INTERRES
   131   64  189 1    
   132   65   66 2    
   133   67   68 2    
   134   67   69 am   BACKBONE|DICT|INTERRES
   135   69   70 1    
   136   69  190 1    
   137   70   71 1    
   138   70   72 1    
   139   70  191 1    
   140   71  192 1    
   141   71  193 1    
   142   71  194 1    
   143   72   73 2    
   144   72   74 am   BACKBONE|DICT|INTERRES
   145   74   75 1    
   146   74  195 1    
   147   75   76 1    
   148   75   77 1    
   149   75  196 1    
   150   76  197 1    
   151   76  198 1    
   152   76  199 1    
   153   77   78 2    
   154   77   79 am   BACKBONE|DICT|INTERRES
   155   79   80 1    
   156   79  200 1    
   157   80   81 1    
   158   80   82 1    
   159   80  201 1    
   160   81  202 1    
   161   81  203 1    
   162   81  204 1    
   163   82   83 2    
   164   82   84 am   BACKBONE|DICT|INTERRES
   165   84   85 1    
   166   84  205 1    
   167   85   86 1    
   168   85   87 1    
   169   85  206 1    
   170   86  207 1    
   171   86  208 1    
   172   86  209 1    
   173   87   88 2    
   174   87   89 am   BACKBONE|DICT|INTERRES
   175   89   90 1    
   176   89  210 1    
   177   90   91 1    
   178   90   92 1    
   179   90  211 1    
   180   91  212 1    
   181   91  213 1    
   182   91  214 1    
   183   92   93 2    
   184   92   94 am   BACKBONE|DICT|INTERRES
   185   94   95 1    
   186   94  215 1    
   187   95   96 1    
   188   95   97 1    
   189   95  216 1    
   190   96  217 1    
   191   96  218 1    
   192   96  219 1    
   193   97   98 2    
   194   97   99 am   BACKBONE|DICT|INTERRES
   195   99  100 1    
   196   99  220 1    
   197  100  101 1    
   198  100  102 1    
   199  100  221 1    
   200  101  222 1    
   201  101  223 1    
   202  101  224 1    
   203  102  103 2    
   204  102  104 am   BACKBONE|DICT|INTERRES
   205  104  105 1    
   206  104  225 1    
   207  105  106 1    
   208  105  107 1    
   209  105  226 1    
   210  106  227 1    
   211  106  228 1    
   212  106  229 1    
   213  107  108 2    
   214  107  109 am   BACKBONE|DICT|INTERRES
   215  109  110 1    
   216  109  230 1    
   217  110  111 1    
   218  110  112 1    
   219  110  231 1    
   220  111  232 1    
   221  111  233 1    
   222  111  234 1    
   223  112  113 2    
   224  112  114 am   BACKBONE|DICT|INTERRES
   225  114  115 1    
   226  114  235 1    
   227  115  116 1    
   228  115  117 1    
   229  115  236 1    
   230  116  237 1    
   231  116  238 1    
   232  116  239 1    
   233  117  118 2    
   234  117  119 am   BACKBONE|DICT|INTERRES
   235  119  120 1    
   236  119  240 1    
   237  120  121 1    
   238  120  124 1    
   239  120  241 1    
   240  121  122 am   BACKBONE|DICT|INTERRES
   241  121  123 2    
   242  122  242 1    
   243  122  243 1    
   244  124  125 1    
   245  124  244 1    
   246  124  245 1    
   247  125  126 1    
   248  126  246 1    
   249  126  247 1    
@<TRIPOS>SUBSTRUCTURE
     1 UNK         1 GROUP             0       ****    0 ROOT    
