@<TRIPOS>MOLECULE
3R540
247   249    1
SMALL
USER_CHARGES


@<TRIPOS>ATOM
      1 CA          5.1502  -19.3143  -43.0576 C.3       0 UNK        -0.1800 
      2 C           4.6292  -17.9960  -43.6124 C.2       0 UNK         0.5000 
      3 O           5.3860  -17.2599  -44.2444 O.2       0 UNK        -0.5000 
      4 N           3.3411  -17.7097  -43.3778 N.am      1 UNK        -0.5000 
      5 CA          2.6092  -16.5177  -43.8241 C.3       1 UNK         0.1400 
      6 C6          2.4695  -16.4042  -45.3646 C.3       23 UNK        -0.0398 
      7 S7          1.5462  -17.7772  -46.1286 S.3       23 UNK        -0.2404 
      8 C8          2.3691  -17.8499  -47.7517 C.3       23 UNK        -0.0205 
      9 C9          1.3737  -18.0420  -48.8827 C.ar      23 UNK        -0.0193 
     10 C10         0.7525  -16.9256  -49.4461 C.ar      23 UNK        -0.1150 
     11 C11        -0.1046  -17.0658  -50.5381 C.ar      23 UNK        -0.0193 
     12 C12        -0.3588  -18.3377  -51.0558 C.ar      23 UNK        -0.1150 
     13 C13         0.2487  -19.4650  -50.4972 C.ar      23 UNK        -0.0193 
     14 C14         1.1127  -19.3123  -49.4066 C.ar      23 UNK        -0.1150 
     15 C15        -0.0022  -20.8410  -51.0994 C.3       23 UNK        -0.0205 
     16 S16        -1.7341  -21.3840  -50.9295 S.3       23 UNK        -0.2404 
     17 C17        -1.9331  -21.3826  -49.1222 C.3       23 UNK        -0.0398 
     18 CA         -1.1471  -22.5158  -48.4027 C.3       11 UNK         0.1400 
     19 N          -0.2101  -21.9898  -47.4067 N.am      11 UNK        -0.5000 
     20 C           0.7091  -22.7088  -46.7457 C.2       10 UNK         0.5000 
     21 O           0.9350  -23.8970  -46.9645 O.2       10 UNK        -0.5000 
     22 CA          1.4600  -21.9908  -45.6083 C.3       10 UNK         0.1400 
     23 CB          2.7842  -21.4017  -46.1100 C.3       10 UNK        -0.1800 
     24 N           0.6493  -20.9349  -44.9980 N.am      10 UNK        -0.5000 
     25 C          -0.4232  -21.1765  -44.2301 C.2       9 UNK         0.5000 
     26 O          -0.7965  -22.3077  -43.9172 O.2       9 UNK        -0.5000 
     27 CA         -1.2452  -19.9508  -43.7970 C.3       9 UNK         0.1400 
     28 CB         -0.5741  -19.2345  -42.6154 C.3       9 UNK        -0.1800 
     29 N          -1.4474  -18.9941  -44.8871 N.am      9 UNK        -0.5000 
     30 C          -2.1616  -19.2218  -45.9985 C.2       8 UNK         0.5000 
     31 O          -2.6987  -20.3039  -46.2374 O.2       8 UNK        -0.5000 
     32 CA         -2.2530  -18.0748  -47.0333 C.3       8 UNK         0.1400 
     33 CB         -3.6227  -18.0299  -47.7408 C.3       8 UNK        -0.1800 
     34 N          -1.8764  -16.7610  -46.4964 N.am      8 UNK        -0.5000 
     35 C          -2.5042  -16.0504  -45.5463 C.2       7 UNK         0.5000 
     36 O          -3.5762  -16.3691  -45.0328 O.2       7 UNK        -0.5000 
     37 CA         -1.7571  -14.8089  -45.0228 C.3       7 UNK         0.1400 
     38 CB         -0.9412  -15.2048  -43.7808 C.3       7 UNK        -0.1800 
     39 N          -0.8533  -14.2176  -46.0133 N.am      7 UNK        -0.5000 
     40 C          -1.2545  -13.5012  -47.0730 C.2       6 UNK         0.5000 
     41 O          -2.4389  -13.2832  -47.3299 O.2       6 UNK        -0.5000 
     42 CA         -0.1552  -12.9275  -47.9877 C.3       6 UNK         0.1400 
     43 CB         -0.4881  -11.5055  -48.4733 C.3       6 UNK        -0.1800 
     44 N           1.1527  -12.9068  -47.3264 N.am      6 UNK        -0.5000 
     45 C           2.3050  -13.3004  -47.8882 C.2       5 UNK         0.5000 
     46 O           2.3743  -13.7983  -49.0120 O.2       5 UNK        -0.5000 
     47 CA          3.5959  -13.1216  -47.0559 C.3       5 UNK         0.1400 
     48 CB          4.8535  -12.9368  -47.9313 C.3       5 UNK        -0.1800 
     49 N           3.5008  -12.0693  -46.0365 N.am      5 UNK        -0.5000 
     50 C           3.3123  -10.7582  -46.2542 C.2       4 UNK         0.5000 
     51 O           3.2467  -10.2586  -47.3787 O.2       4 UNK        -0.5000 
     52 CA          3.1627   -9.8534  -45.0109 C.3       4 UNK         0.1400 
     53 CB          2.3684   -8.5668  -45.3195 C.3       4 UNK        -0.1800 
     54 N           2.5950  -10.5071  -43.8244 N.am      4 UNK        -0.5000 
     55 C           1.4168  -11.1366  -43.7147 C.2       3 UNK         0.5000 
     56 O           0.7044  -11.4439  -44.6735 O.2       3 UNK        -0.5000 
     57 CA          0.9962  -11.5039  -42.2771 C.3       3 UNK         0.1400 
     58 CB         -0.5192  -11.7359  -42.1403 C.3       3 UNK        -0.1800 
     59 N           1.7248  -12.6824  -41.8073 N.am      3 UNK        -0.5000 
     60 C           2.9933  -12.6701  -41.3716 C.2       2 UNK         0.5000 
     61 O           3.6544  -11.6385  -41.2403 O.2       2 UNK        -0.5000 
     62 CA          3.6495  -14.0322  -41.0598 C.3       2 UNK         0.1400 
     63 CB          3.4983  -14.3713  -39.5692 C.3       2 UNK        -0.1800 
     64 N           3.1450  -15.1549  -41.8597 N.am      2 UNK        -0.5000 
     65 C           3.1729  -15.2225  -43.1985 C.2       1 UNK         0.5000 
     66 O           3.6026  -14.3174  -43.9167 O.2       1 UNK        -0.5000 
     67 C          -2.0962  -23.5468  -47.7657 C.2       11 UNK         0.5000 
     68 O          -2.2567  -24.6404  -48.3049 O.2       11 UNK        -0.5000 
     69 N          -2.6754  -23.1956  -46.6096 N.am      12 UNK        -0.5000 
     70 CA         -3.5360  -24.0694  -45.8124 C.3       12 UNK         0.1400 
     71 CB         -4.1654  -23.2657  -44.6655 C.3       12 UNK        -0.1800 
     72 C          -2.7990  -25.3139  -45.2875 C.2       12 UNK         0.5000 
     73 O          -3.3544  -26.4109  -45.3470 O.2       12 UNK        -0.5000 
     74 N          -1.5501  -25.1328  -44.8345 N.am      13 UNK        -0.5000 
     75 CA         -0.6687  -26.2125  -44.3825 C.3       13 UNK         0.1400 
     76 CB          0.5865  -25.6110  -43.7333 C.3       13 UNK        -0.1800 
     77 C          -0.2847  -27.1929  -45.5096 C.2       13 UNK         0.5000 
     78 O          -0.2580  -28.4024  -45.2801 O.2       13 UNK        -0.5000 
     79 N          -0.0168  -26.6583  -46.7087 N.am      14 UNK        -0.5000 
     80 CA          0.3235  -27.4225  -47.9118 C.3       14 UNK         0.1400 
     81 CB          1.0522  -26.4892  -48.8928 C.3       14 UNK        -0.1800 
     82 C          -0.8929  -28.0669  -48.6077 C.2       14 UNK         0.5000 
     83 O          -0.6990  -28.8907  -49.5022 O.2       14 UNK        -0.5000 
     84 N          -2.1099  -27.6531  -48.2227 N.am      15 UNK        -0.5000 
     85 CA         -3.4033  -27.9569  -48.8509 C.3       15 UNK         0.1400 
     86 CB         -3.7111  -29.4682  -48.8250 C.3       15 UNK        -0.1800 
     87 C          -3.5568  -27.3318  -50.2573 C.2       15 UNK         0.5000 
     88 O          -4.3937  -27.7715  -51.0468 O.2       15 UNK        -0.5000 
     89 N          -2.7753  -26.2783  -50.5258 N.am      16 UNK        -0.5000 
     90 CA         -2.8272  -25.4443  -51.7255 C.3       16 UNK         0.1400 
     91 CB         -1.4334  -24.8497  -51.9718 C.3       16 UNK        -0.1800 
     92 C          -3.8982  -24.3399  -51.6213 C.2       16 UNK         0.5000 
     93 O          -4.2032  -23.6917  -52.6233 O.2       16 UNK        -0.5000 
     94 N          -4.4996  -24.1724  -50.4329 N.am      17 UNK        -0.5000 
     95 CA         -5.6332  -23.2820  -50.1586 C.3       17 UNK         0.1400 
     96 CB         -5.8915  -23.2397  -48.6459 C.3       17 UNK        -0.1800 
     97 C          -6.9268  -23.6372  -50.9263 C.2       17 UNK         0.5000 
     98 O          -7.8570  -22.8322  -50.9462 O.2       17 UNK        -0.5000 
     99 N          -6.9596  -24.8105  -51.5747 N.am      18 UNK        -0.5000 
    100 CA        -7.9562  -25.1756  -52.5818 C.3       18 UNK         0.1400 
    101 CB        -7.7800  -26.6579  -52.9439 C.3       18 UNK        -0.1800 
    102 C         -7.8695  -24.2925  -53.8461 C.2       18 UNK         0.5000 
    103 O         -8.8964  -24.0499  -54.4812 O.2       18 UNK        -0.5000 
    104 N         -6.6590  -23.8150  -54.1728 N.am      19 UNK        -0.5000 
    105 CA        -6.4073  -22.8223  -55.2140 C.3       19 UNK         0.1400 
    106 CB        -5.0819  -23.1389  -55.9272 C.3       19 UNK        -0.1800 
    107 C         -6.3893  -21.4107  -54.6041 C.2       19 UNK         0.5000 
    108 O         -7.1296  -20.5503  -55.0796 O.2       19 UNK        -0.5000 
    109 N         -5.5688  -21.2220  -53.5543 N.am      20 UNK        -0.5000 
    110 CA        -5.3694  -19.9921  -52.7736 C.3       20 UNK         0.1400 
    111 CB        -6.5942  -19.7040  -51.8818 C.3       20 UNK        -0.1800 
    112 C         -5.0073  -18.7727  -53.6462 C.2       20 UNK         0.5000 
    113 O         -5.8729  -17.9468  -53.9442 O.2       20 UNK        -0.5000 
    114 N         -3.7276  -18.6737  -54.0324 N.am      21 UNK        -0.5000 
    115 CA        -3.1806  -17.6442  -54.9304 C.3       21 UNK         0.1400 
    116 CB        -1.6798  -17.9077  -55.1292 C.3       21 UNK        -0.1800 
    117 C         -3.4157  -16.1773  -54.4988 C.2       21 UNK         0.5000 
    118 O         -3.4289  -15.2936  -55.3567 O.2       21 UNK        -0.5000 
    119 N         -3.6108  -15.9518  -53.1956 N.am      22 UNK        -0.5000 
    120 CA        -3.9808  -14.6676  -52.5763 C.3       22 UNK         0.1400 
    121 C         -5.3964  -14.6868  -51.9245 C.2       22 UNK         0.5000 
    122 N         -6.2371  -15.6831  -52.1790 N.am      22 UNK        -0.7600 
    123 O         -5.7597  -13.7665  -51.1971 O.2       22 UNK        -0.5000 
    124 C124       -2.8732  -14.1442  -51.6191 C.3       23 UNK        -0.0398 
    125 S125       -2.2884  -15.3810  -50.4075 S.3       23 UNK        -0.2404 
    126 C126       -0.7150  -15.8396  -51.1884 C.3       23 UNK        -0.0205 
    127 H127        5.9577  -19.1304  -42.3489 H         1 UNK         0.0600 
    128 H128        5.5389  -19.9330  -43.8665 H         1 UNK         0.0600 
    129 H129        4.3693  -19.8776  -42.5461 H         1 UNK         0.0600 
    130 H130        2.7991  -18.3675  -42.8368 H         1 UNK         0.3000 
    131 H131        1.6100  -16.6286  -43.4091 H         1 UNK         0.0600 
    132 H132        3.4589  -16.3328  -45.8178 H         1 UNK         0.0800 
    133 H133        1.9428  -15.4884  -45.6324 H         1 UNK         0.0800 
    134 H134        3.1156  -18.6439  -47.7522 H         1 UNK         0.0800 
    135 H135        2.9228  -16.9287  -47.9395 H         1 UNK         0.0800 
    136 H136        0.9578  -15.9417  -49.0517 H         1 UNK         0.1150 
    137 H137       -1.0203  -18.4526  -51.9020 H         1 UNK         0.1150 
    138 H138        1.6013  -20.1783  -48.9845 H         1 UNK         0.1150 
    139 H139        0.6557  -21.5863  -50.6505 H         1 UNK         0.0800 
    140 H140        0.2520  -20.8136  -52.1598 H         1 UNK         0.0800 
    141 H141       -3.0045  -21.4215  -48.9153 H         1 UNK         0.0800 
    142 H142       -1.6238  -20.4034  -48.7648 H         1 UNK         0.0800 
    143 H143       -0.5444  -23.0600  -49.1317 H         1 UNK         0.0600 
    144 H144       -0.3488  -21.0337  -47.1209 H         1 UNK         0.3000 
    145 H145        1.6921  -22.7304  -44.8396 H         1 UNK         0.0600 
    146 H146        3.4436  -22.1882  -46.4788 H         1 UNK         0.0600 
    147 H147        3.3138  -20.8774  -45.3143 H         1 UNK         0.0600 
    148 H148        2.6245  -20.7018  -46.9268 H         1 UNK         0.0600 
    149 H149        0.8931  -19.9792  -45.2206 H         1 UNK         0.3000 
    150 H150       -2.2260  -20.3052  -43.4729 H         1 UNK         0.0600 
    151 H151        0.4030  -18.8349  -42.8870 H         1 UNK         0.0600 
    152 H152       -0.4286  -19.9174  -41.7773 H         1 UNK         0.0600 
    153 H153       -1.1872  -18.4075  -42.2564 H         1 UNK         0.0600 
    154 H154       -1.0205  -18.0878  -44.7815 H         1 UNK         0.3000 
    155 H155       -1.5033  -18.2958  -47.7932 H         1 UNK         0.0600 
    156 H156       -3.6728  -17.2076  -48.4537 H         1 UNK         0.0600 
    157 H157       -4.4421  -17.9091  -47.0321 H         1 UNK         0.0600 
    158 H158       -3.8077  -18.9495  -48.2967 H         1 UNK         0.0600 
    159 H159       -1.0046  -16.3911  -46.8468 H         1 UNK         0.3000 
    160 H160       -2.4908  -14.0529  -44.7343 H         1 UNK         0.0600 
    161 H161       -0.4748  -16.1798  -43.9074 H         1 UNK         0.0600 
    162 H162       -1.5855  -15.2714  -42.9034 H         1 UNK         0.0600 
    163 H163       -0.1516  -14.4887  -43.5593 H         1 UNK         0.0600 
    164 H164        0.1363  -14.3245  -45.8606 H         1 UNK         0.3000 
    165 H165       -0.1256  -13.5843  -48.8590 H         1 UNK         0.0600 
    166 H166       -1.4300  -11.4846  -49.0228 H         1 UNK         0.0600 
    167 H167       -0.5743  -10.8100  -47.6375 H         1 UNK         0.0600 
    168 H168        0.2848  -11.1283  -49.1432 H         1 UNK         0.0600 
    169 H169        1.1750  -12.4595  -46.4140 H         1 UNK         0.3000 
    170 H170        3.7310  -14.0548  -46.5133 H         1 UNK         0.0600 
    171 H171        5.7460  -12.8127  -47.3179 H         1 UNK         0.0600 
    172 H172        4.7713  -12.0690  -48.5859 H         1 UNK         0.0600 
    173 H173        5.0184  -13.8078  -48.5666 H         1 UNK         0.0600 
    174 H174        3.5312  -12.3997  -45.0787 H         1 UNK         0.3000 
    175 H175        4.1760   -9.5570  -44.7367 H         1 UNK         0.0600 
    176 H176        1.3550   -8.7917  -45.6545 H         1 UNK         0.0600 
    177 H177        2.8512   -7.9816  -46.1031 H         1 UNK         0.0600 
    178 H178        2.2965   -7.9265  -44.4403 H         1 UNK         0.0600 
    179 H179        3.1412  -10.4142  -42.9753 H         1 UNK         0.3000 
    180 H180        1.2452  -10.6577  -41.6327 H         1 UNK         0.0600 
    181 H181       -0.8826  -12.5228  -42.7977 H         1 UNK         0.0600 
    182 H182       -1.0691  -10.8292  -42.3949 H         1 UNK         0.0600 
    183 H183       -0.7881  -12.0006  -41.1177 H         1 UNK         0.0600 
    184 H184        1.2577  -13.5715  -41.8961 H         1 UNK         0.3000 
    185 H185        4.7146  -13.9317  -41.2786 H         1 UNK         0.0600 
    186 H186        3.8890  -13.5676  -38.9434 H         1 UNK         0.0600 
    187 H187        2.4534  -14.5222  -39.2950 H         1 UNK         0.0600 
    188 H188        4.0484  -15.2767  -39.3119 H         1 UNK         0.0600 
    189 H189        2.7907  -15.9462  -41.3421 H         1 UNK         0.3000 
    190 H190       -2.5351  -22.2518  -46.2609 H         1 UNK         0.3000 
    191 H191       -4.3422  -24.4228  -46.4567 H         1 UNK         0.0600 
    192 H192       -4.7414  -22.4224  -45.0472 H         1 UNK         0.0600 
    193 H193       -4.8447  -23.8870  -44.0807 H         1 UNK         0.0600 
    194 H194       -3.4110  -22.8727  -43.9840 H         1 UNK         0.0600 
    195 H195       -1.1892  -24.1870  -44.7734 H         1 UNK         0.3000 
    196 H196       -1.2052  -26.7791  -43.6185 H         1 UNK         0.0600 
    197 H197        1.2208  -26.3935  -43.3152 H         1 UNK         0.0600 
    198 H198        0.3261  -24.9328  -42.9204 H         1 UNK         0.0600 
    199 H199        1.1860  -25.0561  -44.4546 H         1 UNK         0.0600 
    200 H200        0.0089  -25.6469  -46.7986 H         1 UNK         0.3000 
    201 H201        1.0071  -28.2275  -47.6345 H         1 UNK         0.0600 
    202 H202        1.3513  -27.0211  -49.7968 H         1 UNK         0.0600 
    203 H203        1.9571  -26.0772  -48.4460 H         1 UNK         0.0600 
    204 H204        0.4194  -25.6543  -49.1969 H         1 UNK         0.0600 
    205 H205       -2.1432  -26.9555  -47.4905 H         1 UNK         0.3000 
    206 H206       -4.1508  -27.4646  -48.2273 H         1 UNK         0.0600 
    207 H207       -3.5798  -29.8801  -47.8244 H         1 UNK         0.0600 
    208 H208       -4.7430  -29.6601  -49.1209 H         1 UNK         0.0600 
    209 H209       -3.0704  -30.0275  -49.5068 H         1 UNK         0.0600 
    210 H210       -2.1988  -25.9263  -49.7680 H         1 UNK         0.3000 
    211 H211       -3.0882  -26.0657  -52.5844 H         1 UNK         0.0600 
    212 H212       -0.7045  -25.6342  -52.1757 H         1 UNK         0.0600 
    213 H213       -1.4360  -24.1762  -52.8299 H         1 UNK         0.0600 
    214 H214       -1.0791  -24.2860  -51.1099 H         1 UNK         0.0600 
    215 H215       -4.1536  -24.7175  -49.6556 H         1 UNK         0.3000 
    216 H216       -5.3412  -22.2804  -50.4780 H         1 UNK         0.0600 
    217 H217       -6.0754  -24.2352  -48.2406 H         1 UNK         0.0600 
    218 H218       -6.7603  -22.6236  -48.4102 H         1 UNK         0.0600 
    219 H219       -5.0454  -22.8035  -48.1178 H         1 UNK         0.0600 
    220 H220       -6.1715  -25.4332  -51.4745 H         1 UNK         0.3000 
    221 H221       -8.9486  -25.0415  -52.1464 H         1 UNK         0.0600 
    222 H222       -6.7933  -26.8553  -53.3652 H         1 UNK         0.0600 
    223 H223       -7.9034  -27.2954  -52.0681 H         1 UNK         0.0600 
    224 H224       -8.5212  -26.9708  -53.6805 H         1 UNK         0.0600 
    225 H225       -5.8699  -24.0302  -53.5729 H         1 UNK         0.3000 
    226 H226       -7.2014  -22.8585  -55.9630 H         1 UNK         0.0600 
    227 H227       -5.1149  -24.1229  -56.3949 H         1 UNK         0.0600 
    228 H228       -4.8817  -22.4113  -56.7147 H         1 UNK         0.0600 
    229 H229       -4.2319  -23.1238  -55.2447 H         1 UNK         0.0600 
    230 H230       -4.9969  -22.0114  -53.2677 H         1 UNK         0.3000 
    231 H231       -4.5221  -20.1755  -52.1108 H         1 UNK         0.0600 
    232 H232       -7.5112  -19.6110  -52.4644 H         1 UNK         0.0600 
    233 H233       -6.4637  -18.7738  -51.3271 H         1 UNK         0.0600 
    234 H234       -6.7449  -20.4899  -51.1458 H         1 UNK         0.0600 
    235 H235       -3.0840  -19.3977  -53.7474 H         1 UNK         0.3000 
    236 H236       -3.6759  -17.7708  -55.8951 H         1 UNK         0.0600 
    237 H237       -1.1272  -17.8177  -54.1940 H         1 UNK         0.0600 
    238 H238       -1.5020  -18.9053  -55.5312 H         1 UNK         0.0600 
    239 H239       -1.2477  -17.1950  -55.8331 H         1 UNK         0.0600 
    240 H240       -3.5832  -16.7377  -52.5633 H         1 UNK         0.3000 
    241 H241       -4.0802  -13.9178  -53.3627 H         1 UNK         0.0600 
    242 H242       -6.0061  -16.4196  -52.8403 H         1 UNK         0.3800 
    243 H243       -7.1521  -15.6678  -51.7582 H         1 UNK         0.3800 
    244 H244       -2.0258  -13.8019  -52.2142 H         1 UNK         0.0800 
    245 H245       -3.2062  -13.2592  -51.0747 H         1 UNK         0.0800 
    246 H246       -0.8721  -16.0280  -52.2514 H         1 UNK         0.0800 
    247 H247       -0.0216  -14.9991  -51.1254 H         1 UNK         0.0800 
@<TRIPOS>BOND
     1    1    2 1    
     2    1  127 1    
     3    1  128 1    
     4    1  129 1    
     5    2    3 2    
     6    2    4 am   BACKBONE|DICT|INTERRES
     7    4    5 1    
     8    4  130 1    
     9    5    6 1    
    10    5   65 1    
    11    5  131 1    
    12    6    7 1    
    13    6  132 1    
    14    6  133 1    
    15    7    8 1    
    16    8    9 1    
    17    8  134 1    
    18    8  135 1    
    19    9   10 ar   
    20    9   14 ar   
    21   10   11 ar   
    22   10  136 1    
    23   11   12 ar   
    24   11  126 1    
    25   12   13 ar   
    26   12  137 1    
    27   13   14 ar   
    28   13   15 1    
    29   14  138 1    
    30   15   16 1    
    31   15  139 1    
    32   15  140 1    
    33   16   17 1    
    34   17   18 1    
    35   17  141 1    
    36   17  142 1    
    37   18   19 1    
    38   18   67 1    
    39   18  143 1    
    40   19   20 am   BACKBONE|DICT|INTERRES
    41   19  144 1    
    42   20   21 2    
    43   20   22 1    
    44   22   23 1    
    45   22   24 1    
    46   22  145 1    
    47   23  146 1    
    48   23  147 1    
    49   23  148 1    
    50   24   25 am   BACKBONE|DICT|INTERRES
    51   24  149 1    
    52   25   26 2    
    53   25   27 1    
    54   27   28 1    
    55   27   29 1    
    56   27  150 1    
    57   28  151 1    
    58   28  152 1    
    59   28  153 1    
    60   29   30 am   BACKBONE|DICT|INTERRES
    61   29  154 1    
    62   30   31 2    
    63   30   32 1    
    64   32   33 1    
    65   32   34 1    
    66   32  155 1    
    67   33  156 1    
    68   33  157 1    
    69   33  158 1    
    70   34   35 am   BACKBONE|DICT|INTERRES
    71   34  159 1    
    72   35   36 2    
    73   35   37 1    
    74   37   38 1    
    75   37   39 1    
    76   37  160 1    
    77   38  161 1    
    78   38  162 1    
    79   38  163 1    
    80   39   40 am   BACKBONE|DICT|INTERRES
    81   39  164 1    
    82   40   41 2    
    83   40   42 1    
    84   42   43 1    
    85   42   44 1    
    86   42  165 1    
    87   43  166 1    
    88   43  167 1    
    89   43  168 1    
    90   44   45 am   BACKBONE|DICT|INTERRES
    91   44  169 1    
    92   45   46 2    
    93   45   47 1    
    94   47   48 1    
    95   47   49 1    
    96   47  170 1    
    97   48  171 1    
    98   48  172 1    
    99   48  173 1    
   100   49   50 am   BACKBONE|DICT|INTERRES
   101   49  174 1    
   102   50   51 2    
   103   50   52 1    
   104   52   53 1    
   105   52   54 1    
   106   52  175 1    
   107   53  176 1    
   108   53  177 1    
   109   53  178 1    
   110   54   55 am   BACKBONE|DICT|INTERRES
   111   54  179 1    
   112   55   56 2    
   113   55   57 1    
   114   57   58 1    
   115   57   59 1    
   116   57  180 1    
   117   58  181 1    
   118   58  182 1    
   119   58  183 1    
   120   59   60 am   BACKBONE|DICT|INTERRES
   121   59  184 1    
   122   60   61 2    
   123   60   62 1    
   124   62   63 1    
   125   62   64 1    
   126   62  185 1    
   127   63  186 1    
   128   63  187 1    
   129   63  188 1    
   130   64   65 am   BACKBONE|DICT|INTERRES
   131   64  189 1    
   132   65   66 2    
   133   67   68 2    
   134   67   69 am   BACKBONE|DICT|INTERRES
   135   69   70 1    
   136   69  190 1    
   137   70   71 1    
   138   70   72 1    
   139   70  191 1    
   140   71  192 1    
   141   71  193 1    
   142   71  194 1    
   143   72   73 2    
   144   72   74 am   BACKBONE|DICT|INTERRES
   145   74   75 1    
   146   74  195 1    
   147   75   76 1    
   148   75   77 1    
   149   75  196 1    
   150   76  197 1    
   151   76  198 1    
   152   76  199 1    
   153   77   78 2    
   154   77   79 am   BACKBONE|DICT|INTERRES
   155   79   80 1    
   156   79  200 1    
   157   80   81 1    
   158   80   82 1    
   159   80  201 1    
   160   81  202 1    
   161   81  203 1    
   162   81  204 1    
   163   82   83 2    
   164   82   84 am   BACKBONE|DICT|INTERRES
   165   84   85 1    
   166   84  205 1    
   167   85   86 1    
   168   85   87 1    
   169   85  206 1    
   170   86  207 1    
   171   86  208 1    
   172   86  209 1    
   173   87   88 2    
   174   87   89 am   BACKBONE|DICT|INTERRES
   175   89   90 1    
   176   89  210 1    
   177   90   91 1    
   178   90   92 1    
   179   90  211 1    
   180   91  212 1    
   181   91  213 1    
   182   91  214 1    
   183   92   93 2    
   184   92   94 am   BACKBONE|DICT|INTERRES
   185   94   95 1    
   186   94  215 1    
   187   95   96 1    
   188   95   97 1    
   189   95  216 1    
   190   96  217 1    
   191   96  218 1    
   192   96  219 1    
   193   97   98 2    
   194   97   99 am   BACKBONE|DICT|INTERRES
   195   99  100 1    
   196   99  220 1    
   197  100  101 1    
   198  100  102 1    
   199  100  221 1    
   200  101  222 1    
   201  101  223 1    
   202  101  224 1    
   203  102  103 2    
   204  102  104 am   BACKBONE|DICT|INTERRES
   205  104  105 1    
   206  104  225 1    
   207  105  106 1    
   208  105  107 1    
   209  105  226 1    
   210  106  227 1    
   211  106  228 1    
   212  106  229 1    
   213  107  108 2    
   214  107  109 am   BACKBONE|DICT|INTERRES
   215  109  110 1    
   216  109  230 1    
   217  110  111 1    
   218  110  112 1    
   219  110  231 1    
   220  111  232 1    
   221  111  233 1    
   222  111  234 1    
   223  112  113 2    
   224  112  114 am   BACKBONE|DICT|INTERRES
   225  114  115 1    
   226  114  235 1    
   227  115  116 1    
   228  115  117 1    
   229  115  236 1    
   230  116  237 1    
   231  116  238 1    
   232  116  239 1    
   233  117  118 2    
   234  117  119 am   BACKBONE|DICT|INTERRES
   235  119  120 1    
   236  119  240 1    
   237  120  121 1    
   238  120  124 1    
   239  120  241 1    
   240  121  122 am   BACKBONE|DICT|INTERRES
   241  121  123 2    
   242  122  242 1    
   243  122  243 1    
   244  124  125 1    
   245  124  244 1    
   246  124  245 1    
   247  125  126 1    
   248  126  246 1    
   249  126  247 1    
@<TRIPOS>SUBSTRUCTURE
     1 UNK         1 GROUP             0       ****    0 ROOT    
