@<TRIPOS>MOLECULE
3R540
247   249    1
SMALL
USER_CHARGES


@<TRIPOS>ATOM
      1 CA          4.1674  -15.7632  -45.8947 C.3       0 UNK        -0.1800 
      2 C           3.6852  -14.8053  -46.9725 C.2       0 UNK         0.5000 
      3 O           3.9363  -13.6034  -46.8833 O.2       0 UNK        -0.5000 
      4 N           2.9867  -15.3342  -47.9855 N.am      1 UNK        -0.5000 
      5 CA          2.4649  -14.6139  -49.1521 C.3       1 UNK         0.1400 
      6 C6          3.6117  -14.0990  -50.0722 C.3       23 UNK        -0.0398 
      7 S7          3.1891  -14.1304  -51.8477 S.3       23 UNK        -0.2404 
      8 C8          3.9404  -15.7042  -52.3970 C.3       23 UNK        -0.0205 
      9 C9          2.9654  -16.8656  -52.2641 C.ar      23 UNK        -0.0193 
     10 C10         2.2628  -17.3251  -53.3810 C.ar      23 UNK        -0.1150 
     11 C11         1.3249  -18.3546  -53.2577 C.ar      23 UNK        -0.0193 
     12 C12         1.0675  -18.9059  -51.9986 C.ar      23 UNK        -0.1150 
     13 C13         1.7595  -18.4481  -50.8729 C.ar      23 UNK        -0.0193 
     14 C14         2.7394  -17.4634  -51.0222 C.ar      23 UNK        -0.1150 
     15 C15         1.3996  -18.9527  -49.4849 C.3       23 UNK        -0.0205 
     16 S16         2.5838  -20.1845  -48.8649 S.3       23 UNK        -0.2404 
     17 C17         2.0151  -20.3569  -47.1372 C.3       23 UNK        -0.0398 
     18 CA          1.0664  -21.5621  -46.9225 C.3       11 UNK         0.1400 
     19 N           1.0240  -21.9768  -45.5180 N.am      11 UNK        -0.5000 
     20 C           0.5070  -23.1391  -45.0893 C.2       10 UNK         0.5000 
     21 O           0.0585  -24.0021  -45.8422 O.2       10 UNK        -0.5000 
     22 CA          0.4275  -23.3582  -43.5651 C.3       10 UNK         0.1400 
     23 CB          1.7105  -24.0266  -43.0505 C.3       10 UNK        -0.1800 
     24 N           0.1978  -22.1226  -42.8167 N.am      10 UNK        -0.5000 
     25 C          -0.8581  -21.3107  -42.9706 C.2       9 UNK         0.5000 
     26 O          -1.8124  -21.5716  -43.7012 O.2       9 UNK        -0.5000 
     27 CA         -0.8193  -19.9578  -42.2344 C.3       9 UNK         0.1400 
     28 CB         -1.7290  -20.0043  -40.9995 C.3       9 UNK        -0.1800 
     29 N           0.5330  -19.5374  -41.8444 N.am      9 UNK        -0.5000 
     30 C           1.5275  -19.2651  -42.7065 C.2       8 UNK         0.5000 
     31 O           1.3897  -19.3315  -43.9300 O.2       8 UNK        -0.5000 
     32 CA          2.9070  -18.8910  -42.1295 C.3       8 UNK         0.1400 
     33 CB          3.3862  -17.5362  -42.6682 C.3       8 UNK        -0.1800 
     34 N           2.9237  -18.8520  -40.6671 N.am      8 UNK        -0.5000 
     35 C           3.2623  -19.8822  -39.8792 C.2       7 UNK         0.5000 
     36 O           3.5937  -20.9870  -40.3102 O.2       7 UNK        -0.5000 
     37 CA          3.2064  -19.6528  -38.3539 C.3       7 UNK         0.1400 
     38 CB          4.6001  -19.2976  -37.8142 C.3       7 UNK        -0.1800 
     39 N           2.2597  -18.6105  -37.9487 N.am      7 UNK        -0.5000 
     40 C           0.9322  -18.6851  -38.1072 C.2       6 UNK         0.5000 
     41 O           0.3654  -19.6662  -38.5886 O.2       6 UNK        -0.5000 
     42 CA          0.0897  -17.4508  -37.7224 C.3       6 UNK         0.1400 
     43 CB          0.8729  -16.3564  -36.9617 C.3       6 UNK        -0.1800 
     44 N          -0.5785  -16.8841  -38.8999 N.am      6 UNK        -0.5000 
     45 C           0.0139  -16.4434  -40.0188 C.2       5 UNK         0.5000 
     46 O           1.2370  -16.4179  -40.1847 O.2       5 UNK        -0.5000 
     47 CA         -0.9220  -15.9605  -41.1372 C.3       5 UNK         0.1400 
     48 CB         -1.5529  -14.6023  -40.7879 C.3       5 UNK        -0.1800 
     49 N          -0.1613  -15.8240  -42.3731 N.am      5 UNK        -0.5000 
     50 C          -0.5754  -16.1439  -43.6008 C.2       4 UNK         0.5000 
     51 O          -1.6995  -16.5838  -43.8459 O.2       4 UNK        -0.5000 
     52 CA          0.4383  -15.9035  -44.7416 C.3       4 UNK         0.1400 
     53 CB         -0.0209  -16.5212  -46.0744 C.3       4 UNK        -0.1800 
     54 N           0.7189  -14.4762  -44.9380 N.am      4 UNK        -0.5000 
     55 C           1.4654  -13.7126  -44.1244 C.2       3 UNK         0.5000 
     56 O           2.0470  -14.1601  -43.1349 O.2       3 UNK        -0.5000 
     57 CA          1.5913  -12.2160  -44.4714 C.3       3 UNK         0.1400 
     58 CB          2.8588  -11.5806  -43.8713 C.3       3 UNK        -0.1800 
     59 N           1.6094  -12.0108  -45.9180 N.am      3 UNK        -0.5000 
     60 C           0.7201  -11.2956  -46.6199 C.2       2 UNK         0.5000 
     61 O          -0.2461  -10.7221  -46.1161 O.2       2 UNK        -0.5000 
     62 CA          0.9370  -11.2053  -48.1464 C.3       2 UNK         0.1400 
     63 CB          1.5722   -9.8572  -48.5197 C.3       2 UNK        -0.1800 
     64 N           1.7713  -12.2840  -48.6816 N.am      2 UNK        -0.5000 
     65 C           1.4092  -13.5730  -48.7210 C.2       1 UNK         0.5000 
     66 O           0.2952  -13.9687  -48.3736 O.2       1 UNK        -0.5000 
     67 C          -0.3536  -21.2768  -47.4531 C.2       11 UNK         0.5000 
     68 O          -0.7057  -21.7417  -48.5372 O.2       11 UNK        -0.5000 
     69 N          -1.1594  -20.5533  -46.6608 N.am      12 UNK        -0.5000 
     70 CA         -2.5589  -20.2537  -46.9704 C.3       12 UNK         0.1400 
     71 CB         -3.1066  -19.2158  -45.9798 C.3       12 UNK        -0.1800 
     72 C          -3.4392  -21.5154  -46.9891 C.2       12 UNK         0.5000 
     73 O          -4.3122  -21.6272  -47.8490 O.2       12 UNK        -0.5000 
     74 N          -3.1684  -22.4546  -46.0722 N.am      13 UNK        -0.5000 
     75 CA         -3.8015  -23.7707  -46.0126 C.3       13 UNK         0.1400 
     76 CB         -3.4146  -24.4744  -44.7037 C.3       13 UNK        -0.1800 
     77 C          -3.4554  -24.6443  -47.2319 C.2       13 UNK         0.5000 
     78 O          -4.3583  -25.2432  -47.8155 O.2       13 UNK        -0.5000 
     79 N          -2.1735  -24.6663  -47.6285 N.am      14 UNK        -0.5000 
     80 CA         -1.6812  -25.3688  -48.8186 C.3       14 UNK         0.1400 
     81 CB         -0.1457  -25.3340  -48.8432 C.3       14 UNK        -0.1800 
     82 C          -2.2597  -24.8055  -50.1307 C.2       14 UNK         0.5000 
     83 O          -2.5859  -25.5759  -51.0339 O.2       14 UNK        -0.5000 
     84 N          -2.4212  -23.4774  -50.1900 N.am      15 UNK        -0.5000 
     85 CA         -3.0924  -22.7614  -51.2752 C.3       15 UNK         0.1400 
     86 CB         -2.6152  -21.3001  -51.2722 C.3       15 UNK        -0.1800 
     87 C          -4.6320  -22.8309  -51.1939 C.2       15 UNK         0.5000 
     88 O          -5.2959  -22.2866  -52.0736 O.2       15 UNK        -0.5000 
     89 N          -5.1894  -23.4575  -50.1466 N.am      16 UNK        -0.5000 
     90 CA         -6.6219  -23.6200  -49.8733 C.3       16 UNK         0.1400 
     91 CB         -7.2369  -24.6261  -50.8686 C.3       16 UNK        -0.1800 
     92 C          -7.3792  -22.2748  -49.8296 C.2       16 UNK         0.5000 
     93 O          -8.4465  -22.1458  -50.4289 O.2       16 UNK        -0.5000 
     94 N          -6.7755  -21.2772  -49.1662 N.am      17 UNK        -0.5000 
     95 CA         -7.2046  -19.8740  -49.1030 C.3       17 UNK         0.1400 
     96 CB         -8.5366  -19.7341  -48.3369 C.3       17 UNK        -0.1800 
     97 C          -7.2228  -19.1953  -50.4923 C.2       17 UNK         0.5000 
     98 O          -8.1101  -18.3917  -50.7831 O.2       17 UNK        -0.5000 
     99 N          -6.2298  -19.5520  -51.3195 N.am      18 UNK        -0.5000 
    100 CA        -5.9983  -19.1306  -52.7050 C.3       18 UNK         0.1400 
    101 CB        -5.8312  -17.6010  -52.8178 C.3       18 UNK        -0.1800 
    102 C         -7.0100  -19.7068  -53.7187 C.2       18 UNK         0.5000 
    103 O         -7.1077  -19.1895  -54.8337 O.2       18 UNK        -0.5000 
    104 N         -7.7115  -20.7882  -53.3496 N.am      19 UNK        -0.5000 
    105 CA        -8.5308  -21.5837  -54.2673 C.3       19 UNK         0.1400 
    106 CB        -9.6065  -22.3385  -53.4729 C.3       19 UNK        -0.1800 
    107 C         -7.6829  -22.5695  -55.0970 C.2       19 UNK         0.5000 
    108 O         -8.1121  -22.9692  -56.1802 O.2       19 UNK        -0.5000 
    109 N         -6.5033  -22.9365  -54.5831 N.am      20 UNK        -0.5000 
    110 CA        -5.4884  -23.7520  -55.2406 C.3       20 UNK         0.1400 
    111 CB        -5.2536  -25.0177  -54.3981 C.3       20 UNK        -0.1800 
    112 C         -4.1954  -22.9295  -55.3759 C.2       20 UNK         0.5000 
    113 O         -4.0966  -21.8307  -54.8214 O.2       20 UNK        -0.5000 
    114 N         -3.2216  -23.4699  -56.1213 N.am      21 UNK        -0.5000 
    115 CA        -1.9385  -22.8427  -56.4575 C.3       21 UNK         0.1400 
    116 CB        -1.0451  -22.7124  -55.2002 C.3       21 UNK        -0.1800 
    117 C         -2.1624  -21.5190  -57.2202 C.2       21 UNK         0.5000 
    118 O         -2.6296  -21.5595  -58.3599 O.2       21 UNK        -0.5000 
    119 N         -1.8620  -20.3846  -56.5789 N.am      22 UNK        -0.5000 
    120 CA        -2.1704  -19.0319  -57.0669 C.3       22 UNK         0.1400 
    121 C         -3.6304  -18.5593  -56.7906 C.2       22 UNK         0.5000 
    122 N         -4.4518  -19.3117  -56.0697 N.am      22 UNK        -0.7600 
    123 O         -4.0306  -17.4968  -57.2589 O.2       22 UNK        -0.5000 
    124 C124       -1.1143  -18.0021  -56.5904 C.3       23 UNK        -0.0398 
    125 S125       -0.9315  -17.8817  -54.7733 S.3       23 UNK        -0.2404 
    126 C126        0.5836  -18.8502  -54.4876 C.3       23 UNK        -0.0205 
    127 H127        3.7355  -16.7567  -46.0165 H         1 UNK         0.0600 
    128 H128        3.8940  -15.3892  -44.9086 H         1 UNK         0.0600 
    129 H129        5.2526  -15.8545  -45.9342 H         1 UNK         0.0600 
    130 H130        2.7935  -16.3241  -47.9715 H         1 UNK         0.3000 
    131 H131        1.8898  -15.3525  -49.7078 H         1 UNK         0.0600 
    132 H132        4.4968  -14.7215  -49.9374 H         1 UNK         0.0800 
    133 H133        3.9502  -13.0989  -49.8020 H         1 UNK         0.0800 
    134 H134        4.8567  -15.9147  -51.8442 H         1 UNK         0.0800 
    135 H135        4.2430  -15.5932  -53.4394 H         1 UNK         0.0800 
    136 H136        2.4360  -16.8735  -54.3479 H         1 UNK         0.1150 
    137 H137        0.3145  -19.6741  -51.8932 H         1 UNK         0.1150 
    138 H138        3.2935  -17.1270  -50.1590 H         1 UNK         0.1150 
    139 H139        1.3571  -18.1064  -48.7983 H         1 UNK         0.0800 
    140 H140        0.3979  -19.3833  -49.4977 H         1 UNK         0.0800 
    141 H141        1.5703  -19.4253  -46.7825 H         1 UNK         0.0800 
    142 H142        2.9140  -20.4935  -46.5342 H         1 UNK         0.0800 
    143 H143        1.4631  -22.4070  -47.4902 H         1 UNK         0.0600 
    144 H144        1.3273  -21.2918  -44.8361 H         1 UNK         0.3000 
    145 H145       -0.4114  -24.0276  -43.3673 H         1 UNK         0.0600 
    146 H146        1.6345  -24.2616  -41.9887 H         1 UNK         0.0600 
    147 H147        1.9009  -24.9631  -43.5767 H         1 UNK         0.0600 
    148 H148        2.5828  -23.3869  -43.1912 H         1 UNK         0.0600 
    149 H149        0.9297  -21.8341  -42.1844 H         1 UNK         0.3000 
    150 H150       -1.2147  -19.2058  -42.9199 H         1 UNK         0.0600 
    151 H151       -2.7565  -20.2375  -41.2818 H         1 UNK         0.0600 
    152 H152       -1.7468  -19.0484  -40.4788 H         1 UNK         0.0600 
    153 H153       -1.4045  -20.7673  -40.2911 H         1 UNK         0.0600 
    154 H154        0.7226  -19.4922  -40.8511 H         1 UNK         0.3000 
    155 H155        3.6096  -19.6483  -42.4830 H         1 UNK         0.0600 
    156 H156        2.7168  -16.7254  -42.3839 H         1 UNK         0.0600 
    157 H157        3.4455  -17.5537  -43.7554 H         1 UNK         0.0600 
    158 H158        4.3812  -17.2929  -42.2956 H         1 UNK         0.0600 
    159 H159        2.6090  -17.9850  -40.2430 H         1 UNK         0.3000 
    160 H160        2.8905  -20.5914  -37.8937 H         1 UNK         0.0600 
    161 H161        4.9614  -18.3535  -38.2241 H         1 UNK         0.0600 
    162 H162        5.3278  -20.0679  -38.0734 H         1 UNK         0.0600 
    163 H163        4.5930  -19.2123  -36.7274 H         1 UNK         0.0600 
    164 H164        2.6536  -17.7594  -37.5746 H         1 UNK         0.3000 
    165 H165       -0.6970  -17.8146  -37.0599 H         1 UNK         0.0600 
    166 H166        0.2095  -15.5450  -36.6624 H         1 UNK         0.0600 
    167 H167        1.3201  -16.7543  -36.0499 H         1 UNK         0.0600 
    168 H168        1.6710  -15.9198  -37.5629 H         1 UNK         0.0600 
    169 H169       -1.5880  -16.8856  -38.8604 H         1 UNK         0.3000 
    170 H170       -1.7088  -16.7064  -41.2645 H         1 UNK         0.0600 
    171 H171       -2.1450  -14.6631  -39.8742 H         1 UNK         0.0600 
    172 H172       -0.7926  -13.8346  -40.6381 H         1 UNK         0.0600 
    173 H173       -2.2181  -14.2626  -41.5820 H         1 UNK         0.0600 
    174 H174        0.7819  -15.4623  -42.2578 H         1 UNK         0.3000 
    175 H175        1.3665  -16.4026  -44.4608 H         1 UNK         0.0600 
    176 H176       -0.9439  -16.0657  -46.4351 H         1 UNK         0.0600 
    177 H177        0.7330  -16.4002  -46.8493 H         1 UNK         0.0600 
    178 H178       -0.1981  -17.5916  -45.9647 H         1 UNK         0.0600 
    179 H179        0.2702  -14.0373  -45.7303 H         1 UNK         0.3000 
    180 H180        0.7252  -11.7249  -44.0241 H         1 UNK         0.0600 
    181 H181        3.7625  -12.0684  -44.2393 H         1 UNK         0.0600 
    182 H182        2.8617  -11.6552  -42.7832 H         1 UNK         0.0600 
    183 H183        2.9242  -10.5217  -44.1218 H         1 UNK         0.0600 
    184 H184        2.3720  -12.4648  -46.4131 H         1 UNK         0.3000 
    185 H185       -0.0444  -11.2651  -48.6216 H         1 UNK         0.0600 
    186 H186        0.9614   -9.0257  -48.1655 H         1 UNK         0.0600 
    187 H187        2.5648   -9.7453  -48.0814 H         1 UNK         0.0600 
    188 H188        1.6672   -9.7510  -49.6005 H         1 UNK         0.0600 
    189 H189        2.7141  -12.0330  -48.9401 H         1 UNK         0.3000 
    190 H190       -0.8175  -20.2495  -45.7611 H         1 UNK         0.3000 
    191 H191       -2.5937  -19.8152  -47.9699 H         1 UNK         0.0600 
    192 H192       -3.0655  -19.5716  -44.9504 H         1 UNK         0.0600 
    193 H193       -4.1479  -18.9784  -46.2016 H         1 UNK         0.0600 
    194 H194       -2.5462  -18.2831  -46.0338 H         1 UNK         0.0600 
    195 H195       -2.4910  -22.2386  -45.3460 H         1 UNK         0.3000 
    196 H196       -4.8829  -23.6183  -46.0072 H         1 UNK         0.0600 
    197 H197       -3.9319  -25.4297  -44.6081 H         1 UNK         0.0600 
    198 H198       -3.6816  -23.8702  -43.8364 H         1 UNK         0.0600 
    199 H199       -2.3450  -24.6757  -44.6550 H         1 UNK         0.0600 
    200 H200       -1.4752  -24.1876  -47.0677 H         1 UNK         0.3000 
    201 H201       -1.9948  -26.4119  -48.7416 H         1 UNK         0.0600 
    202 H202        0.2730  -25.8179  -47.9608 H         1 UNK         0.0600 
    203 H203        0.2340  -24.3125  -48.8765 H         1 UNK         0.0600 
    204 H204        0.2437  -25.8585  -49.7166 H         1 UNK         0.0600 
    205 H205       -2.0570  -22.9094  -49.4307 H         1 UNK         0.3000 
    206 H206       -2.7997  -23.2095  -52.2271 H         1 UNK         0.0600 
    207 H207       -1.5290  -21.2419  -51.3402 H         1 UNK         0.0600 
    208 H208       -3.0208  -20.7531  -52.1243 H         1 UNK         0.0600 
    209 H209       -2.9219  -20.7789  -50.3648 H         1 UNK         0.0600 
    210 H210       -4.5740  -23.8590  -49.4505 H         1 UNK         0.3000 
    211 H211       -6.7016  -24.0483  -48.8734 H         1 UNK         0.0600 
    212 H212       -7.2009  -24.2564  -51.8935 H         1 UNK         0.0600 
    213 H213       -8.2812  -24.8286  -50.6285 H         1 UNK         0.0600 
    214 H214       -6.7072  -25.5784  -50.8402 H         1 UNK         0.0600 
    215 H215       -5.8839  -21.4796  -48.7136 H         1 UNK         0.3000 
    216 H216       -6.4402  -19.3531  -48.5246 H         1 UNK         0.0600 
    217 H217       -8.7780  -18.6848  -48.1634 H         1 UNK         0.0600 
    218 H218       -8.4831  -20.2191  -47.3623 H         1 UNK         0.0600 
    219 H219       -9.3703  -20.1732  -48.8854 H         1 UNK         0.0600 
    220 H220       -5.6099  -20.2844  -51.0014 H         1 UNK         0.3000 
    221 H221       -5.0406  -19.5734  -52.9821 H         1 UNK         0.0600 
    222 H222       -6.7727  -17.0756  -52.6570 H         1 UNK         0.0600 
    223 H223       -5.1075  -17.2284  -52.0931 H         1 UNK         0.0600 
    224 H224       -5.4682  -17.3209  -53.8075 H         1 UNK         0.0600 
    225 H225       -7.5744  -21.1632  -52.4196 H         1 UNK         0.3000 
    226 H226       -9.0386  -20.9120  -54.9626 H         1 UNK         0.0600 
    227 H227      -10.1963  -21.6581  -52.8582 H         1 UNK         0.0600 
    228 H228      -10.2951  -22.8532  -54.1439 H         1 UNK         0.0600 
    229 H229       -9.1692  -23.0909  -52.8166 H         1 UNK         0.0600 
    230 H230       -6.1906  -22.5113  -53.7125 H         1 UNK         0.3000 
    231 H231       -5.8132  -24.0412  -56.2419 H         1 UNK         0.0600 
    232 H232       -6.1811  -25.5730  -54.2575 H         1 UNK         0.0600 
    233 H233       -4.8562  -24.7806  -53.4111 H         1 UNK         0.0600 
    234 H234       -4.5449  -25.6899  -54.8826 H         1 UNK         0.0600 
    235 H235       -3.3948  -24.3610  -56.5647 H         1 UNK         0.3000 
    236 H236       -1.4324  -23.5152  -57.1516 H         1 UNK         0.0600 
    237 H237       -0.0694  -22.2972  -55.4554 H         1 UNK         0.0600 
    238 H238       -1.4864  -22.0765  -54.4322 H         1 UNK         0.0600 
    239 H239       -0.8681  -23.6891  -54.7498 H         1 UNK         0.0600 
    240 H240       -1.5404  -20.4405  -55.6244 H         1 UNK         0.3000 
    241 H241       -2.0946  -19.0547  -58.1557 H         1 UNK         0.0600 
    242 H242       -4.1463  -20.1967  -55.6721 H         1 UNK         0.3800 
    243 H243       -5.4022  -19.0069  -55.8991 H         1 UNK         0.3800 
    244 H244       -0.1511  -18.2439  -57.0399 H         1 UNK         0.0800 
    245 H245       -1.3572  -17.0082  -56.9701 H         1 UNK         0.0800 
    246 H246        1.2473  -18.7876  -55.3509 H         1 UNK         0.0800 
    247 H247        0.3262  -19.9040  -54.3749 H         1 UNK         0.0800 
@<TRIPOS>BOND
     1    1    2 1    
     2    1  127 1    
     3    1  128 1    
     4    1  129 1    
     5    2    3 2    
     6    2    4 am   BACKBONE|DICT|INTERRES
     7    4    5 1    
     8    4  130 1    
     9    5    6 1    
    10    5   65 1    
    11    5  131 1    
    12    6    7 1    
    13    6  132 1    
    14    6  133 1    
    15    7    8 1    
    16    8    9 1    
    17    8  134 1    
    18    8  135 1    
    19    9   10 ar   
    20    9   14 ar   
    21   10   11 ar   
    22   10  136 1    
    23   11   12 ar   
    24   11  126 1    
    25   12   13 ar   
    26   12  137 1    
    27   13   14 ar   
    28   13   15 1    
    29   14  138 1    
    30   15   16 1    
    31   15  139 1    
    32   15  140 1    
    33   16   17 1    
    34   17   18 1    
    35   17  141 1    
    36   17  142 1    
    37   18   19 1    
    38   18   67 1    
    39   18  143 1    
    40   19   20 am   BACKBONE|DICT|INTERRES
    41   19  144 1    
    42   20   21 2    
    43   20   22 1    
    44   22   23 1    
    45   22   24 1    
    46   22  145 1    
    47   23  146 1    
    48   23  147 1    
    49   23  148 1    
    50   24   25 am   BACKBONE|DICT|INTERRES
    51   24  149 1    
    52   25   26 2    
    53   25   27 1    
    54   27   28 1    
    55   27   29 1    
    56   27  150 1    
    57   28  151 1    
    58   28  152 1    
    59   28  153 1    
    60   29   30 am   BACKBONE|DICT|INTERRES
    61   29  154 1    
    62   30   31 2    
    63   30   32 1    
    64   32   33 1    
    65   32   34 1    
    66   32  155 1    
    67   33  156 1    
    68   33  157 1    
    69   33  158 1    
    70   34   35 am   BACKBONE|DICT|INTERRES
    71   34  159 1    
    72   35   36 2    
    73   35   37 1    
    74   37   38 1    
    75   37   39 1    
    76   37  160 1    
    77   38  161 1    
    78   38  162 1    
    79   38  163 1    
    80   39   40 am   BACKBONE|DICT|INTERRES
    81   39  164 1    
    82   40   41 2    
    83   40   42 1    
    84   42   43 1    
    85   42   44 1    
    86   42  165 1    
    87   43  166 1    
    88   43  167 1    
    89   43  168 1    
    90   44   45 am   BACKBONE|DICT|INTERRES
    91   44  169 1    
    92   45   46 2    
    93   45   47 1    
    94   47   48 1    
    95   47   49 1    
    96   47  170 1    
    97   48  171 1    
    98   48  172 1    
    99   48  173 1    
   100   49   50 am   BACKBONE|DICT|INTERRES
   101   49  174 1    
   102   50   51 2    
   103   50   52 1    
   104   52   53 1    
   105   52   54 1    
   106   52  175 1    
   107   53  176 1    
   108   53  177 1    
   109   53  178 1    
   110   54   55 am   BACKBONE|DICT|INTERRES
   111   54  179 1    
   112   55   56 2    
   113   55   57 1    
   114   57   58 1    
   115   57   59 1    
   116   57  180 1    
   117   58  181 1    
   118   58  182 1    
   119   58  183 1    
   120   59   60 am   BACKBONE|DICT|INTERRES
   121   59  184 1    
   122   60   61 2    
   123   60   62 1    
   124   62   63 1    
   125   62   64 1    
   126   62  185 1    
   127   63  186 1    
   128   63  187 1    
   129   63  188 1    
   130   64   65 am   BACKBONE|DICT|INTERRES
   131   64  189 1    
   132   65   66 2    
   133   67   68 2    
   134   67   69 am   BACKBONE|DICT|INTERRES
   135   69   70 1    
   136   69  190 1    
   137   70   71 1    
   138   70   72 1    
   139   70  191 1    
   140   71  192 1    
   141   71  193 1    
   142   71  194 1    
   143   72   73 2    
   144   72   74 am   BACKBONE|DICT|INTERRES
   145   74   75 1    
   146   74  195 1    
   147   75   76 1    
   148   75   77 1    
   149   75  196 1    
   150   76  197 1    
   151   76  198 1    
   152   76  199 1    
   153   77   78 2    
   154   77   79 am   BACKBONE|DICT|INTERRES
   155   79   80 1    
   156   79  200 1    
   157   80   81 1    
   158   80   82 1    
   159   80  201 1    
   160   81  202 1    
   161   81  203 1    
   162   81  204 1    
   163   82   83 2    
   164   82   84 am   BACKBONE|DICT|INTERRES
   165   84   85 1    
   166   84  205 1    
   167   85   86 1    
   168   85   87 1    
   169   85  206 1    
   170   86  207 1    
   171   86  208 1    
   172   86  209 1    
   173   87   88 2    
   174   87   89 am   BACKBONE|DICT|INTERRES
   175   89   90 1    
   176   89  210 1    
   177   90   91 1    
   178   90   92 1    
   179   90  211 1    
   180   91  212 1    
   181   91  213 1    
   182   91  214 1    
   183   92   93 2    
   184   92   94 am   BACKBONE|DICT|INTERRES
   185   94   95 1    
   186   94  215 1    
   187   95   96 1    
   188   95   97 1    
   189   95  216 1    
   190   96  217 1    
   191   96  218 1    
   192   96  219 1    
   193   97   98 2    
   194   97   99 am   BACKBONE|DICT|INTERRES
   195   99  100 1    
   196   99  220 1    
   197  100  101 1    
   198  100  102 1    
   199  100  221 1    
   200  101  222 1    
   201  101  223 1    
   202  101  224 1    
   203  102  103 2    
   204  102  104 am   BACKBONE|DICT|INTERRES
   205  104  105 1    
   206  104  225 1    
   207  105  106 1    
   208  105  107 1    
   209  105  226 1    
   210  106  227 1    
   211  106  228 1    
   212  106  229 1    
   213  107  108 2    
   214  107  109 am   BACKBONE|DICT|INTERRES
   215  109  110 1    
   216  109  230 1    
   217  110  111 1    
   218  110  112 1    
   219  110  231 1    
   220  111  232 1    
   221  111  233 1    
   222  111  234 1    
   223  112  113 2    
   224  112  114 am   BACKBONE|DICT|INTERRES
   225  114  115 1    
   226  114  235 1    
   227  115  116 1    
   228  115  117 1    
   229  115  236 1    
   230  116  237 1    
   231  116  238 1    
   232  116  239 1    
   233  117  118 2    
   234  117  119 am   BACKBONE|DICT|INTERRES
   235  119  120 1    
   236  119  240 1    
   237  120  121 1    
   238  120  124 1    
   239  120  241 1    
   240  121  122 am   BACKBONE|DICT|INTERRES
   241  121  123 2    
   242  122  242 1    
   243  122  243 1    
   244  124  125 1    
   245  124  244 1    
   246  124  245 1    
   247  125  126 1    
   248  126  246 1    
   249  126  247 1    
@<TRIPOS>SUBSTRUCTURE
     1 UNK         1 GROUP             0       ****    0 ROOT    
