@<TRIPOS>MOLECULE
3R540
247   249    1
SMALL
USER_CHARGES


@<TRIPOS>ATOM
      1 CA          8.1982  -14.4357  -47.8462 C.3       0 UNK        -0.1800 
      2 C           6.8655  -14.1913  -47.1534 C.2       0 UNK         0.5000 
      3 O           6.5674  -14.8380  -46.1489 O.2       0 UNK        -0.5000 
      4 N           6.0665  -13.2521  -47.6741 N.am      1 UNK        -0.5000 
      5 CA          4.7362  -12.8779  -47.1768 C.3       1 UNK         0.1400 
      6 C6          3.8559  -12.2724  -48.3015 C.3       23 UNK        -0.0398 
      7 S7          3.5161  -13.4533  -49.6522 S.3       23 UNK        -0.2404 
      8 C8          2.0915  -14.3230  -48.9376 C.3       23 UNK        -0.0205 
      9 C9          1.4290  -15.2727  -49.9192 C.ar      23 UNK        -0.0193 
     10 C10         0.2461  -14.8994  -50.5661 C.ar      23 UNK        -0.1150 
     11 C11        -0.4300  -15.8052  -51.3888 C.ar      23 UNK        -0.0193 
     12 C12         0.1255  -17.0677  -51.6106 C.ar      23 UNK        -0.1150 
     13 C13         1.2840  -17.4637  -50.9435 C.ar      23 UNK        -0.0193 
     14 C14         1.9437  -16.5583  -50.1089 C.ar      23 UNK        -0.1150 
     15 C15         1.7599  -18.9001  -51.0652 C.3       23 UNK        -0.0205 
     16 S16         1.1558  -19.9128  -49.6756 S.3       23 UNK        -0.2404 
     17 C17        -0.6589  -19.6893  -49.7605 C.3       23 UNK        -0.0398 
     18 CA         -1.3936  -20.7552  -48.9149 C.3       11 UNK         0.1400 
     19 N          -1.0697  -20.6408  -47.4881 N.am      11 UNK        -0.5000 
     20 C          -1.0885  -21.6301  -46.5859 C.2       10 UNK         0.5000 
     21 O          -1.4980  -22.7667  -46.8391 O.2       10 UNK        -0.5000 
     22 CA         -0.6138  -21.2778  -45.1623 C.3       10 UNK         0.1400 
     23 CB         -0.1802  -22.5161  -44.3511 C.3       10 UNK        -0.1800 
     24 N           0.4209  -20.2387  -45.1422 N.am      10 UNK        -0.5000 
     25 C           1.6704  -20.2932  -45.6300 C.2       9 UNK         0.5000 
     26 O           2.1617  -21.2888  -46.1620 O.2       9 UNK        -0.5000 
     27 CA          2.5245  -19.0129  -45.4904 C.3       9 UNK         0.1400 
     28 CB          2.6190  -18.2665  -46.8296 C.3       9 UNK        -0.1800 
     29 N           2.0106  -18.0848  -44.4826 N.am      9 UNK        -0.5000 
     30 C           2.0593  -18.2785  -43.1579 C.2       8 UNK         0.5000 
     31 O           2.6214  -19.2336  -42.6217 O.2       8 UNK        -0.5000 
     32 CA          1.3084  -17.2496  -42.2963 C.3       8 UNK         0.1400 
     33 CB          2.1769  -16.0059  -42.0503 C.3       8 UNK        -0.1800 
     34 N           0.0355  -16.8647  -42.9145 N.am      8 UNK        -0.5000 
     35 C          -1.0616  -17.6378  -42.9156 C.2       7 UNK         0.5000 
     36 O          -1.1305  -18.7200  -42.3341 O.2       7 UNK        -0.5000 
     37 CA         -2.2779  -17.1473  -43.7234 C.3       7 UNK         0.1400 
     38 CB         -3.2424  -16.3529  -42.8324 C.3       7 UNK        -0.1800 
     39 N          -1.8993  -16.3291  -44.8740 N.am      7 UNK        -0.5000 
     40 C          -1.4108  -16.8211  -46.0215 C.2       6 UNK         0.5000 
     41 O          -1.2590  -18.0218  -46.2429 O.2       6 UNK        -0.5000 
     42 CA         -0.9777  -15.7977  -47.0864 C.3       6 UNK         0.1400 
     43 CB         -2.1493  -15.4774  -48.0235 C.3       6 UNK        -0.1800 
     44 N          -0.4567  -14.5519  -46.5173 N.am      6 UNK        -0.5000 
     45 C           0.6160  -14.4693  -45.7190 C.2       5 UNK         0.5000 
     46 O           1.2715  -15.4486  -45.3639 O.2       5 UNK        -0.5000 
     47 CA          1.0362  -13.0762  -45.2225 C.3       5 UNK         0.1400 
     48 CB          0.3711  -11.8997  -45.9717 C.3       5 UNK        -0.1800 
     49 N           0.8511  -12.9404  -43.7783 N.am      5 UNK        -0.5000 
     50 C          -0.2998  -13.0066  -43.0918 C.2       4 UNK         0.5000 
     51 O          -1.3779  -13.3050  -43.6084 O.2       4 UNK        -0.5000 
     52 CA         -0.2533  -12.6923  -41.5785 C.3       4 UNK         0.1400 
     53 CB         -0.9537  -13.7831  -40.7507 C.3       4 UNK        -0.1800 
     54 N           1.1012  -12.4956  -41.0547 N.am      4 UNK        -0.5000 
     55 C           1.8277  -11.3757  -41.1713 C.2       3 UNK         0.5000 
     56 O           1.4213  -10.3532  -41.7250 O.2       3 UNK        -0.5000 
     57 CA          3.2609  -11.4011  -40.5968 C.3       3 UNK         0.1400 
     58 CB          3.5644  -12.6326  -39.7119 C.3       3 UNK        -0.1800 
     59 N           4.2800  -11.2724  -41.6451 N.am      3 UNK        -0.5000 
     60 C           4.4383  -12.0632  -42.7163 C.2       2 UNK         0.5000 
     61 O           3.6935  -13.0082  -42.9889 O.2       2 UNK        -0.5000 
     62 CA          5.6632  -11.7651  -43.6021 C.3       2 UNK         0.1400 
     63 CB          6.9494  -12.2703  -42.9287 C.3       2 UNK        -0.1800 
     64 N           5.5482  -12.4094  -44.9084 N.am      2 UNK        -0.5000 
     65 C           4.8232  -11.9563  -45.9358 C.2       1 UNK         0.5000 
     66 O           4.2456  -10.8679  -45.9255 O.2       1 UNK        -0.5000 
     67 C          -2.9218  -20.7892  -49.1439 C.2       11 UNK         0.5000 
     68 O          -3.4865  -19.9701  -49.8720 O.2       11 UNK        -0.5000 
     69 N          -3.5497  -21.7686  -48.4930 N.am      12 UNK        -0.5000 
     70 CA         -4.9328  -22.1971  -48.6225 C.3       12 UNK         0.1400 
     71 CB         -5.9114  -21.1829  -48.0053 C.3       12 UNK        -0.1800 
     72 C          -5.0439  -23.5742  -47.9625 C.2       12 UNK         0.5000 
     73 O          -5.4366  -24.5331  -48.6229 O.2       12 UNK        -0.5000 
     74 N          -4.6333  -23.6559  -46.6885 N.am      13 UNK        -0.5000 
     75 CA         -4.6385  -24.8773  -45.8831 C.3       13 UNK         0.1400 
     76 CB         -4.3947  -24.5159  -44.4093 C.3       13 UNK        -0.1800 
     77 C          -3.6161  -25.9184  -46.3713 C.2       13 UNK         0.5000 
     78 O          -3.9926  -27.0574  -46.6488 O.2       13 UNK        -0.5000 
     79 N          -2.3482  -25.5031  -46.5042 N.am      14 UNK        -0.5000 
     80 CA         -1.2533  -26.3485  -46.9932 C.3       14 UNK         0.1400 
     81 CB          0.0905  -25.7362  -46.5689 C.3       14 UNK        -0.1800 
     82 C          -1.3055  -26.5386  -48.5203 C.2       14 UNK         0.5000 
     83 O          -0.8097  -27.5414  -49.0336 O.2       14 UNK        -0.5000 
     84 N          -1.9334  -25.5780  -49.2088 N.am      15 UNK        -0.5000 
     85 CA         -2.1908  -25.5817  -50.6473 C.3       15 UNK         0.1400 
     86 CB         -2.3628  -24.1250  -51.0936 C.3       15 UNK        -0.1800 
     87 C          -3.4194  -26.4255  -51.0509 C.2       15 UNK         0.5000 
     88 O          -3.6968  -26.5432  -52.2477 O.2       15 UNK        -0.5000 
     89 N          -4.1476  -26.9612  -50.0564 N.am      16 UNK        -0.5000 
     90 CA         -5.3415  -27.8116  -50.1560 C.3       16 UNK         0.1400 
     91 CB         -4.9569  -29.1914  -50.7283 C.3       16 UNK        -0.1800 
     92 C          -6.5124  -27.1616  -50.9258 C.2       16 UNK         0.5000 
     93 O          -7.3167  -27.8703  -51.5333 O.2       16 UNK        -0.5000 
     94 N          -6.5555  -25.8205  -50.9202 N.am      17 UNK        -0.5000 
     95 CA         -7.4216  -24.9369  -51.7098 C.3       17 UNK         0.1400 
     96 CB         -8.8857  -25.0579  -51.2412 C.3       17 UNK        -0.1800 
     97 C          -7.2766  -25.1140  -53.2421 C.2       17 UNK         0.5000 
     98 O          -8.1532  -24.6702  -53.9860 O.2       17 UNK        -0.5000 
     99 N          -6.1965  -25.7704  -53.6894 N.am      18 UNK        -0.5000 
    100 CA        -5.9797  -26.1934  -55.0699 C.3       18 UNK         0.1400 
    101 CB        -5.7175  -27.7084  -55.0934 C.3       18 UNK        -0.1800 
    102 C         -4.8121  -25.4280  -55.7022 C.2       18 UNK         0.5000 
    103 O         -4.9766  -24.8622  -56.7838 O.2       18 UNK        -0.5000 
    104 N         -3.6574  -25.4088  -55.0205 N.am      19 UNK        -0.5000 
    105 CA        -2.4582  -24.6981  -55.4791 C.3       19 UNK         0.1400 
    106 CB        -1.2204  -25.2976  -54.7932 C.3       19 UNK        -0.1800 
    107 C         -2.5430  -23.1764  -55.2441 C.2       19 UNK         0.5000 
    108 O         -1.8725  -22.4112  -55.9378 O.2       19 UNK        -0.5000 
    109 N         -3.3765  -22.7765  -54.2806 N.am      20 UNK        -0.5000 
    110 CA        -3.6786  -21.4195  -53.8512 C.3       20 UNK         0.1400 
    111 CB        -2.4665  -20.7877  -53.1403 C.3       20 UNK        -0.1800 
    112 C         -4.8754  -21.5175  -52.8961 C.2       20 UNK         0.5000 
    113 O         -5.0950  -22.5788  -52.3060 O.2       20 UNK        -0.5000 
    114 N         -5.6209  -20.4195  -52.7553 N.am      21 UNK        -0.5000 
    115 CA        -6.7654  -20.3039  -51.8482 C.3       21 UNK         0.1400 
    116 CB        -8.0479  -20.7636  -52.5675 C.3       21 UNK        -0.1800 
    117 C         -6.8806  -18.8804  -51.2687 C.2       21 UNK         0.5000 
    118 O         -7.9538  -18.4924  -50.8050 O.2       21 UNK        -0.5000 
    119 N         -5.7808  -18.1198  -51.3198 N.am      22 UNK        -0.5000 
    120 CA        -5.6658  -16.7518  -50.7920 C.3       22 UNK         0.1400 
    121 C         -5.4410  -16.6900  -49.2539 C.2       22 UNK         0.5000 
    122 N         -4.9044  -17.7276  -48.6224 N.am      22 UNK        -0.7600 
    123 O         -5.7750  -15.6901  -48.6245 O.2       22 UNK        -0.5000 
    124 C124       -4.5970  -15.9331  -51.5661 C.3       23 UNK        -0.0398 
    125 S125       -2.9934  -16.7984  -51.6648 S.3       23 UNK        -0.2404 
    126 C126       -1.7954  -15.4552  -51.9699 C.3       23 UNK        -0.0205 
    127 H127        8.3263  -13.7928  -48.7174 H         1 UNK         0.0600 
    128 H128        8.2642  -15.4724  -48.1762 H         1 UNK         0.0600 
    129 H129        9.0201  -14.2429  -47.1568 H         1 UNK         0.0600 
    130 H130        6.3784  -12.7447  -48.4899 H         1 UNK         0.3000 
    131 H131        4.2378  -13.7862  -46.8313 H         1 UNK         0.0600 
    132 H132        4.3411  -11.3938  -48.7298 H         1 UNK         0.0800 
    133 H133        2.9019  -11.9197  -47.9067 H         1 UNK         0.0800 
    134 H134        1.3613  -13.5916  -48.5923 H         1 UNK         0.0800 
    135 H135        2.4157  -14.8821  -48.0589 H         1 UNK         0.0800 
    136 H136       -0.1744  -13.9198  -50.3878 H         1 UNK         0.1150 
    137 H137       -0.3923  -17.7763  -52.2415 H         1 UNK         0.1150 
    138 H138        2.8328  -16.8667  -49.5769 H         1 UNK         0.1150 
    139 H139        1.4256  -19.3394  -52.0064 H         1 UNK         0.0800 
    140 H140        2.8502  -18.9287  -51.0812 H         1 UNK         0.0800 
    141 H141       -0.9607  -19.7534  -50.8063 H         1 UNK         0.0800 
    142 H142       -0.9182  -18.6850  -49.4199 H         1 UNK         0.0800 
    143 H143       -1.0283  -21.7260  -49.2566 H         1 UNK         0.0600 
    144 H144       -0.8324  -19.7098  -47.1594 H         1 UNK         0.3000 
    145 H145       -1.4792  -20.8445  -44.6591 H         1 UNK         0.0600 
    146 H146        0.1438  -22.2357  -43.3489 H         1 UNK         0.0600 
    147 H147       -1.0045  -23.2209  -44.2391 H         1 UNK         0.0600 
    148 H148        0.6396  -23.0498  -44.8324 H         1 UNK         0.0600 
    149 H149        0.1209  -19.3470  -44.7745 H         1 UNK         0.3000 
    150 H150        3.5308  -19.3165  -45.1951 H         1 UNK         0.0600 
    151 H151        3.0815  -18.8934  -47.5922 H         1 UNK         0.0600 
    152 H152        3.2255  -17.3649  -46.7404 H         1 UNK         0.0600 
    153 H153        1.6345  -17.9719  -47.1955 H         1 UNK         0.0600 
    154 H154        1.5964  -17.2232  -44.8300 H         1 UNK         0.3000 
    155 H155        1.1029  -17.7108  -41.3278 H         1 UNK         0.0600 
    156 H156        3.1369  -16.2815  -41.6121 H         1 UNK         0.0600 
    157 H157        1.6965  -15.3186  -41.3574 H         1 UNK         0.0600 
    158 H158        2.3867  -15.4638  -42.9721 H         1 UNK         0.0600 
    159 H159        0.0396  -16.0255  -43.4766 H         1 UNK         0.3000 
    160 H160       -2.8083  -18.0309  -44.0855 H         1 UNK         0.0600 
    161 H161       -2.7905  -15.4280  -42.4778 H         1 UNK         0.0600 
    162 H162       -3.5378  -16.9333  -41.9573 H         1 UNK         0.0600 
    163 H163       -4.1528  -16.0933  -43.3729 H         1 UNK         0.0600 
    164 H164       -1.9665  -15.3251  -44.7627 H         1 UNK         0.3000 
    165 H165       -0.1799  -16.2520  -47.6771 H         1 UNK         0.0600 
    166 H166       -1.8891  -14.7077  -48.7482 H         1 UNK         0.0600 
    167 H167       -2.4381  -16.3646  -48.5873 H         1 UNK         0.0600 
    168 H168       -3.0267  -15.1326  -47.4748 H         1 UNK         0.0600 
    169 H169       -0.9665  -13.7073  -46.7315 H         1 UNK         0.3000 
    170 H170        2.1095  -13.0103  -45.3971 H         1 UNK         0.0600 
    171 H171        0.5407  -11.9626  -47.0464 H         1 UNK         0.0600 
    172 H172       -0.7060  -11.8563  -45.8082 H         1 UNK         0.0600 
    173 H173        0.7901  -10.9492  -45.6405 H         1 UNK         0.0600 
    174 H174        1.7093  -12.7889  -43.2576 H         1 UNK         0.3000 
    175 H175       -0.8104  -11.7642  -41.4357 H         1 UNK         0.0600 
    176 H176       -2.0183  -13.8189  -40.9820 H         1 UNK         0.0600 
    177 H177       -0.5419  -14.7733  -40.9427 H         1 UNK         0.0600 
    178 H178       -0.8695  -13.5851  -39.6820 H         1 UNK         0.0600 
    179 H179        1.5279  -13.2909  -40.6031 H         1 UNK         0.3000 
    180 H180        3.3489  -10.5152  -39.9662 H         1 UNK         0.0600 
    181 H181        3.5385  -13.5661  -40.2753 H         1 UNK         0.0600 
    182 H182        2.8511  -12.7154  -38.8907 H         1 UNK         0.0600 
    183 H183        4.5549  -12.5510  -39.2640 H         1 UNK         0.0600 
    184 H184        4.9245  -10.5040  -41.5221 H         1 UNK         0.3000 
    185 H185        5.7387  -10.6846  -43.7414 H         1 UNK         0.0600 
    186 H186        7.1056  -11.7898  -41.9621 H         1 UNK         0.0600 
    187 H187        6.9167  -13.3474  -42.7585 H         1 UNK         0.0600 
    188 H188        7.8252  -12.0551  -43.5413 H         1 UNK         0.0600 
    189 H189        5.9625  -13.3315  -45.0009 H         1 UNK         0.3000 
    190 H190       -2.9661  -22.3510  -47.8977 H         1 UNK         0.3000 
    191 H191       -5.1640  -22.3157  -49.6813 H         1 UNK         0.0600 
    192 H192       -5.6415  -20.9280  -46.9802 H         1 UNK         0.0600 
    193 H193       -6.9274  -21.5792  -47.9922 H         1 UNK         0.0600 
    194 H194       -5.9385  -20.2606  -48.5824 H         1 UNK         0.0600 
    195 H195       -4.3261  -22.8152  -46.2225 H         1 UNK         0.3000 
    196 H196       -5.6308  -25.3272  -45.9599 H         1 UNK         0.0600 
    197 H197       -4.3884  -25.4095  -43.7837 H         1 UNK         0.0600 
    198 H198       -5.1799  -23.8616  -44.0302 H         1 UNK         0.0600 
    199 H199       -3.4397  -24.0088  -44.2675 H         1 UNK         0.0600 
    200 H200       -2.1169  -24.5302  -46.3259 H         1 UNK         0.3000 
    201 H201       -1.3386  -27.3341  -46.5307 H         1 UNK         0.0600 
    202 H202        0.1409  -25.6052  -45.4879 H         1 UNK         0.0600 
    203 H203        0.2583  -24.7639  -47.0332 H         1 UNK         0.0600 
    204 H204        0.9203  -26.3825  -46.8572 H         1 UNK         0.0600 
    205 H205       -2.2959  -24.7959  -48.6856 H         1 UNK         0.3000 
    206 H206       -1.3244  -26.0006  -51.1631 H         1 UNK         0.0600 
    207 H207       -1.4769  -23.5323  -50.8675 H         1 UNK         0.0600 
    208 H208       -2.5233  -24.0658  -52.1660 H         1 UNK         0.0600 
    209 H209       -3.2207  -23.6561  -50.6139 H         1 UNK         0.0600 
    210 H210       -3.8571  -26.7548  -49.1106 H         1 UNK         0.3000 
    211 H211       -5.6952  -27.9593  -49.1347 H         1 UNK         0.0600 
    212 H212       -4.6507  -29.1227  -51.7728 H         1 UNK         0.0600 
    213 H213       -5.7955  -29.8867  -50.6774 H         1 UNK         0.0600 
    214 H214       -4.1353  -29.6357  -50.1664 H         1 UNK         0.0600 
    215 H215       -5.8975  -25.3439  -50.3093 H         1 UNK         0.3000 
    216 H216       -7.0983  -23.9212  -51.4850 H         1 UNK         0.0600 
    217 H217       -9.5107  -24.2956  -51.7075 H         1 UNK         0.0600 
    218 H218       -8.9657  -24.9242  -50.1624 H         1 UNK         0.0600 
    219 H219       -9.3123  -26.0293  -51.4925 H         1 UNK         0.0600 
    220 H220       -5.4995  -26.0681  -53.0151 H         1 UNK         0.3000 
    221 H221       -6.8680  -26.0009  -55.6752 H         1 UNK         0.0600 
    222 H222       -4.8508  -27.9817  -54.4900 H         1 UNK         0.0600 
    223 H223       -6.5755  -28.2587  -54.7065 H         1 UNK         0.0600 
    224 H224       -5.5364  -28.0592  -56.1101 H         1 UNK         0.0600 
    225 H225       -3.5969  -25.8933  -54.1300 H         1 UNK         0.3000 
    226 H226       -2.3486  -24.8542  -56.5545 H         1 UNK         0.0600 
    227 H227       -1.1107  -26.3542  -55.0381 H         1 UNK         0.0600 
    228 H228       -0.3103  -24.7931  -55.1200 H         1 UNK         0.0600 
    229 H229       -1.2708  -25.2122  -53.7089 H         1 UNK         0.0600 
    230 H230       -3.9119  -23.4740  -53.7775 H         1 UNK         0.3000 
    231 H231       -3.9589  -20.8235  -54.7217 H         1 UNK         0.0600 
    232 H232       -1.6149  -20.6839  -53.8121 H         1 UNK         0.0600 
    233 H233       -2.1483  -21.3871  -52.2872 H         1 UNK         0.0600 
    234 H234       -2.7053  -19.7907  -52.7684 H         1 UNK         0.0600 
    235 H235       -5.3975  -19.5926  -53.2917 H         1 UNK         0.3000 
    236 H236       -6.6097  -20.9566  -50.9882 H         1 UNK         0.0600 
    237 H237       -8.9078  -20.7390  -51.8971 H         1 UNK         0.0600 
    238 H238       -8.2758  -20.1263  -53.4224 H         1 UNK         0.0600 
    239 H239       -7.9531  -21.7877  -52.9291 H         1 UNK         0.0600 
    240 H240       -4.9103  -18.5386  -51.6155 H         1 UNK         0.3000 
    241 H241       -6.6212  -16.2528  -50.9665 H         1 UNK         0.0600 
    242 H242       -4.7789  -17.6848  -47.6255 H         1 UNK         0.3800 
    243 H243       -4.5542  -18.5248  -49.1450 H         1 UNK         0.3800 
    244 H244       -4.9424  -15.7518  -52.5846 H         1 UNK         0.0800 
    245 H245       -4.4630  -14.9485  -51.1148 H         1 UNK         0.0800 
    246 H246       -1.7044  -15.2837  -53.0430 H         1 UNK         0.0800 
    247 H247       -2.1655  -14.5286  -51.5294 H         1 UNK         0.0800 
@<TRIPOS>BOND
     1    1    2 1    
     2    1  127 1    
     3    1  128 1    
     4    1  129 1    
     5    2    3 2    
     6    2    4 am   BACKBONE|DICT|INTERRES
     7    4    5 1    
     8    4  130 1    
     9    5    6 1    
    10    5   65 1    
    11    5  131 1    
    12    6    7 1    
    13    6  132 1    
    14    6  133 1    
    15    7    8 1    
    16    8    9 1    
    17    8  134 1    
    18    8  135 1    
    19    9   10 ar   
    20    9   14 ar   
    21   10   11 ar   
    22   10  136 1    
    23   11   12 ar   
    24   11  126 1    
    25   12   13 ar   
    26   12  137 1    
    27   13   14 ar   
    28   13   15 1    
    29   14  138 1    
    30   15   16 1    
    31   15  139 1    
    32   15  140 1    
    33   16   17 1    
    34   17   18 1    
    35   17  141 1    
    36   17  142 1    
    37   18   19 1    
    38   18   67 1    
    39   18  143 1    
    40   19   20 am   BACKBONE|DICT|INTERRES
    41   19  144 1    
    42   20   21 2    
    43   20   22 1    
    44   22   23 1    
    45   22   24 1    
    46   22  145 1    
    47   23  146 1    
    48   23  147 1    
    49   23  148 1    
    50   24   25 am   BACKBONE|DICT|INTERRES
    51   24  149 1    
    52   25   26 2    
    53   25   27 1    
    54   27   28 1    
    55   27   29 1    
    56   27  150 1    
    57   28  151 1    
    58   28  152 1    
    59   28  153 1    
    60   29   30 am   BACKBONE|DICT|INTERRES
    61   29  154 1    
    62   30   31 2    
    63   30   32 1    
    64   32   33 1    
    65   32   34 1    
    66   32  155 1    
    67   33  156 1    
    68   33  157 1    
    69   33  158 1    
    70   34   35 am   BACKBONE|DICT|INTERRES
    71   34  159 1    
    72   35   36 2    
    73   35   37 1    
    74   37   38 1    
    75   37   39 1    
    76   37  160 1    
    77   38  161 1    
    78   38  162 1    
    79   38  163 1    
    80   39   40 am   BACKBONE|DICT|INTERRES
    81   39  164 1    
    82   40   41 2    
    83   40   42 1    
    84   42   43 1    
    85   42   44 1    
    86   42  165 1    
    87   43  166 1    
    88   43  167 1    
    89   43  168 1    
    90   44   45 am   BACKBONE|DICT|INTERRES
    91   44  169 1    
    92   45   46 2    
    93   45   47 1    
    94   47   48 1    
    95   47   49 1    
    96   47  170 1    
    97   48  171 1    
    98   48  172 1    
    99   48  173 1    
   100   49   50 am   BACKBONE|DICT|INTERRES
   101   49  174 1    
   102   50   51 2    
   103   50   52 1    
   104   52   53 1    
   105   52   54 1    
   106   52  175 1    
   107   53  176 1    
   108   53  177 1    
   109   53  178 1    
   110   54   55 am   BACKBONE|DICT|INTERRES
   111   54  179 1    
   112   55   56 2    
   113   55   57 1    
   114   57   58 1    
   115   57   59 1    
   116   57  180 1    
   117   58  181 1    
   118   58  182 1    
   119   58  183 1    
   120   59   60 am   BACKBONE|DICT|INTERRES
   121   59  184 1    
   122   60   61 2    
   123   60   62 1    
   124   62   63 1    
   125   62   64 1    
   126   62  185 1    
   127   63  186 1    
   128   63  187 1    
   129   63  188 1    
   130   64   65 am   BACKBONE|DICT|INTERRES
   131   64  189 1    
   132   65   66 2    
   133   67   68 2    
   134   67   69 am   BACKBONE|DICT|INTERRES
   135   69   70 1    
   136   69  190 1    
   137   70   71 1    
   138   70   72 1    
   139   70  191 1    
   140   71  192 1    
   141   71  193 1    
   142   71  194 1    
   143   72   73 2    
   144   72   74 am   BACKBONE|DICT|INTERRES
   145   74   75 1    
   146   74  195 1    
   147   75   76 1    
   148   75   77 1    
   149   75  196 1    
   150   76  197 1    
   151   76  198 1    
   152   76  199 1    
   153   77   78 2    
   154   77   79 am   BACKBONE|DICT|INTERRES
   155   79   80 1    
   156   79  200 1    
   157   80   81 1    
   158   80   82 1    
   159   80  201 1    
   160   81  202 1    
   161   81  203 1    
   162   81  204 1    
   163   82   83 2    
   164   82   84 am   BACKBONE|DICT|INTERRES
   165   84   85 1    
   166   84  205 1    
   167   85   86 1    
   168   85   87 1    
   169   85  206 1    
   170   86  207 1    
   171   86  208 1    
   172   86  209 1    
   173   87   88 2    
   174   87   89 am   BACKBONE|DICT|INTERRES
   175   89   90 1    
   176   89  210 1    
   177   90   91 1    
   178   90   92 1    
   179   90  211 1    
   180   91  212 1    
   181   91  213 1    
   182   91  214 1    
   183   92   93 2    
   184   92   94 am   BACKBONE|DICT|INTERRES
   185   94   95 1    
   186   94  215 1    
   187   95   96 1    
   188   95   97 1    
   189   95  216 1    
   190   96  217 1    
   191   96  218 1    
   192   96  219 1    
   193   97   98 2    
   194   97   99 am   BACKBONE|DICT|INTERRES
   195   99  100 1    
   196   99  220 1    
   197  100  101 1    
   198  100  102 1    
   199  100  221 1    
   200  101  222 1    
   201  101  223 1    
   202  101  224 1    
   203  102  103 2    
   204  102  104 am   BACKBONE|DICT|INTERRES
   205  104  105 1    
   206  104  225 1    
   207  105  106 1    
   208  105  107 1    
   209  105  226 1    
   210  106  227 1    
   211  106  228 1    
   212  106  229 1    
   213  107  108 2    
   214  107  109 am   BACKBONE|DICT|INTERRES
   215  109  110 1    
   216  109  230 1    
   217  110  111 1    
   218  110  112 1    
   219  110  231 1    
   220  111  232 1    
   221  111  233 1    
   222  111  234 1    
   223  112  113 2    
   224  112  114 am   BACKBONE|DICT|INTERRES
   225  114  115 1    
   226  114  235 1    
   227  115  116 1    
   228  115  117 1    
   229  115  236 1    
   230  116  237 1    
   231  116  238 1    
   232  116  239 1    
   233  117  118 2    
   234  117  119 am   BACKBONE|DICT|INTERRES
   235  119  120 1    
   236  119  240 1    
   237  120  121 1    
   238  120  124 1    
   239  120  241 1    
   240  121  122 am   BACKBONE|DICT|INTERRES
   241  121  123 2    
   242  122  242 1    
   243  122  243 1    
   244  124  125 1    
   245  124  244 1    
   246  124  245 1    
   247  125  126 1    
   248  126  246 1    
   249  126  247 1    
@<TRIPOS>SUBSTRUCTURE
     1 UNK         1 GROUP             0       ****    0 ROOT    
