@<TRIPOS>MOLECULE
3R540
247   249    1
SMALL
USER_CHARGES


@<TRIPOS>ATOM
      1 CA          4.6750   -9.5725  -47.6585 C.3       0 UNK        -0.1800 
      2 C           3.7237  -10.7508  -47.5076 C.2       0 UNK         0.5000 
      3 O           3.4785  -11.2025  -46.3887 O.2       0 UNK        -0.5000 
      4 N           3.1776  -11.2461  -48.6254 N.am      1 UNK        -0.5000 
      5 CA          2.2297  -12.3641  -48.6931 C.3       1 UNK         0.1400 
      6 C6          2.3160  -13.0804  -50.0647 C.3       23 UNK        -0.0398 
      7 S7          1.5699  -14.7483  -50.0479 S.3       23 UNK        -0.2404 
      8 C8          3.0245  -15.8141  -50.2843 C.3       23 UNK        -0.0205 
      9 C9          2.6051  -17.2003  -50.7437 C.ar      23 UNK        -0.0193 
     10 C10         2.2214  -17.3982  -52.0731 C.ar      23 UNK        -0.1150 
     11 C11         1.8092  -18.6573  -52.5169 C.ar      23 UNK        -0.0193 
     12 C12         1.8125  -19.7315  -51.6246 C.ar      23 UNK        -0.1150 
     13 C13         2.2133  -19.5510  -50.2975 C.ar      23 UNK        -0.0193 
     14 C14         2.5986  -18.2809  -49.8564 C.ar      23 UNK        -0.1150 
     15 C15         2.2472  -20.7417  -49.3573 C.3       23 UNK        -0.0205 
     16 S16         0.5776  -21.2029  -48.8144 S.3       23 UNK        -0.2404 
     17 C17         0.9063  -22.8831  -48.1920 C.3       23 UNK        -0.0398 
     18 CA         -0.0285  -23.3725  -47.0638 C.3       11 UNK         0.1400 
     19 N           0.2494  -22.7648  -45.7591 N.am      11 UNK        -0.5000 
     20 C          -0.1361  -23.3302  -44.6048 C.2       10 UNK         0.5000 
     21 O          -0.7902  -24.3714  -44.5471 O.2       10 UNK        -0.5000 
     22 CA          0.2347  -22.6137  -43.2985 C.3       10 UNK         0.1400 
     23 CB          1.7339  -22.7620  -42.9995 C.3       10 UNK        -0.1800 
     24 N          -0.1461  -21.2041  -43.3087 N.am      10 UNK        -0.5000 
     25 C          -1.4109  -20.7624  -43.3712 C.2       9 UNK         0.5000 
     26 O          -2.3953  -21.5026  -43.3855 O.2       9 UNK        -0.5000 
     27 CA         -1.6092  -19.2388  -43.4712 C.3       9 UNK         0.1400 
     28 CB         -1.5168  -18.5816  -42.0860 C.3       9 UNK        -0.1800 
     29 N          -0.6537  -18.6024  -44.3767 N.am      9 UNK        -0.5000 
     30 C          -0.5593  -18.8607  -45.6885 C.2       8 UNK         0.5000 
     31 O          -1.2877  -19.6523  -46.2830 O.2       8 UNK        -0.5000 
     32 CA          0.5743  -18.1557  -46.4497 C.3       8 UNK         0.1400 
     33 CB          0.2170  -16.6914  -46.7447 C.3       8 UNK        -0.1800 
     34 N           1.8403  -18.2192  -45.7214 N.am      8 UNK        -0.5000 
     35 C           2.5210  -19.3478  -45.4742 C.2       7 UNK         0.5000 
     36 O           2.1657  -20.4677  -45.8426 O.2       7 UNK        -0.5000 
     37 CA          3.8015  -19.1962  -44.6359 C.3       7 UNK         0.1400 
     38 CB          4.9536  -18.6560  -45.4972 C.3       7 UNK        -0.1800 
     39 N           3.6093  -18.3287  -43.4721 N.am      7 UNK        -0.5000 
     40 C           2.8079  -18.6243  -42.4390 C.2       6 UNK         0.5000 
     41 O           2.1502  -19.6598  -42.3558 O.2       6 UNK        -0.5000 
     42 CA          2.6904  -17.5694  -41.3260 C.3       6 UNK         0.1400 
     43 CB          3.8668  -17.6838  -40.3449 C.3       6 UNK        -0.1800 
     44 N           2.5949  -16.1915  -41.8145 N.am      6 UNK        -0.5000 
     45 C           1.6356  -15.7336  -42.6291 C.2       5 UNK         0.5000 
     46 O           0.7933  -16.4497  -43.1738 O.2       5 UNK        -0.5000 
     47 CA          1.6180  -14.2181  -42.8846 C.3       5 UNK         0.1400 
     48 CB          2.2223  -13.8934  -44.2594 C.3       5 UNK        -0.1800 
     49 N           0.2517  -13.6972  -42.7991 N.am      5 UNK        -0.5000 
     50 C          -0.4371  -13.5986  -41.6494 C.2       4 UNK         0.5000 
     51 O           0.0447  -13.8869  -40.5524 O.2       4 UNK        -0.5000 
     52 CA         -1.8865  -13.0703  -41.6972 C.3       4 UNK         0.1400 
     53 CB         -1.9788  -11.6953  -41.0149 C.3       4 UNK        -0.1800 
     54 N          -2.4188  -12.9449  -43.0513 N.am      4 UNK        -0.5000 
     55 C          -2.9690  -13.9343  -43.7673 C.2       3 UNK         0.5000 
     56 O          -3.1518  -15.0731  -43.3375 O.2       3 UNK        -0.5000 
     57 CA         -3.3684  -13.5887  -45.2193 C.3       3 UNK         0.1400 
     58 CB         -4.8724  -13.2881  -45.3073 C.3       3 UNK        -0.1800 
     59 N          -2.6191  -12.4558  -45.7812 N.am      3 UNK        -0.5000 
     60 C          -1.2950  -12.4624  -45.9790 C.2       2 UNK         0.5000 
     61 O          -0.5827  -13.4329  -45.7183 O.2       2 UNK        -0.5000 
     62 CA         -0.6515  -11.1509  -46.4608 C.3       2 UNK         0.1400 
     63 CB         -0.4239  -10.2043  -45.2713 C.3       2 UNK        -0.1800 
     64 N           0.6388  -11.4255  -47.0862 N.am      2 UNK        -0.5000 
     65 C           0.8000  -11.8982  -48.3259 C.2       1 UNK         0.5000 
     66 O          -0.1135  -11.9481  -49.1522 O.2       1 UNK        -0.5000 
     67 C          -1.5234  -23.3288  -47.4408 C.2       11 UNK         0.5000 
     68 O          -1.9944  -24.2602  -48.0928 O.2       11 UNK        -0.5000 
     69 N          -2.2587  -22.3009  -46.9890 N.am      12 UNK        -0.5000 
     70 CA         -3.7159  -22.2081  -47.1091 C.3       12 UNK         0.1400 
     71 CB         -4.1973  -20.8292  -46.6336 C.3       12 UNK        -0.1800 
     72 C          -4.4578  -23.3222  -46.3468 C.2       12 UNK         0.5000 
     73 O          -5.5084  -23.7674  -46.8069 O.2       12 UNK        -0.5000 
     74 N          -3.8970  -23.7645  -45.2147 N.am      13 UNK        -0.5000 
     75 CA         -4.4149  -24.8835  -44.4334 C.3       13 UNK         0.1400 
     76 CB         -3.9700  -24.7332  -42.9697 C.3       13 UNK        -0.1800 
     77 C          -3.9666  -26.2385  -45.0095 C.2       13 UNK         0.5000 
     78 O          -4.7945  -27.1377  -45.1595 O.2       13 UNK        -0.5000 
     79 N          -2.6640  -26.3695  -45.2947 N.am      14 UNK        -0.5000 
     80 CA         -2.0263  -27.6335  -45.6616 C.3       14 UNK         0.1400 
     81 CB         -0.5141  -27.5291  -45.4074 C.3       14 UNK        -0.1800 
     82 C          -2.2944  -28.0773  -47.1096 C.2       14 UNK         0.5000 
     83 O          -2.5635  -29.2585  -47.3336 O.2       14 UNK        -0.5000 
     84 N          -2.1795  -27.1442  -48.0626 N.am      15 UNK        -0.5000 
     85 CA         -2.2097  -27.4238  -49.5023 C.3       15 UNK         0.1400 
     86 CB         -0.8592  -26.9958  -50.1027 C.3       15 UNK        -0.1800 
     87 C          -3.3570  -26.7055  -50.2319 C.2       15 UNK         0.5000 
     88 O          -3.6643  -27.0722  -51.3663 O.2       15 UNK        -0.5000 
     89 N          -3.9370  -25.6802  -49.5918 N.am      16 UNK        -0.5000 
     90 CA         -4.9078  -24.7226  -50.1311 C.3       16 UNK         0.1400 
     91 CB         -6.2138  -25.4179  -50.5687 C.3       16 UNK        -0.1800 
     92 C          -4.3147  -23.8076  -51.2237 C.2       16 UNK         0.5000 
     93 O          -5.0691  -23.2503  -52.0186 O.2       16 UNK        -0.5000 
     94 N          -2.9825  -23.6448  -51.2379 N.am      17 UNK        -0.5000 
     95 CA         -2.2426  -22.9029  -52.2617 C.3       17 UNK         0.1400 
     96 CB         -0.7340  -23.1315  -52.0798 C.3       17 UNK        -0.1800 
     97 C          -2.5931  -21.4059  -52.2760 C.2       17 UNK         0.5000 
     98 O          -3.1088  -20.9078  -53.2773 O.2       17 UNK        -0.5000 
     99 N          -2.3628  -20.7274  -51.1439 N.am      18 UNK        -0.5000 
    100 CA        -2.7083  -19.3157  -50.9621 C.3       18 UNK         0.1400 
    101 CB        -1.9922  -18.7654  -49.7202 C.3       18 UNK        -0.1800 
    102 C         -4.2298  -19.0772  -50.8831 C.2       18 UNK         0.5000 
    103 O         -4.6902  -18.0000  -51.2603 O.2       18 UNK        -0.5000 
    104 N         -4.9900  -20.0932  -50.4440 N.am      19 UNK        -0.5000 
    105 CA        -6.4566  -20.0821  -50.4078 C.3       19 UNK         0.1400 
    106 CB        -6.9663  -21.2909  -49.6082 C.3       19 UNK        -0.1800 
    107 C         -7.0810  -20.0574  -51.8171 C.2       19 UNK         0.5000 
    108 O         -8.0776  -19.3677  -52.0309 O.2       19 UNK        -0.5000 
    109 N         -6.4491  -20.7657  -52.7625 N.am      20 UNK        -0.5000 
    110 CA        -6.7735  -20.7704  -54.1905 C.3       20 UNK         0.1400 
    111 CB        -6.3414  -22.1220  -54.7846 C.3       20 UNK        -0.1800 
    112 C         -6.1284  -19.5960  -54.9595 C.2       20 UNK         0.5000 
    113 O         -6.1371  -19.6068  -56.1922 O.2       20 UNK        -0.5000 
    114 N         -5.5532  -18.6224  -54.2352 N.am      21 UNK        -0.5000 
    115 CA        -4.8624  -17.4278  -54.7322 C.3       21 UNK         0.1400 
    116 CB        -5.8617  -16.4656  -55.4076 C.3       21 UNK        -0.1800 
    117 C         -3.6448  -17.7548  -55.6221 C.2       21 UNK         0.5000 
    118 O         -3.3313  -16.9952  -56.5406 O.2       21 UNK        -0.5000 
    119 N         -2.9881  -18.8863  -55.3319 N.am      22 UNK        -0.5000 
    120 CA        -1.8166  -19.4287  -56.0387 C.3       22 UNK         0.1400 
    121 C         -2.1183  -19.9547  -57.4755 C.2       22 UNK         0.5000 
    122 N         -3.3749  -20.1416  -57.8657 N.am      22 UNK        -0.7600 
    123 O         -1.1999  -20.2311  -58.2427 O.2       22 UNK        -0.5000 
    124 C124       -0.5772  -18.4900  -55.9833 C.3       23 UNK        -0.0398 
    125 S125       -0.1853  -17.9529  -54.2810 S.3       23 UNK        -0.2404 
    126 C126        1.3607  -18.8514  -53.9567 C.3       23 UNK        -0.0205 
    127 H127        4.7984   -9.2815  -48.7020 H         1 UNK         0.0600 
    128 H128        5.6559   -9.8294  -47.2587 H         1 UNK         0.0600 
    129 H129        4.2956   -8.7120  -47.1076 H         1 UNK         0.0600 
    130 H130        3.3924  -10.8052  -49.5087 H         1 UNK         0.3000 
    131 H131        2.5247  -13.0925  -47.9337 H         1 UNK         0.0600 
    132 H132        1.8424  -12.4886  -50.8499 H         1 UNK         0.0800 
    133 H133        3.3614  -13.1722  -50.3618 H         1 UNK         0.0800 
    134 H134        3.6882  -15.3810  -51.0341 H         1 UNK         0.0800 
    135 H135        3.5928  -15.8653  -49.3542 H         1 UNK         0.0800 
    136 H136        2.2193  -16.5632  -52.7599 H         1 UNK         0.1150 
    137 H137        1.5024  -20.7117  -51.9585 H         1 UNK         0.1150 
    138 H138        2.8983  -18.1358  -48.8279 H         1 UNK         0.1150 
    139 H139        2.7117  -21.5851  -49.8705 H         1 UNK         0.0800 
    140 H140        2.8665  -20.5304  -48.4847 H         1 UNK         0.0800 
    141 H141        1.9392  -22.9381  -47.8448 H         1 UNK         0.0800 
    142 H142        0.8460  -23.5671  -49.0400 H         1 UNK         0.0800 
    143 H143        0.2033  -24.4341  -46.9516 H         1 UNK         0.0600 
    144 H144        0.7828  -21.8990  -45.7544 H         1 UNK         0.3000 
    145 H145       -0.3157  -23.0997  -42.4901 H         1 UNK         0.0600 
    146 H146        1.9778  -22.3687  -42.0127 H         1 UNK         0.0600 
    147 H147        2.0339  -23.8106  -43.0126 H         1 UNK         0.0600 
    148 H148        2.3472  -22.2349  -43.7306 H         1 UNK         0.0600 
    149 H149        0.6116  -20.5306  -43.2522 H         1 UNK         0.3000 
    150 H150       -2.6105  -19.0590  -43.8676 H         1 UNK         0.0600 
    151 H151       -2.2343  -19.0240  -41.3940 H         1 UNK         0.0600 
    152 H152       -1.7332  -17.5142  -42.1427 H         1 UNK         0.0600 
    153 H153       -0.5232  -18.6978  -41.6517 H         1 UNK         0.0600 
    154 H154       -0.0325  -17.9076  -43.9671 H         1 UNK         0.3000 
    155 H155        0.7085  -18.6655  -47.4045 H         1 UNK         0.0600 
    156 H156        0.0473  -16.1238  -45.8293 H         1 UNK         0.0600 
    157 H157       -0.6929  -16.6265  -47.3424 H         1 UNK         0.0600 
    158 H158        1.0089  -16.1953  -47.3057 H         1 UNK         0.0600 
    159 H159        2.1745  -17.3562  -45.3204 H         1 UNK         0.3000 
    160 H160        4.0821  -20.1884  -44.2757 H         1 UNK         0.0600 
    161 H161        4.7504  -17.6479  -45.8607 H         1 UNK         0.0600 
    162 H162        5.1197  -19.2914  -46.3682 H         1 UNK         0.0600 
    163 H163        5.8866  -18.6281  -44.9340 H         1 UNK         0.0600 
    164 H164        4.1066  -17.4505  -43.4627 H         1 UNK         0.3000 
    165 H165        1.7712  -17.7813  -40.7758 H         1 UNK         0.0600 
    166 H166        3.7354  -17.0179  -39.4917 H         1 UNK         0.0600 
    167 H167        3.9509  -18.6983  -39.9526 H         1 UNK         0.0600 
    168 H168        4.8160  -17.4364  -40.8217 H         1 UNK         0.0600 
    169 H169        3.2526  -15.5341  -41.4209 H         1 UNK         0.3000 
    170 H170        2.2194  -13.7168  -42.1232 H         1 UNK         0.0600 
    171 H171        3.2801  -14.1566  -44.2912 H         1 UNK         0.0600 
    172 H172        1.7286  -14.4425  -45.0612 H         1 UNK         0.0600 
    173 H173        2.1454  -12.8298  -44.4848 H         1 UNK         0.0600 
    174 H174       -0.2167  -13.5262  -43.6814 H         1 UNK         0.3000 
    175 H175       -2.5068  -13.7713  -41.1347 H         1 UNK         0.0600 
    176 H176       -1.3710  -10.9495  -41.5289 H         1 UNK         0.0600 
    177 H177       -3.0072  -11.3340  -40.9927 H         1 UNK         0.0600 
    178 H178       -1.6327  -11.7452  -39.9817 H         1 UNK         0.0600 
    179 H179       -2.3203  -12.0420  -43.4901 H         1 UNK         0.3000 
    180 H180       -3.1577  -14.4681  -45.8319 H         1 UNK         0.0600 
    181 H181       -5.1404  -12.4030  -44.7289 H         1 UNK         0.0600 
    182 H182       -5.4606  -14.1223  -44.9224 H         1 UNK         0.0600 
    183 H183       -5.1826  -13.1231  -46.3393 H         1 UNK         0.0600 
    184 H184       -3.1507  -11.6257  -46.0023 H         1 UNK         0.3000 
    185 H185       -1.3140  -10.6686  -47.1825 H         1 UNK         0.0600 
    186 H186       -1.3671   -9.9377  -44.7932 H         1 UNK         0.0600 
    187 H187        0.2143  -10.6580  -44.5112 H         1 UNK         0.0600 
    188 H188        0.0487   -9.2759  -45.5927 H         1 UNK         0.0600 
    189 H189        1.4537  -11.4097  -46.4826 H         1 UNK         0.3000 
    190 H190       -1.7923  -21.5248  -46.5257 H         1 UNK         0.3000 
    191 H191       -3.9681  -22.3063  -48.1659 H         1 UNK         0.0600 
    192 H192       -3.8137  -20.0333  -47.2702 H         1 UNK         0.0600 
    193 H193       -5.2851  -20.7597  -46.6530 H         1 UNK         0.0600 
    194 H194       -3.8774  -20.6245  -45.6116 H         1 UNK         0.0600 
    195 H195       -3.0412  -23.3339  -44.8886 H         1 UNK         0.3000 
    196 H196       -5.5067  -24.8563  -44.4502 H         1 UNK         0.0600 
    197 H197       -4.3577  -25.5488  -42.3582 H         1 UNK         0.0600 
    198 H198       -4.3390  -23.8009  -42.5419 H         1 UNK         0.0600 
    199 H199       -2.8842  -24.7356  -42.8707 H         1 UNK         0.0600 
    200 H200       -2.0402  -25.5882  -45.1022 H         1 UNK         0.3000 
    201 H201       -2.4167  -28.4123  -45.0026 H         1 UNK         0.0600 
    202 H202       -0.3056  -27.2986  -44.3624 H         1 UNK         0.0600 
    203 H203       -0.0546  -26.7515  -46.0182 H         1 UNK         0.0600 
    204 H204       -0.0119  -28.4691  -45.6395 H         1 UNK         0.0600 
    205 H205       -1.9835  -26.1847  -47.7974 H         1 UNK         0.3000 
    206 H206       -2.3389  -28.4917  -49.6892 H         1 UNK         0.0600 
    207 H207       -0.0354  -27.5454  -49.6470 H         1 UNK         0.0600 
    208 H208       -0.8250  -27.1918  -51.1752 H         1 UNK         0.0600 
    209 H209       -0.6713  -25.9313  -49.9572 H         1 UNK         0.0600 
    210 H210       -3.5505  -25.4296  -48.6900 H         1 UNK         0.3000 
    211 H211       -5.1642  -24.0586  -49.3095 H         1 UNK         0.0600 
    212 H212       -6.0735  -26.0274  -51.4613 H         1 UNK         0.0600 
    213 H213       -6.9885  -24.6853  -50.7975 H         1 UNK         0.0600 
    214 H214       -6.6014  -26.0605  -49.7782 H         1 UNK         0.0600 
    215 H215       -2.4399  -24.1063  -50.5215 H         1 UNK         0.3000 
    216 H216       -2.5258  -23.3107  -53.2345 H         1 UNK         0.0600 
    217 H217       -0.1613  -22.5707  -52.8197 H         1 UNK         0.0600 
    218 H218       -0.4795  -24.1844  -52.2026 H         1 UNK         0.0600 
    219 H219       -0.3915  -22.8203  -51.0943 H         1 UNK         0.0600 
    220 H220       -1.9177  -21.1934  -50.3668 H         1 UNK         0.3000 
    221 H221       -2.3411  -18.7613  -51.8291 H         1 UNK         0.0600 
    222 H222       -2.2092  -19.3584  -48.8327 H         1 UNK         0.0600 
    223 H223       -0.9112  -18.7614  -49.8628 H         1 UNK         0.0600 
    224 H224       -2.2912  -17.7371  -49.5132 H         1 UNK         0.0600 
    225 H225       -4.5309  -20.9532  -50.1905 H         1 UNK         0.3000 
    226 H226       -6.7713  -19.1749  -49.8876 H         1 UNK         0.0600 
    227 H227       -6.5453  -21.3135  -48.6041 H         1 UNK         0.0600 
    228 H228       -8.0512  -21.2541  -49.5025 H         1 UNK         0.0600 
    229 H229       -6.7221  -22.2326  -50.0974 H         1 UNK         0.0600 
    230 H230       -5.6696  -21.3565  -52.4917 H         1 UNK         0.3000 
    231 H231       -7.8546  -20.6786  -54.3105 H         1 UNK         0.0600 
    232 H232       -6.8112  -22.9522  -54.2568 H         1 UNK         0.0600 
    233 H233       -5.2605  -22.2570  -54.7243 H         1 UNK         0.0600 
    234 H234       -6.6267  -22.2046  -55.8339 H         1 UNK         0.0600 
    235 H235       -5.5720  -18.7148  -53.2281 H         1 UNK         0.3000 
    236 H236       -4.4619  -16.9212  -53.8532 H         1 UNK         0.0600 
    237 H237       -5.3867  -15.5146  -55.6509 H         1 UNK         0.0600 
    238 H238       -6.2586  -16.8794  -56.3351 H         1 UNK         0.0600 
    239 H239       -6.7033  -16.2469  -54.7503 H         1 UNK         0.0600 
    240 H240       -3.3128  -19.4621  -54.5606 H         1 UNK         0.3000 
    241 H241       -1.5491  -20.3269  -55.4816 H         1 UNK         0.0600 
    242 H242       -4.1472  -19.9170  -57.2518 H         1 UNK         0.3800 
    243 H243       -3.5591  -20.4922  -58.7923 H         1 UNK         0.3800 
    244 H244       -0.7426  -17.6007  -56.5925 H         1 UNK         0.0800 
    245 H245        0.2958  -18.9851  -56.4112 H         1 UNK         0.0800 
    246 H246        1.2140  -19.9105  -54.1751 H         1 UNK         0.0800 
    247 H247        2.1398  -18.4945  -54.6317 H         1 UNK         0.0800 
@<TRIPOS>BOND
     1    1    2 1    
     2    1  127 1    
     3    1  128 1    
     4    1  129 1    
     5    2    3 2    
     6    2    4 am   BACKBONE|DICT|INTERRES
     7    4    5 1    
     8    4  130 1    
     9    5    6 1    
    10    5   65 1    
    11    5  131 1    
    12    6    7 1    
    13    6  132 1    
    14    6  133 1    
    15    7    8 1    
    16    8    9 1    
    17    8  134 1    
    18    8  135 1    
    19    9   10 ar   
    20    9   14 ar   
    21   10   11 ar   
    22   10  136 1    
    23   11   12 ar   
    24   11  126 1    
    25   12   13 ar   
    26   12  137 1    
    27   13   14 ar   
    28   13   15 1    
    29   14  138 1    
    30   15   16 1    
    31   15  139 1    
    32   15  140 1    
    33   16   17 1    
    34   17   18 1    
    35   17  141 1    
    36   17  142 1    
    37   18   19 1    
    38   18   67 1    
    39   18  143 1    
    40   19   20 am   BACKBONE|DICT|INTERRES
    41   19  144 1    
    42   20   21 2    
    43   20   22 1    
    44   22   23 1    
    45   22   24 1    
    46   22  145 1    
    47   23  146 1    
    48   23  147 1    
    49   23  148 1    
    50   24   25 am   BACKBONE|DICT|INTERRES
    51   24  149 1    
    52   25   26 2    
    53   25   27 1    
    54   27   28 1    
    55   27   29 1    
    56   27  150 1    
    57   28  151 1    
    58   28  152 1    
    59   28  153 1    
    60   29   30 am   BACKBONE|DICT|INTERRES
    61   29  154 1    
    62   30   31 2    
    63   30   32 1    
    64   32   33 1    
    65   32   34 1    
    66   32  155 1    
    67   33  156 1    
    68   33  157 1    
    69   33  158 1    
    70   34   35 am   BACKBONE|DICT|INTERRES
    71   34  159 1    
    72   35   36 2    
    73   35   37 1    
    74   37   38 1    
    75   37   39 1    
    76   37  160 1    
    77   38  161 1    
    78   38  162 1    
    79   38  163 1    
    80   39   40 am   BACKBONE|DICT|INTERRES
    81   39  164 1    
    82   40   41 2    
    83   40   42 1    
    84   42   43 1    
    85   42   44 1    
    86   42  165 1    
    87   43  166 1    
    88   43  167 1    
    89   43  168 1    
    90   44   45 am   BACKBONE|DICT|INTERRES
    91   44  169 1    
    92   45   46 2    
    93   45   47 1    
    94   47   48 1    
    95   47   49 1    
    96   47  170 1    
    97   48  171 1    
    98   48  172 1    
    99   48  173 1    
   100   49   50 am   BACKBONE|DICT|INTERRES
   101   49  174 1    
   102   50   51 2    
   103   50   52 1    
   104   52   53 1    
   105   52   54 1    
   106   52  175 1    
   107   53  176 1    
   108   53  177 1    
   109   53  178 1    
   110   54   55 am   BACKBONE|DICT|INTERRES
   111   54  179 1    
   112   55   56 2    
   113   55   57 1    
   114   57   58 1    
   115   57   59 1    
   116   57  180 1    
   117   58  181 1    
   118   58  182 1    
   119   58  183 1    
   120   59   60 am   BACKBONE|DICT|INTERRES
   121   59  184 1    
   122   60   61 2    
   123   60   62 1    
   124   62   63 1    
   125   62   64 1    
   126   62  185 1    
   127   63  186 1    
   128   63  187 1    
   129   63  188 1    
   130   64   65 am   BACKBONE|DICT|INTERRES
   131   64  189 1    
   132   65   66 2    
   133   67   68 2    
   134   67   69 am   BACKBONE|DICT|INTERRES
   135   69   70 1    
   136   69  190 1    
   137   70   71 1    
   138   70   72 1    
   139   70  191 1    
   140   71  192 1    
   141   71  193 1    
   142   71  194 1    
   143   72   73 2    
   144   72   74 am   BACKBONE|DICT|INTERRES
   145   74   75 1    
   146   74  195 1    
   147   75   76 1    
   148   75   77 1    
   149   75  196 1    
   150   76  197 1    
   151   76  198 1    
   152   76  199 1    
   153   77   78 2    
   154   77   79 am   BACKBONE|DICT|INTERRES
   155   79   80 1    
   156   79  200 1    
   157   80   81 1    
   158   80   82 1    
   159   80  201 1    
   160   81  202 1    
   161   81  203 1    
   162   81  204 1    
   163   82   83 2    
   164   82   84 am   BACKBONE|DICT|INTERRES
   165   84   85 1    
   166   84  205 1    
   167   85   86 1    
   168   85   87 1    
   169   85  206 1    
   170   86  207 1    
   171   86  208 1    
   172   86  209 1    
   173   87   88 2    
   174   87   89 am   BACKBONE|DICT|INTERRES
   175   89   90 1    
   176   89  210 1    
   177   90   91 1    
   178   90   92 1    
   179   90  211 1    
   180   91  212 1    
   181   91  213 1    
   182   91  214 1    
   183   92   93 2    
   184   92   94 am   BACKBONE|DICT|INTERRES
   185   94   95 1    
   186   94  215 1    
   187   95   96 1    
   188   95   97 1    
   189   95  216 1    
   190   96  217 1    
   191   96  218 1    
   192   96  219 1    
   193   97   98 2    
   194   97   99 am   BACKBONE|DICT|INTERRES
   195   99  100 1    
   196   99  220 1    
   197  100  101 1    
   198  100  102 1    
   199  100  221 1    
   200  101  222 1    
   201  101  223 1    
   202  101  224 1    
   203  102  103 2    
   204  102  104 am   BACKBONE|DICT|INTERRES
   205  104  105 1    
   206  104  225 1    
   207  105  106 1    
   208  105  107 1    
   209  105  226 1    
   210  106  227 1    
   211  106  228 1    
   212  106  229 1    
   213  107  108 2    
   214  107  109 am   BACKBONE|DICT|INTERRES
   215  109  110 1    
   216  109  230 1    
   217  110  111 1    
   218  110  112 1    
   219  110  231 1    
   220  111  232 1    
   221  111  233 1    
   222  111  234 1    
   223  112  113 2    
   224  112  114 am   BACKBONE|DICT|INTERRES
   225  114  115 1    
   226  114  235 1    
   227  115  116 1    
   228  115  117 1    
   229  115  236 1    
   230  116  237 1    
   231  116  238 1    
   232  116  239 1    
   233  117  118 2    
   234  117  119 am   BACKBONE|DICT|INTERRES
   235  119  120 1    
   236  119  240 1    
   237  120  121 1    
   238  120  124 1    
   239  120  241 1    
   240  121  122 am   BACKBONE|DICT|INTERRES
   241  121  123 2    
   242  122  242 1    
   243  122  243 1    
   244  124  125 1    
   245  124  244 1    
   246  124  245 1    
   247  125  126 1    
   248  126  246 1    
   249  126  247 1    
@<TRIPOS>SUBSTRUCTURE
     1 UNK         1 GROUP             0       ****    0 ROOT    
