@<TRIPOS>MOLECULE
3R540
247   249    1
SMALL
USER_CHARGES


@<TRIPOS>ATOM
      1 CA          2.4453  -11.9248  -48.8642 C.3       0 UNK        -0.1800 
      2 C           2.9427  -12.6976  -47.6511 C.2       0 UNK         0.5000 
      3 O           3.4874  -12.1011  -46.7210 O.2       0 UNK        -0.5000 
      4 N           2.7514  -14.0220  -47.6510 N.am      1 UNK        -0.5000 
      5 CA          3.1296  -14.9431  -46.5728 C.3       1 UNK         0.1400 
      6 C6          3.3620  -16.3762  -47.1115 C.3       23 UNK        -0.0398 
      7 S7          4.9010  -16.4822  -48.0829 S.3       23 UNK        -0.2404 
      8 C8          4.2823  -16.5116  -49.7970 C.3       23 UNK        -0.0205 
      9 C9          3.6738  -17.8538  -50.1796 C.ar      23 UNK        -0.0193 
     10 C10         2.3446  -17.9379  -50.6001 C.ar      23 UNK        -0.1150 
     11 C11         1.7996  -19.1647  -50.9918 C.ar      23 UNK        -0.0193 
     12 C12         2.5955  -20.3142  -50.9512 C.ar      23 UNK        -0.1150 
     13 C13         3.9187  -20.2559  -50.4909 C.ar      23 UNK        -0.0193 
     14 C14         4.4495  -19.0147  -50.1294 C.ar      23 UNK        -0.1150 
     15 C15         4.8197  -21.4831  -50.3239 C.3       23 UNK        -0.0205 
     16 S16         4.1871  -23.0823  -50.9419 S.3       23 UNK        -0.2404 
     17 C17         2.8502  -23.6351  -49.8149 C.3       23 UNK        -0.0398 
     18 CA          3.0927  -23.5568  -48.2719 C.3       11 UNK         0.1400 
     19 N           3.0558  -22.1859  -47.7375 N.am      11 UNK        -0.5000 
     20 C           1.9910  -21.3721  -47.7493 C.2       10 UNK         0.5000 
     21 O           0.8918  -21.7161  -48.1755 O.2       10 UNK        -0.5000 
     22 CA          2.1869  -19.9522  -47.1854 C.3       10 UNK         0.1400 
     23 CB          0.9020  -19.1103  -47.2576 C.3       10 UNK        -0.1800 
     24 N           2.6369  -19.9911  -45.7991 N.am      10 UNK        -0.5000 
     25 C           3.9095  -20.1170  -45.4016 C.2       9 UNK         0.5000 
     26 O           4.8510  -20.2616  -46.1818 O.2       9 UNK        -0.5000 
     27 CA          4.1766  -20.0984  -43.8826 C.3       9 UNK         0.1400 
     28 CB          4.5132  -18.6700  -43.4261 C.3       9 UNK        -0.1800 
     29 N           3.0531  -20.5966  -43.0864 N.am      9 UNK        -0.5000 
     30 C           2.5725  -21.8470  -43.1336 C.2       8 UNK         0.5000 
     31 O           3.0882  -22.7469  -43.7968 O.2       8 UNK        -0.5000 
     32 CA          1.2711  -22.1288  -42.3508 C.3       8 UNK         0.1400 
     33 CB          1.5897  -22.7662  -40.9909 C.3       8 UNK        -0.1800 
     34 N           0.4126  -20.9554  -42.1463 N.am      8 UNK        -0.5000 
     35 C          -0.1072  -20.2074  -43.1291 C.2       7 UNK         0.5000 
     36 O           0.1427  -20.3916  -44.3204 O.2       7 UNK        -0.5000 
     37 CA         -0.9722  -19.0117  -42.6967 C.3       7 UNK         0.1400 
     38 CB         -0.0765  -17.8759  -42.1820 C.3       7 UNK        -0.1800 
     39 N          -1.7778  -18.4956  -43.8025 N.am      7 UNK        -0.5000 
     40 C          -2.9354  -19.0241  -44.2199 C.2       6 UNK         0.5000 
     41 O          -3.4759  -19.9890  -43.6795 O.2       6 UNK        -0.5000 
     42 CA         -3.6352  -18.3533  -45.4167 C.3       6 UNK         0.1400 
     43 CB         -5.0012  -17.7972  -44.9777 C.3       6 UNK        -0.1800 
     44 N          -2.8475  -17.2594  -45.9881 N.am      6 UNK        -0.5000 
     45 C          -2.1782  -17.3076  -47.1498 C.2       5 UNK         0.5000 
     46 O          -2.1795  -18.2828  -47.9025 O.2       5 UNK        -0.5000 
     47 CA         -1.4236  -16.0143  -47.5448 C.3       5 UNK         0.1400 
     48 CB         -0.8823  -16.0059  -48.9883 C.3       5 UNK        -0.1800 
     49 N          -2.2114  -14.8076  -47.2796 N.am      5 UNK        -0.5000 
     50 C          -3.4573  -14.5635  -47.7161 C.2       4 UNK         0.5000 
     51 O          -4.0126  -15.2404  -48.5829 O.2       4 UNK        -0.5000 
     52 CA         -4.2340  -13.4040  -47.0519 C.3       4 UNK         0.1400 
     53 CB         -5.7099  -13.7820  -46.8086 C.3       4 UNK        -0.1800 
     54 N          -3.6388  -12.8893  -45.8096 N.am      4 UNK        -0.5000 
     55 C          -3.3672  -13.5610  -44.6798 C.2       3 UNK         0.5000 
     56 O          -3.5478  -14.7705  -44.5239 O.2       3 UNK        -0.5000 
     57 CA         -2.7188  -12.7370  -43.5527 C.3       3 UNK         0.1400 
     58 CB         -3.4818  -12.9227  -42.2312 C.3       3 UNK        -0.1800 
     59 N          -1.3051  -13.0567  -43.3322 N.am      3 UNK        -0.5000 
     60 C          -0.3344  -13.1326  -44.2548 C.2       2 UNK         0.5000 
     61 O          -0.5247  -13.0006  -45.4675 O.2       2 UNK        -0.5000 
     62 CA          1.1009  -13.3225  -43.7161 C.3       2 UNK         0.1400 
     63 CB          1.1838  -14.2610  -42.4938 C.3       2 UNK        -0.1800 
     64 N           2.0437  -13.7283  -44.7608 N.am      2 UNK        -0.5000 
     65 C           2.0874  -14.8855  -45.4345 C.2       1 UNK         0.5000 
     66 O           1.3533  -15.8490  -45.2092 O.2       1 UNK        -0.5000 
     67 C           2.1292  -24.4926  -47.4886 C.2       11 UNK         0.5000 
     68 O           1.4730  -25.3443  -48.0911 O.2       11 UNK        -0.5000 
     69 N           2.0508  -24.3175  -46.1581 N.am      12 UNK        -0.5000 
     70 CA          1.1776  -25.0520  -45.2312 C.3       12 UNK         0.1400 
     71 CB          1.5782  -26.5411  -45.1532 C.3       12 UNK        -0.1800 
     72 C          -0.3277  -24.8365  -45.5092 C.2       12 UNK         0.5000 
     73 O          -1.1124  -25.7843  -45.4301 O.2       12 UNK        -0.5000 
     74 N          -0.7039  -23.5931  -45.8396 N.am      13 UNK        -0.5000 
     75 CA         -2.0816  -23.1823  -46.1110 C.3       13 UNK         0.1400 
     76 CB         -2.0811  -21.7535  -46.6741 C.3       13 UNK        -0.1800 
     77 C          -2.9977  -23.2337  -44.8745 C.2       13 UNK         0.5000 
     78 O          -2.5255  -23.1666  -43.7367 O.2       13 UNK        -0.5000 
     79 N          -4.3049  -23.2936  -45.1496 N.am      14 UNK        -0.5000 
     80 CA         -5.3884  -23.1180  -44.1815 C.3       14 UNK         0.1400 
     81 CB         -5.8792  -24.4997  -43.7129 C.3       14 UNK        -0.1800 
     82 C          -6.5337  -22.2662  -44.7727 C.2       14 UNK         0.5000 
     83 O          -7.6039  -22.1834  -44.1685 O.2       14 UNK        -0.5000 
     84 N          -6.3047  -21.6571  -45.9435 N.am      15 UNK        -0.5000 
     85 CA         -7.2355  -20.8171  -46.6889 C.3       15 UNK         0.1400 
     86 CB         -8.2061  -21.6932  -47.4988 C.3       15 UNK        -0.1800 
     87 C          -6.4079  -19.9137  -47.6122 C.2       15 UNK         0.5000 
     88 O          -5.2813  -20.2823  -47.9567 O.2       15 UNK        -0.5000 
     89 N          -6.9748  -18.7576  -47.9821 N.am      16 UNK        -0.5000 
     90 CA         -6.3255  -17.6734  -48.7275 C.3       16 UNK         0.1400 
     91 CB         -7.3616  -16.5839  -49.0385 C.3       16 UNK        -0.1800 
     92 C          -5.6141  -18.1262  -50.0150 C.2       16 UNK         0.5000 
     93 O          -6.1923  -18.8772  -50.8045 O.2       16 UNK        -0.5000 
     94 N          -4.3656  -17.6706  -50.1776 N.am      17 UNK        -0.5000 
     95 CA         -3.4230  -18.0173  -51.2454 C.3       17 UNK         0.1400 
     96 CB         -3.8193  -17.3037  -52.5526 C.3       17 UNK        -0.1800 
     97 C          -3.2051  -19.5372  -51.4115 C.2       17 UNK         0.5000 
     98 O          -3.0788  -20.0213  -52.5379 O.2       17 UNK        -0.5000 
     99 N          -3.1877  -20.2618  -50.2825 N.am      18 UNK        -0.5000 
    100 CA        -3.1417  -21.7245  -50.1776 C.3       18 UNK         0.1400 
    101 CB        -1.7611  -22.2645  -50.5985 C.3       18 UNK        -0.1800 
    102 C         -4.3200  -22.4034  -50.9031 C.2       18 UNK         0.5000 
    103 O         -4.1223  -23.3523  -51.6619 O.2       18 UNK        -0.5000 
    104 N         -5.5253  -21.8705  -50.6564 N.am      19 UNK        -0.5000 
    105 CA        -6.7945  -22.1997  -51.3123 C.3       19 UNK         0.1400 
    106 CB        -7.2137  -23.6577  -51.0254 C.3       19 UNK        -0.1800 
    107 C         -6.7643  -21.8543  -52.8165 C.2       19 UNK         0.5000 
    108 O         -7.1295  -22.6816  -53.6540 O.2       19 UNK        -0.5000 
    109 N         -6.3203  -20.6242  -53.1162 N.am      20 UNK        -0.5000 
    110 CA        -6.1725  -20.0287  -54.4495 C.3       20 UNK         0.1400 
    111 CB        -7.5563  -19.7822  -55.0862 C.3       20 UNK        -0.1800 
    112 C         -5.2084  -20.8042  -55.3750 C.2       20 UNK         0.5000 
    113 O         -5.4720  -20.9317  -56.5724 O.2       20 UNK        -0.5000 
    114 N         -4.1044  -21.3033  -54.8064 N.am      21 UNK        -0.5000 
    115 CA        -3.0700  -22.0530  -55.5146 C.3       21 UNK         0.1400 
    116 CB        -2.5536  -23.1899  -54.6224 C.3       21 UNK        -0.1800 
    117 C         -1.9128  -21.1457  -55.9609 C.2       21 UNK         0.5000 
    118 O         -1.4587  -21.2845  -57.0978 O.2       21 UNK        -0.5000 
    119 N         -1.4577  -20.2355  -55.0845 N.am      22 UNK        -0.5000 
    120 CA        -0.3765  -19.2772  -55.3949 C.3       22 UNK         0.1400 
    121 C         -0.8619  -17.9441  -56.0398 C.2       22 UNK         0.5000 
    122 N         -2.1595  -17.7250  -56.2169 N.am      22 UNK        -0.7600 
    123 O         -0.0463  -17.1040  -56.4107 O.2       22 UNK        -0.5000 
    124 C124        0.6023  -19.0597  -54.2080 C.3       23 UNK        -0.0398 
    125 S125       -0.1016  -18.1641  -52.7820 S.3       23 UNK        -0.2404 
    126 C126        0.3339  -19.2626  -51.3968 C.3       23 UNK        -0.0205 
    127 H127        3.2721  -11.3928  -49.3349 H         1 UNK         0.0600 
    128 H128        1.6960  -11.1938  -48.5604 H         1 UNK         0.0600 
    129 H129        1.9962  -12.5829  -49.6086 H         1 UNK         0.0600 
    130 H130        2.2704  -14.4427  -48.4313 H         1 UNK         0.3000 
    131 H131        4.0724  -14.6038  -46.1372 H         1 UNK         0.0600 
    132 H132        2.5167  -16.7074  -47.7147 H         1 UNK         0.0800 
    133 H133        3.4561  -17.0891  -46.2906 H         1 UNK         0.0800 
    134 H134        3.5699  -15.6989  -49.9428 H         1 UNK         0.0800 
    135 H135        5.1164  -16.3075  -50.4695 H         1 UNK         0.0800 
    136 H136        1.7312  -17.0486  -50.6310 H         1 UNK         0.1150 
    137 H137        2.1599  -21.2545  -51.2484 H         1 UNK         0.1150 
    138 H138        5.4726  -18.9514  -49.7851 H         1 UNK         0.1150 
    139 H139        5.7450  -21.2851  -50.8668 H         1 UNK         0.0800 
    140 H140        5.1140  -21.5844  -49.2799 H         1 UNK         0.0800 
    141 H141        1.9200  -23.1370  -50.0856 H         1 UNK         0.0800 
    142 H142        2.6982  -24.6734  -50.1130 H         1 UNK         0.0800 
    143 H143        4.0957  -23.9378  -48.0758 H         1 UNK         0.0600 
    144 H144        3.9165  -21.8271  -47.3416 H         1 UNK         0.3000 
    145 H145        2.9442  -19.4529  -47.7903 H         1 UNK         0.0600 
    146 H146        1.0170  -18.1486  -46.7611 H         1 UNK         0.0600 
    147 H147        0.0587  -19.6147  -46.7890 H         1 UNK         0.0600 
    148 H148        0.6241  -18.9194  -48.2926 H         1 UNK         0.0600 
    149 H149        1.8972  -19.9766  -45.1033 H         1 UNK         0.3000 
    150 H150        5.0399  -20.7383  -43.6890 H         1 UNK         0.0600 
    151 H151        3.6726  -17.9906  -43.5765 H         1 UNK         0.0600 
    152 H152        4.7812  -18.6453  -42.3697 H         1 UNK         0.0600 
    153 H153        5.3609  -18.2707  -43.9848 H         1 UNK         0.0600 
    154 H154        2.5670  -19.9218  -42.5155 H         1 UNK         0.3000 
    155 H155        0.6898  -22.8448  -42.9337 H         1 UNK         0.0600 
    156 H156        2.2020  -23.6609  -41.1121 H         1 UNK         0.0600 
    157 H157        0.6790  -23.0664  -40.4722 H         1 UNK         0.0600 
    158 H158        2.1361  -22.0794  -40.3432 H         1 UNK         0.0600 
    159 H159        0.1845  -20.7311  -41.1885 H         1 UNK         0.3000 
    160 H160       -1.6350  -19.3331  -41.8905 H         1 UNK         0.0600 
    161 H161        0.6304  -17.5501  -42.9467 H         1 UNK         0.0600 
    162 H162        0.5021  -18.1885  -41.3121 H         1 UNK         0.0600 
    163 H163       -0.6718  -17.0143  -41.8795 H         1 UNK         0.0600 
    164 H164       -1.3792  -17.7378  -44.3356 H         1 UNK         0.3000 
    165 H165       -3.8005  -19.1262  -46.1666 H         1 UNK         0.0600 
    166 H166       -5.4947  -17.2570  -45.7834 H         1 UNK         0.0600 
    167 H167       -5.6691  -18.6018  -44.6676 H         1 UNK         0.0600 
    168 H168       -4.9028  -17.1111  -44.1357 H         1 UNK         0.0600 
    169 H169       -2.8739  -16.3847  -45.4706 H         1 UNK         0.3000 
    170 H170       -0.5628  -15.9688  -46.8808 H         1 UNK         0.0600 
    171 H171       -0.3279  -16.9163  -49.2125 H         1 UNK         0.0600 
    172 H172       -1.6812  -15.9124  -49.7214 H         1 UNK         0.0600 
    173 H173       -0.2011  -15.1690  -49.1402 H         1 UNK         0.0600 
    174 H174       -1.8190  -14.1739  -46.5902 H         1 UNK         0.3000 
    175 H175       -4.2134  -12.5798  -47.7660 H         1 UNK         0.0600 
    176 H176       -5.8012  -14.6565  -46.1635 H         1 UNK         0.0600 
    177 H177       -6.2563  -12.9624  -46.3422 H         1 UNK         0.0600 
    178 H178       -6.2166  -14.0127  -47.7461 H         1 UNK         0.0600 
    179 H179       -3.3855  -11.9113  -45.8402 H         1 UNK         0.3000 
    180 H180       -2.7716  -11.6800  -43.8208 H         1 UNK         0.0600 
    181 H181       -3.4113  -13.9485  -41.8665 H         1 UNK         0.0600 
    182 H182       -4.5406  -12.6913  -42.3554 H         1 UNK         0.0600 
    183 H183       -3.0954  -12.2628  -41.4543 H         1 UNK         0.0600 
    184 H184       -1.0420  -13.1958  -42.3680 H         1 UNK         0.3000 
    185 H185        1.4325  -12.3347  -43.3936 H         1 UNK         0.0600 
    186 H186        0.6913  -13.8287  -41.6225 H         1 UNK         0.0600 
    187 H187        0.7115  -15.2196  -42.6965 H         1 UNK         0.0600 
    188 H188        2.2192  -14.4519  -42.2113 H         1 UNK         0.0600 
    189 H189        2.6416  -12.9867  -45.1121 H         1 UNK         0.3000 
    190 H190        2.6185  -23.5974  -45.7262 H         1 UNK         0.3000 
    191 H191        1.3561  -24.6347  -44.2421 H         1 UNK         0.0600 
    192 H192        1.0332  -27.0495  -44.3572 H         1 UNK         0.0600 
    193 H193        2.6409  -26.6520  -44.9380 H         1 UNK         0.0600 
    194 H194        1.3659  -27.0715  -46.0816 H         1 UNK         0.0600 
    195 H195       -0.0045  -22.8674  -45.9017 H         1 UNK         0.3000 
    196 H196       -2.4863  -23.8550  -46.8699 H         1 UNK         0.0600 
    197 H197       -1.6299  -21.0492  -45.9800 H         1 UNK         0.0600 
    198 H198       -1.5356  -21.6917  -47.6118 H         1 UNK         0.0600 
    199 H199       -3.0921  -21.3987  -46.8689 H         1 UNK         0.0600 
    200 H200       -4.5984  -23.4068  -46.1092 H         1 UNK         0.3000 
    201 H201       -5.0177  -22.5666  -43.3147 H         1 UNK         0.0600 
    202 H202       -6.6589  -24.4060  -42.9561 H         1 UNK         0.0600 
    203 H203       -5.0669  -25.0756  -43.2691 H         1 UNK         0.0600 
    204 H204       -6.2892  -25.0802  -44.5399 H         1 UNK         0.0600 
    205 H205       -5.3789  -21.6756  -46.3491 H         1 UNK         0.3000 
    206 H206       -7.7936  -20.1885  -45.9917 H         1 UNK         0.0600 
    207 H207       -8.8147  -22.3184  -46.8455 H         1 UNK         0.0600 
    208 H208       -8.8884  -21.0823  -48.0910 H         1 UNK         0.0600 
    209 H209       -7.6708  -22.3492  -48.1848 H         1 UNK         0.0600 
    210 H210       -7.9201  -18.5710  -47.6818 H         1 UNK         0.3000 
    211 H211       -5.5754  -17.2475  -48.0612 H         1 UNK         0.0600 
    212 H212       -8.1716  -16.9670  -49.6604 H         1 UNK         0.0600 
    213 H213       -6.9017  -15.7514  -49.5731 H         1 UNK         0.0600 
    214 H214       -7.7977  -16.1796  -48.1249 H         1 UNK         0.0600 
    215 H215       -4.0145  -17.0118  -49.4882 H         1 UNK         0.3000 
    216 H216       -2.4541  -17.6265  -50.9414 H         1 UNK         0.0600 
    217 H217       -3.7920  -16.2217  -52.4250 H         1 UNK         0.0600 
    218 H218       -4.8256  -17.5713  -52.8685 H         1 UNK         0.0600 
    219 H219       -3.1355  -17.5466  -53.3666 H         1 UNK         0.0600 
    220 H220       -3.2981  -19.7658  -49.4045 H         1 UNK         0.3000 
    221 H221       -3.2842  -21.9642  -49.1266 H         1 UNK         0.0600 
    222 H222       -1.6937  -23.3411  -50.4392 H         1 UNK         0.0600 
    223 H223       -1.5522  -22.0722  -51.6489 H         1 UNK         0.0600 
    224 H224       -0.9676  -21.8019  -50.0140 H         1 UNK         0.0600 
    225 H225       -5.5527  -21.0699  -50.0351 H         1 UNK         0.3000 
    226 H226       -7.5454  -21.5484  -50.8624 H         1 UNK         0.0600 
    227 H227       -7.1976  -23.8748  -49.9580 H         1 UNK         0.0600 
    228 H228       -8.2277  -23.8452  -51.3802 H         1 UNK         0.0600 
    229 H229       -6.5597  -24.3758  -51.5205 H         1 UNK         0.0600 
    230 H230       -6.0818  -20.0158  -52.3363 H         1 UNK         0.3000 
    231 H231       -5.7113  -19.0541  -54.2994 H         1 UNK         0.0600 
    232 H232       -7.4658  -19.2172  -56.0146 H         1 UNK         0.0600 
    233 H233       -8.1988  -19.2064  -54.4200 H         1 UNK         0.0600 
    234 H234       -8.0669  -20.7166  -55.3204 H         1 UNK         0.0600 
    235 H235       -3.9163  -21.0817  -53.8318 H         1 UNK         0.3000 
    236 H236       -3.4967  -22.5123  -56.4089 H         1 UNK         0.0600 
    237 H237       -3.3610  -23.8667  -54.3424 H         1 UNK         0.0600 
    238 H238       -1.7964  -23.7806  -55.1392 H         1 UNK         0.0600 
    239 H239       -2.1050  -22.8094  -53.7064 H         1 UNK         0.0600 
    240 H240       -1.8969  -20.1493  -54.1729 H         1 UNK         0.3000 
    241 H241        0.2412  -19.7268  -56.1744 H         1 UNK         0.0600 
    242 H242       -2.8337  -18.4170  -55.9361 H         1 UNK         0.3800 
    243 H243       -2.4642  -16.8650  -56.6448 H         1 UNK         0.3800 
    244 H244        1.4786  -18.5036  -54.5449 H         1 UNK         0.0800 
    245 H245        0.9862  -20.0258  -53.8785 H         1 UNK         0.0800 
    246 H246        0.0688  -20.2861  -51.6609 H         1 UNK         0.0800 
    247 H247       -0.2814  -19.0047  -50.5346 H         1 UNK         0.0800 
@<TRIPOS>BOND
     1    1    2 1    
     2    1  127 1    
     3    1  128 1    
     4    1  129 1    
     5    2    3 2    
     6    2    4 am   BACKBONE|DICT|INTERRES
     7    4    5 1    
     8    4  130 1    
     9    5    6 1    
    10    5   65 1    
    11    5  131 1    
    12    6    7 1    
    13    6  132 1    
    14    6  133 1    
    15    7    8 1    
    16    8    9 1    
    17    8  134 1    
    18    8  135 1    
    19    9   10 ar   
    20    9   14 ar   
    21   10   11 ar   
    22   10  136 1    
    23   11   12 ar   
    24   11  126 1    
    25   12   13 ar   
    26   12  137 1    
    27   13   14 ar   
    28   13   15 1    
    29   14  138 1    
    30   15   16 1    
    31   15  139 1    
    32   15  140 1    
    33   16   17 1    
    34   17   18 1    
    35   17  141 1    
    36   17  142 1    
    37   18   19 1    
    38   18   67 1    
    39   18  143 1    
    40   19   20 am   BACKBONE|DICT|INTERRES
    41   19  144 1    
    42   20   21 2    
    43   20   22 1    
    44   22   23 1    
    45   22   24 1    
    46   22  145 1    
    47   23  146 1    
    48   23  147 1    
    49   23  148 1    
    50   24   25 am   BACKBONE|DICT|INTERRES
    51   24  149 1    
    52   25   26 2    
    53   25   27 1    
    54   27   28 1    
    55   27   29 1    
    56   27  150 1    
    57   28  151 1    
    58   28  152 1    
    59   28  153 1    
    60   29   30 am   BACKBONE|DICT|INTERRES
    61   29  154 1    
    62   30   31 2    
    63   30   32 1    
    64   32   33 1    
    65   32   34 1    
    66   32  155 1    
    67   33  156 1    
    68   33  157 1    
    69   33  158 1    
    70   34   35 am   BACKBONE|DICT|INTERRES
    71   34  159 1    
    72   35   36 2    
    73   35   37 1    
    74   37   38 1    
    75   37   39 1    
    76   37  160 1    
    77   38  161 1    
    78   38  162 1    
    79   38  163 1    
    80   39   40 am   BACKBONE|DICT|INTERRES
    81   39  164 1    
    82   40   41 2    
    83   40   42 1    
    84   42   43 1    
    85   42   44 1    
    86   42  165 1    
    87   43  166 1    
    88   43  167 1    
    89   43  168 1    
    90   44   45 am   BACKBONE|DICT|INTERRES
    91   44  169 1    
    92   45   46 2    
    93   45   47 1    
    94   47   48 1    
    95   47   49 1    
    96   47  170 1    
    97   48  171 1    
    98   48  172 1    
    99   48  173 1    
   100   49   50 am   BACKBONE|DICT|INTERRES
   101   49  174 1    
   102   50   51 2    
   103   50   52 1    
   104   52   53 1    
   105   52   54 1    
   106   52  175 1    
   107   53  176 1    
   108   53  177 1    
   109   53  178 1    
   110   54   55 am   BACKBONE|DICT|INTERRES
   111   54  179 1    
   112   55   56 2    
   113   55   57 1    
   114   57   58 1    
   115   57   59 1    
   116   57  180 1    
   117   58  181 1    
   118   58  182 1    
   119   58  183 1    
   120   59   60 am   BACKBONE|DICT|INTERRES
   121   59  184 1    
   122   60   61 2    
   123   60   62 1    
   124   62   63 1    
   125   62   64 1    
   126   62  185 1    
   127   63  186 1    
   128   63  187 1    
   129   63  188 1    
   130   64   65 am   BACKBONE|DICT|INTERRES
   131   64  189 1    
   132   65   66 2    
   133   67   68 2    
   134   67   69 am   BACKBONE|DICT|INTERRES
   135   69   70 1    
   136   69  190 1    
   137   70   71 1    
   138   70   72 1    
   139   70  191 1    
   140   71  192 1    
   141   71  193 1    
   142   71  194 1    
   143   72   73 2    
   144   72   74 am   BACKBONE|DICT|INTERRES
   145   74   75 1    
   146   74  195 1    
   147   75   76 1    
   148   75   77 1    
   149   75  196 1    
   150   76  197 1    
   151   76  198 1    
   152   76  199 1    
   153   77   78 2    
   154   77   79 am   BACKBONE|DICT|INTERRES
   155   79   80 1    
   156   79  200 1    
   157   80   81 1    
   158   80   82 1    
   159   80  201 1    
   160   81  202 1    
   161   81  203 1    
   162   81  204 1    
   163   82   83 2    
   164   82   84 am   BACKBONE|DICT|INTERRES
   165   84   85 1    
   166   84  205 1    
   167   85   86 1    
   168   85   87 1    
   169   85  206 1    
   170   86  207 1    
   171   86  208 1    
   172   86  209 1    
   173   87   88 2    
   174   87   89 am   BACKBONE|DICT|INTERRES
   175   89   90 1    
   176   89  210 1    
   177   90   91 1    
   178   90   92 1    
   179   90  211 1    
   180   91  212 1    
   181   91  213 1    
   182   91  214 1    
   183   92   93 2    
   184   92   94 am   BACKBONE|DICT|INTERRES
   185   94   95 1    
   186   94  215 1    
   187   95   96 1    
   188   95   97 1    
   189   95  216 1    
   190   96  217 1    
   191   96  218 1    
   192   96  219 1    
   193   97   98 2    
   194   97   99 am   BACKBONE|DICT|INTERRES
   195   99  100 1    
   196   99  220 1    
   197  100  101 1    
   198  100  102 1    
   199  100  221 1    
   200  101  222 1    
   201  101  223 1    
   202  101  224 1    
   203  102  103 2    
   204  102  104 am   BACKBONE|DICT|INTERRES
   205  104  105 1    
   206  104  225 1    
   207  105  106 1    
   208  105  107 1    
   209  105  226 1    
   210  106  227 1    
   211  106  228 1    
   212  106  229 1    
   213  107  108 2    
   214  107  109 am   BACKBONE|DICT|INTERRES
   215  109  110 1    
   216  109  230 1    
   217  110  111 1    
   218  110  112 1    
   219  110  231 1    
   220  111  232 1    
   221  111  233 1    
   222  111  234 1    
   223  112  113 2    
   224  112  114 am   BACKBONE|DICT|INTERRES
   225  114  115 1    
   226  114  235 1    
   227  115  116 1    
   228  115  117 1    
   229  115  236 1    
   230  116  237 1    
   231  116  238 1    
   232  116  239 1    
   233  117  118 2    
   234  117  119 am   BACKBONE|DICT|INTERRES
   235  119  120 1    
   236  119  240 1    
   237  120  121 1    
   238  120  124 1    
   239  120  241 1    
   240  121  122 am   BACKBONE|DICT|INTERRES
   241  121  123 2    
   242  122  242 1    
   243  122  243 1    
   244  124  125 1    
   245  124  244 1    
   246  124  245 1    
   247  125  126 1    
   248  126  246 1    
   249  126  247 1    
@<TRIPOS>SUBSTRUCTURE
     1 UNK         1 GROUP             0       ****    0 ROOT    
