@<TRIPOS>MOLECULE
3R540
247   249    1
SMALL
USER_CHARGES


@<TRIPOS>ATOM
      1 CA          5.0704  -12.5096  -52.5684 C.3       0 UNK        -0.1800 
      2 C           4.1765  -13.0630  -51.4680 C.2       0 UNK         0.5000 
      3 O           4.5282  -14.0584  -50.8336 O.2       0 UNK        -0.5000 
      4 N           3.0269  -12.4196  -51.2314 N.am      1 UNK        -0.5000 
      5 CA          2.0258  -12.7938  -50.2255 C.3       1 UNK         0.1400 
      6 C6          0.6156  -12.2593  -50.5897 C.3       23 UNK        -0.0398 
      7 S7         -0.0484  -12.9684  -52.1364 S.3       23 UNK        -0.2404 
      8 C8         -1.3833  -14.0445  -51.5159 C.3       23 UNK        -0.0205 
      9 C9         -0.8717  -15.4240  -51.1269 C.ar      23 UNK        -0.0193 
     10 C10        -1.0094  -16.4955  -52.0124 C.ar      23 UNK        -0.1150 
     11 C11        -0.5583  -17.7725  -51.6654 C.ar      23 UNK        -0.0193 
     12 C12         0.0555  -17.9684  -50.4237 C.ar      23 UNK        -0.1150 
     13 C13         0.2184  -16.8996  -49.5348 C.ar      23 UNK        -0.0193 
     14 C14        -0.2620  -15.6346  -49.8878 C.ar      23 UNK        -0.1150 
     15 C15         0.9674  -17.0935  -48.2220 C.3       23 UNK        -0.0205 
     16 S16         0.0068  -16.5779  -46.7617 S.3       23 UNK        -0.2404 
     17 C17        -1.3876  -17.7481  -46.7220 C.3       23 UNK        -0.0398 
     18 CA         -1.0344  -19.2498  -46.8757 C.3       11 UNK         0.1400 
     19 N          -0.0621  -19.7538  -45.8939 N.am      11 UNK        -0.5000 
     20 C           0.4623  -20.9908  -45.9226 C.2       10 UNK         0.5000 
     21 O           0.2379  -21.8003  -46.8208 O.2       10 UNK        -0.5000 
     22 CA          1.3302  -21.4380  -44.7309 C.3       10 UNK         0.1400 
     23 CB          2.7847  -20.9700  -44.8870 C.3       10 UNK        -0.1800 
     24 N           0.7856  -21.0038  -43.4444 N.am      10 UNK        -0.5000 
     25 C          -0.3774  -21.4376  -42.9355 C.2       9 UNK         0.5000 
     26 O          -1.0710  -22.3047  -43.4668 O.2       9 UNK        -0.5000 
     27 CA         -0.8845  -20.7454  -41.6547 C.3       9 UNK         0.1400 
     28 CB         -0.2834  -21.3883  -40.3965 C.3       9 UNK        -0.1800 
     29 N          -0.6159  -19.3063  -41.6572 N.am      9 UNK        -0.5000 
     30 C          -1.1467  -18.4491  -42.5414 C.2       8 UNK         0.5000 
     31 O          -1.9854  -18.7683  -43.3845 O.2       8 UNK        -0.5000 
     32 CA         -0.6066  -17.0088  -42.5186 C.3       8 UNK         0.1400 
     33 CB         -1.3781  -16.1631  -41.4940 C.3       8 UNK        -0.1800 
     34 N           0.8395  -16.9603  -42.2633 N.am      8 UNK        -0.5000 
     35 C           1.7531  -17.4426  -43.1218 C.2       7 UNK         0.5000 
     36 O           1.4607  -17.8977  -44.2231 O.2       7 UNK        -0.5000 
     37 CA          3.2187  -17.5147  -42.6579 C.3       7 UNK         0.1400 
     38 CB          3.9974  -16.2357  -42.9916 C.3       7 UNK        -0.1800 
     39 N           3.3258  -17.8186  -41.2326 N.am      7 UNK        -0.5000 
     40 C           3.0944  -19.0388  -40.7272 C.2       6 UNK         0.5000 
     41 O           2.8181  -20.0152  -41.4238 O.2       6 UNK        -0.5000 
     42 CA          3.1430  -19.1983  -39.1956 C.3       6 UNK         0.1400 
     43 CB          4.5377  -19.6598  -38.7482 C.3       6 UNK        -0.1800 
     44 N           2.7821  -17.9827  -38.4639 N.am      6 UNK        -0.5000 
     45 C           1.5834  -17.3862  -38.5062 C.2       5 UNK         0.5000 
     46 O           0.6410  -17.8134  -39.1766 O.2       5 UNK        -0.5000 
     47 CA          1.4080  -16.0818  -37.6939 C.3       5 UNK         0.1400 
     48 CB          2.6630  -15.6603  -36.8960 C.3       5 UNK        -0.1800 
     49 N           0.9462  -14.9609  -38.5225 N.am      5 UNK        -0.5000 
     50 C           1.5135  -14.5053  -39.6486 C.2       4 UNK         0.5000 
     51 O           2.5162  -15.0080  -40.1587 O.2       4 UNK        -0.5000 
     52 CA          0.8223  -13.2978  -40.3101 C.3       4 UNK         0.1400 
     53 CB          1.3716  -11.9618  -39.7734 C.3       4 UNK        -0.1800 
     54 N           0.8525  -13.3804  -41.7767 N.am      4 UNK        -0.5000 
     55 C           1.8512  -13.1210  -42.6323 C.2       3 UNK         0.5000 
     56 O           2.9238  -12.5954  -42.3258 O.2       3 UNK        -0.5000 
     57 CA          1.5982  -13.5490  -44.0903 C.3       3 UNK         0.1400 
     58 CB          0.1912  -13.1730  -44.5979 C.3       3 UNK        -0.1800 
     59 N           2.5993  -12.9656  -44.9806 N.am      3 UNK        -0.5000 
     60 C           3.1369  -13.5884  -46.0330 C.2       2 UNK         0.5000 
     61 O           2.9265  -14.7677  -46.3190 O.2       2 UNK        -0.5000 
     62 CA          4.0485  -12.7513  -46.9475 C.3       2 UNK         0.1400 
     63 CB          5.5100  -13.2145  -46.8475 C.3       2 UNK        -0.1800 
     64 N           3.5958  -12.8742  -48.3327 N.am      2 UNK        -0.5000 
     65 C           2.4591  -12.3504  -48.8083 C.2       1 UNK         0.5000 
     66 O           1.7732  -11.5468  -48.1730 O.2       1 UNK        -0.5000 
     67 C          -2.3342  -20.0744  -46.8674 C.2       11 UNK         0.5000 
     68 O          -2.8249  -20.4292  -47.9370 O.2       11 UNK        -0.5000 
     69 N          -2.8530  -20.3855  -45.6706 N.am      12 UNK        -0.5000 
     70 CA         -4.0432  -21.2152  -45.4804 C.3       12 UNK         0.1400 
     71 CB         -4.4452  -21.2166  -43.9981 C.3       12 UNK        -0.1800 
     72 C          -3.8536  -22.6488  -46.0081 C.2       12 UNK         0.5000 
     73 O          -4.7348  -23.1596  -46.6990 O.2       12 UNK        -0.5000 
     74 N          -2.6919  -23.2511  -45.7166 N.am      13 UNK        -0.5000 
     75 CA         -2.2876  -24.5614  -46.2266 C.3       13 UNK         0.1400 
     76 CB         -0.9923  -25.0094  -45.5334 C.3       13 UNK        -0.1800 
     77 C          -2.1265  -24.5753  -47.7575 C.2       13 UNK         0.5000 
     78 O          -2.6243  -25.4935  -48.4097 O.2       13 UNK        -0.5000 
     79 N          -1.4731  -23.5418  -48.3073 N.am      14 UNK        -0.5000 
     80 CA         -1.3000  -23.3408  -49.7454 C.3       14 UNK         0.1400 
     81 CB         -0.3580  -22.1552  -50.0036 C.3       14 UNK        -0.1800 
     82 C          -2.6393  -23.1520  -50.4759 C.2       14 UNK         0.5000 
     83 O          -2.8611  -23.8024  -51.4947 O.2       14 UNK        -0.5000 
     84 N          -3.5259  -22.3148  -49.9211 N.am      15 UNK        -0.5000 
     85 CA         -4.8677  -22.0633  -50.4461 C.3       15 UNK         0.1400 
     86 CB         -5.5039  -20.8865  -49.6925 C.3       15 UNK        -0.1800 
     87 C          -5.7788  -23.3020  -50.3912 C.2       15 UNK         0.5000 
     88 O          -6.5949  -23.4870  -51.2910 O.2       15 UNK        -0.5000 
     89 N          -5.6185  -24.1460  -49.3633 N.am      16 UNK        -0.5000 
     90 CA         -6.3095  -25.4305  -49.2548 C.3       16 UNK         0.1400 
     91 CB         -6.1560  -25.9842  -47.8300 C.3       16 UNK        -0.1800 
     92 C          -5.8149  -26.4503  -50.2986 C.2       16 UNK         0.5000 
     93 O          -6.6314  -27.1599  -50.8870 O.2       16 UNK        -0.5000 
     94 N          -4.4931  -26.5032  -50.5095 N.am      17 UNK        -0.5000 
     95 CA         -3.8387  -27.4291  -51.4316 C.3       17 UNK         0.1400 
     96 CB         -2.3485  -27.5336  -51.0694 C.3       17 UNK        -0.1800 
     97 C          -4.0106  -27.0396  -52.9111 C.2       17 UNK         0.5000 
     98 O          -4.3738  -27.8908  -53.7240 O.2       17 UNK        -0.5000 
     99 N          -3.7186  -25.7750  -53.2386 N.am      18 UNK        -0.5000 
    100 CA        -3.6296  -25.2661  -54.6096 C.3       18 UNK         0.1400 
    101 CB        -2.4228  -24.3181  -54.7001 C.3       18 UNK        -0.1800 
    102 C         -4.9152  -24.5662  -55.0893 C.2       18 UNK         0.5000 
    103 O         -4.9725  -24.1558  -56.2499 O.2       18 UNK        -0.5000 
    104 N         -5.9201  -24.4424  -54.2105 N.am      19 UNK        -0.5000 
    105 CA        -7.2319  -23.8377  -54.4555 C.3       19 UNK         0.1400 
    106 CB        -8.0534  -24.7125  -55.4317 C.3       19 UNK        -0.1800 
    107 C         -7.1155  -22.3528  -54.8662 C.2       19 UNK         0.5000 
    108 O         -6.4892  -21.5685  -54.1503 O.2       19 UNK        -0.5000 
    109 N         -7.7106  -21.9933  -56.0110 N.am      20 UNK        -0.5000 
    110 CA        -7.8004  -20.6370  -56.5582 C.3       20 UNK         0.1400 
    111 CB        -8.8149  -20.6500  -57.7139 C.3       20 UNK        -0.1800 
    112 C         -6.4618  -20.0163  -57.0134 C.2       20 UNK         0.5000 
    113 O         -6.4515  -18.8465  -57.3994 O.2       20 UNK        -0.5000 
    114 N         -5.3629  -20.7848  -56.9738 N.am      21 UNK        -0.5000 
    115 CA        -4.0083  -20.3218  -57.2833 C.3       21 UNK         0.1400 
    116 CB        -3.0521  -21.5211  -57.2781 C.3       21 UNK        -0.1800 
    117 C         -3.4985  -19.2309  -56.3201 C.2       21 UNK         0.5000 
    118 O         -2.7456  -18.3559  -56.7505 O.2       21 UNK        -0.5000 
    119 N         -3.9254  -19.2888  -55.0515 N.am      22 UNK        -0.5000 
    120 CA        -3.6883  -18.2346  -54.0588 C.3       22 UNK         0.1400 
    121 C         -4.8182  -17.1757  -54.1358 C.2       22 UNK         0.5000 
    122 N         -4.4944  -15.9226  -54.4247 N.am      22 UNK        -0.7600 
    123 O         -5.9864  -17.4779  -53.9047 O.2       22 UNK        -0.5000 
    124 C124       -3.5550  -18.7936  -52.6190 C.3       23 UNK        -0.0398 
    125 S125       -2.1644  -19.9555  -52.3930 S.3       23 UNK        -0.2404 
    126 C126       -0.6840  -18.9222  -52.6577 C.3       23 UNK        -0.0205 
    127 H127        4.6332  -11.6306  -53.0427 H         1 UNK         0.0600 
    128 H128        5.2307  -13.2660  -53.3367 H         1 UNK         0.0600 
    129 H129        6.0400  -12.2281  -52.1578 H         1 UNK         0.0600 
    130 H130        2.8027  -11.6005  -51.7782 H         1 UNK         0.3000 
    131 H131        1.9643  -13.8835  -50.1985 H         1 UNK         0.0600 
    132 H132       -0.0906  -12.4565  -49.7818 H         1 UNK         0.0800 
    133 H133        0.6395  -11.1738  -50.6993 H         1 UNK         0.0800 
    134 H134       -1.8930  -13.5785  -50.6716 H         1 UNK         0.0800 
    135 H135       -2.1379  -14.1385  -52.2984 H         1 UNK         0.0800 
    136 H136       -1.4635  -16.3302  -52.9779 H         1 UNK         0.1150 
    137 H137        0.4286  -18.9490  -50.1637 H         1 UNK         0.1150 
    138 H138       -0.1436  -14.8106  -49.1991 H         1 UNK         0.1150 
    139 H139        1.3038  -18.1232  -48.0985 H         1 UNK         0.0800 
    140 H140        1.8752  -16.4898  -48.2572 H         1 UNK         0.0800 
    141 H141       -2.0749  -17.4459  -47.5148 H         1 UNK         0.0800 
    142 H142       -1.9200  -17.5767  -45.7855 H         1 UNK         0.0800 
    143 H143       -0.5932  -19.3943  -47.8623 H         1 UNK         0.0600 
    144 H144        0.2349  -19.1087  -45.1672 H         1 UNK         0.3000 
    145 H145        1.3391  -22.5299  -44.7243 H         1 UNK         0.0600 
    146 H146        3.3927  -21.2749  -44.0350 H         1 UNK         0.0600 
    147 H147        3.2341  -21.4053  -45.7802 H         1 UNK         0.0600 
    148 H148        2.8607  -19.8886  -44.9844 H         1 UNK         0.0600 
    149 H149        1.3264  -20.3254  -42.9219 H         1 UNK         0.3000 
    150 H150       -1.9675  -20.8787  -41.6139 H         1 UNK         0.0600 
    151 H151       -0.5483  -22.4447  -40.3382 H         1 UNK         0.0600 
    152 H152       -0.6555  -20.9085  -39.4911 H         1 UNK         0.0600 
    153 H153        0.8038  -21.3254  -40.3864 H         1 UNK         0.0600 
    154 H154        0.0329  -18.9519  -40.9649 H         1 UNK         0.3000 
    155 H155       -0.7882  -16.5814  -43.5073 H         1 UNK         0.0600 
    156 H156       -1.1340  -16.4349  -40.4679 H         1 UNK         0.0600 
    157 H157       -2.4545  -16.2936  -41.6150 H         1 UNK         0.0600 
    158 H158       -1.1796  -15.1027  -41.6223 H         1 UNK         0.0600 
    159 H159        1.1442  -16.6639  -41.3461 H         1 UNK         0.3000 
    160 H160        3.6918  -18.3262  -43.2151 H         1 UNK         0.0600 
    161 H161        3.9248  -16.0029  -44.0542 H         1 UNK         0.0600 
    162 H162        5.0557  -16.3494  -42.7572 H         1 UNK         0.0600 
    163 H163        3.6277  -15.3750  -42.4394 H         1 UNK         0.0600 
    164 H164        3.4883  -17.0393  -40.6069 H         1 UNK         0.3000 
    165 H165        2.4239  -19.9743  -38.9254 H         1 UNK         0.0600 
    166 H166        4.5625  -19.8614  -37.6771 H         1 UNK         0.0600 
    167 H167        4.8263  -20.5805  -39.2573 H         1 UNK         0.0600 
    168 H168        5.2993  -18.9105  -38.9679 H         1 UNK         0.0600 
    169 H169        3.5092  -17.5592  -37.9059 H         1 UNK         0.3000 
    170 H170        0.6127  -16.2834  -36.9749 H         1 UNK         0.0600 
    171 H171        2.9707  -16.4390  -36.1969 H         1 UNK         0.0600 
    172 H172        3.5089  -15.4373  -37.5476 H         1 UNK         0.0600 
    173 H173        2.4629  -14.7668  -36.3044 H         1 UNK         0.0600 
    174 H174        0.1043  -14.5086  -38.1947 H         1 UNK         0.3000 
    175 H175       -0.2354  -13.3400  -40.0454 H         1 UNK         0.0600 
    176 H176        1.1528  -11.8544  -38.7104 H         1 UNK         0.0600 
    177 H177        0.9204  -11.1123  -40.2860 H         1 UNK         0.0600 
    178 H178        2.4537  -11.8890  -39.8846 H         1 UNK         0.0600 
    179 H179        0.0226  -13.7907  -42.1776 H         1 UNK         0.3000 
    180 H180        1.6854  -14.6365  -44.1084 H         1 UNK         0.0600 
    181 H181        0.0055  -12.1021  -44.5080 H         1 UNK         0.0600 
    182 H182       -0.5906  -13.6967  -44.0475 H         1 UNK         0.0600 
    183 H183        0.0689  -13.4438  -45.6472 H         1 UNK         0.0600 
    184 H184        2.8776  -12.0197  -44.7576 H         1 UNK         0.3000 
    185 H185        3.9967  -11.7010  -46.6527 H         1 UNK         0.0600 
    186 H186        5.8772  -13.1254  -45.8243 H         1 UNK         0.0600 
    187 H187        5.6238  -14.2569  -47.1481 H         1 UNK         0.0600 
    188 H188        6.1593  -12.6102  -47.4812 H         1 UNK         0.0600 
    189 H189        4.1027  -13.5200  -48.9289 H         1 UNK         0.3000 
    190 H190       -2.4134  -20.0130  -44.8337 H         1 UNK         0.3000 
    191 H191       -4.8562  -20.7593  -46.0493 H         1 UNK         0.0600 
    192 H192       -5.3605  -21.7893  -43.8440 H         1 UNK         0.0600 
    193 H193       -3.6730  -21.6582  -43.3688 H         1 UNK         0.0600 
    194 H194       -4.6294  -20.2039  -43.6388 H         1 UNK         0.0600 
    195 H195       -2.0371  -22.7787  -45.0998 H         1 UNK         0.3000 
    196 H196       -3.0733  -25.2748  -45.9696 H         1 UNK         0.0600 
    197 H197       -0.6861  -25.9973  -45.8795 H         1 UNK         0.0600 
    198 H198       -1.1243  -25.0685  -44.4529 H         1 UNK         0.0600 
    199 H199       -0.1700  -24.3218  -45.7316 H         1 UNK         0.0600 
    200 H200       -1.0513  -22.8437  -47.6995 H         1 UNK         0.3000 
    201 H201       -0.8274  -24.2388  -50.1485 H         1 UNK         0.0600 
    202 H202        0.6160  -22.3161  -49.5419 H         1 UNK         0.0600 
    203 H203       -0.7657  -21.2234  -49.6113 H         1 UNK         0.0600 
    204 H204       -0.1920  -22.0159  -51.0724 H         1 UNK         0.0600 
    205 H205       -3.2515  -21.7764  -49.1017 H         1 UNK         0.3000 
    206 H206       -4.7654  -21.7794  -51.4959 H         1 UNK         0.0600 
    207 H207       -5.6051  -21.1005  -48.6279 H         1 UNK         0.0600 
    208 H208       -4.9033  -19.9827  -49.7969 H         1 UNK         0.0600 
    209 H209       -6.4979  -20.6641  -50.0824 H         1 UNK         0.0600 
    210 H210       -4.9795  -23.8995  -48.6150 H         1 UNK         0.3000 
    211 H211       -7.3733  -25.2608  -49.4341 H         1 UNK         0.0600 
    212 H212       -5.1106  -26.1507  -47.5702 H         1 UNK         0.0600 
    213 H213       -6.6771  -26.9363  -47.7228 H         1 UNK         0.0600 
    214 H214       -6.5770  -25.2984  -47.0945 H         1 UNK         0.0600 
    215 H215       -3.8856  -25.9119  -49.9512 H         1 UNK         0.3000 
    216 H216       -4.2828  -28.4176  -51.2956 H         1 UNK         0.0600 
    217 H217       -1.8294  -28.2217  -51.7377 H         1 UNK         0.0600 
    218 H218       -2.2167  -27.9052  -50.0530 H         1 UNK         0.0600 
    219 H219       -1.8479  -26.5669  -51.1368 H         1 UNK         0.0600 
    220 H220       -3.4347  -25.1224  -52.5071 H         1 UNK         0.3000 
    221 H221       -3.4449  -26.0971  -55.2933 H         1 UNK         0.0600 
    222 H222       -2.2006  -24.0738  -55.7388 H         1 UNK         0.0600 
    223 H223       -1.5264  -24.7755  -54.2810 H         1 UNK         0.0600 
    224 H224       -2.6017  -23.3830  -54.1675 H         1 UNK         0.0600 
    225 H225       -5.7557  -24.7489  -53.2615 H         1 UNK         0.3000 
    226 H226       -7.7657  -23.8443  -53.5060 H         1 UNK         0.0600 
    227 H227       -9.0738  -24.3409  -55.5333 H         1 UNK         0.0600 
    228 H228       -7.6102  -24.7534  -56.4273 H         1 UNK         0.0600 
    229 H229       -8.1260  -25.7363  -55.0643 H         1 UNK         0.0600 
    230 H230       -8.1680  -22.7157  -56.5480 H         1 UNK         0.3000 
    231 H231       -8.1916  -19.9900  -55.7705 H         1 UNK         0.0600 
    232 H232       -9.7897  -21.0068  -57.3807 H         1 UNK         0.0600 
    233 H233       -8.4827  -21.2911  -58.5314 H         1 UNK         0.0600 
    234 H234       -8.9622  -19.6489  -58.1212 H         1 UNK         0.0600 
    235 H235       -5.4553  -21.7410  -56.6575 H         1 UNK         0.3000 
    236 H236       -4.0226  -19.8985  -58.2897 H         1 UNK         0.0600 
    237 H237       -3.3792  -22.2966  -57.9709 H         1 UNK         0.0600 
    238 H238       -2.0455  -21.2214  -57.5723 H         1 UNK         0.0600 
    239 H239       -2.9865  -21.9614  -56.2840 H         1 UNK         0.0600 
    240 H240       -4.5794  -20.0137  -54.7879 H         1 UNK         0.3000 
    241 H241       -2.7502  -17.7354  -54.3005 H         1 UNK         0.0600 
    242 H242       -5.2245  -15.2285  -54.4664 H         1 UNK         0.3800 
    243 H243       -3.5482  -15.6561  -54.6463 H         1 UNK         0.3800 
    244 H244       -4.4700  -19.3165  -52.3354 H         1 UNK         0.0800 
    245 H245       -3.4420  -17.9829  -51.8977 H         1 UNK         0.0800 
    246 H246       -0.6770  -18.5465  -53.6814 H         1 UNK         0.0800 
    247 H247        0.1956  -19.5623  -52.5765 H         1 UNK         0.0800 
@<TRIPOS>BOND
     1    1    2 1    
     2    1  127 1    
     3    1  128 1    
     4    1  129 1    
     5    2    3 2    
     6    2    4 am   BACKBONE|DICT|INTERRES
     7    4    5 1    
     8    4  130 1    
     9    5    6 1    
    10    5   65 1    
    11    5  131 1    
    12    6    7 1    
    13    6  132 1    
    14    6  133 1    
    15    7    8 1    
    16    8    9 1    
    17    8  134 1    
    18    8  135 1    
    19    9   10 ar   
    20    9   14 ar   
    21   10   11 ar   
    22   10  136 1    
    23   11   12 ar   
    24   11  126 1    
    25   12   13 ar   
    26   12  137 1    
    27   13   14 ar   
    28   13   15 1    
    29   14  138 1    
    30   15   16 1    
    31   15  139 1    
    32   15  140 1    
    33   16   17 1    
    34   17   18 1    
    35   17  141 1    
    36   17  142 1    
    37   18   19 1    
    38   18   67 1    
    39   18  143 1    
    40   19   20 am   BACKBONE|DICT|INTERRES
    41   19  144 1    
    42   20   21 2    
    43   20   22 1    
    44   22   23 1    
    45   22   24 1    
    46   22  145 1    
    47   23  146 1    
    48   23  147 1    
    49   23  148 1    
    50   24   25 am   BACKBONE|DICT|INTERRES
    51   24  149 1    
    52   25   26 2    
    53   25   27 1    
    54   27   28 1    
    55   27   29 1    
    56   27  150 1    
    57   28  151 1    
    58   28  152 1    
    59   28  153 1    
    60   29   30 am   BACKBONE|DICT|INTERRES
    61   29  154 1    
    62   30   31 2    
    63   30   32 1    
    64   32   33 1    
    65   32   34 1    
    66   32  155 1    
    67   33  156 1    
    68   33  157 1    
    69   33  158 1    
    70   34   35 am   BACKBONE|DICT|INTERRES
    71   34  159 1    
    72   35   36 2    
    73   35   37 1    
    74   37   38 1    
    75   37   39 1    
    76   37  160 1    
    77   38  161 1    
    78   38  162 1    
    79   38  163 1    
    80   39   40 am   BACKBONE|DICT|INTERRES
    81   39  164 1    
    82   40   41 2    
    83   40   42 1    
    84   42   43 1    
    85   42   44 1    
    86   42  165 1    
    87   43  166 1    
    88   43  167 1    
    89   43  168 1    
    90   44   45 am   BACKBONE|DICT|INTERRES
    91   44  169 1    
    92   45   46 2    
    93   45   47 1    
    94   47   48 1    
    95   47   49 1    
    96   47  170 1    
    97   48  171 1    
    98   48  172 1    
    99   48  173 1    
   100   49   50 am   BACKBONE|DICT|INTERRES
   101   49  174 1    
   102   50   51 2    
   103   50   52 1    
   104   52   53 1    
   105   52   54 1    
   106   52  175 1    
   107   53  176 1    
   108   53  177 1    
   109   53  178 1    
   110   54   55 am   BACKBONE|DICT|INTERRES
   111   54  179 1    
   112   55   56 2    
   113   55   57 1    
   114   57   58 1    
   115   57   59 1    
   116   57  180 1    
   117   58  181 1    
   118   58  182 1    
   119   58  183 1    
   120   59   60 am   BACKBONE|DICT|INTERRES
   121   59  184 1    
   122   60   61 2    
   123   60   62 1    
   124   62   63 1    
   125   62   64 1    
   126   62  185 1    
   127   63  186 1    
   128   63  187 1    
   129   63  188 1    
   130   64   65 am   BACKBONE|DICT|INTERRES
   131   64  189 1    
   132   65   66 2    
   133   67   68 2    
   134   67   69 am   BACKBONE|DICT|INTERRES
   135   69   70 1    
   136   69  190 1    
   137   70   71 1    
   138   70   72 1    
   139   70  191 1    
   140   71  192 1    
   141   71  193 1    
   142   71  194 1    
   143   72   73 2    
   144   72   74 am   BACKBONE|DICT|INTERRES
   145   74   75 1    
   146   74  195 1    
   147   75   76 1    
   148   75   77 1    
   149   75  196 1    
   150   76  197 1    
   151   76  198 1    
   152   76  199 1    
   153   77   78 2    
   154   77   79 am   BACKBONE|DICT|INTERRES
   155   79   80 1    
   156   79  200 1    
   157   80   81 1    
   158   80   82 1    
   159   80  201 1    
   160   81  202 1    
   161   81  203 1    
   162   81  204 1    
   163   82   83 2    
   164   82   84 am   BACKBONE|DICT|INTERRES
   165   84   85 1    
   166   84  205 1    
   167   85   86 1    
   168   85   87 1    
   169   85  206 1    
   170   86  207 1    
   171   86  208 1    
   172   86  209 1    
   173   87   88 2    
   174   87   89 am   BACKBONE|DICT|INTERRES
   175   89   90 1    
   176   89  210 1    
   177   90   91 1    
   178   90   92 1    
   179   90  211 1    
   180   91  212 1    
   181   91  213 1    
   182   91  214 1    
   183   92   93 2    
   184   92   94 am   BACKBONE|DICT|INTERRES
   185   94   95 1    
   186   94  215 1    
   187   95   96 1    
   188   95   97 1    
   189   95  216 1    
   190   96  217 1    
   191   96  218 1    
   192   96  219 1    
   193   97   98 2    
   194   97   99 am   BACKBONE|DICT|INTERRES
   195   99  100 1    
   196   99  220 1    
   197  100  101 1    
   198  100  102 1    
   199  100  221 1    
   200  101  222 1    
   201  101  223 1    
   202  101  224 1    
   203  102  103 2    
   204  102  104 am   BACKBONE|DICT|INTERRES
   205  104  105 1    
   206  104  225 1    
   207  105  106 1    
   208  105  107 1    
   209  105  226 1    
   210  106  227 1    
   211  106  228 1    
   212  106  229 1    
   213  107  108 2    
   214  107  109 am   BACKBONE|DICT|INTERRES
   215  109  110 1    
   216  109  230 1    
   217  110  111 1    
   218  110  112 1    
   219  110  231 1    
   220  111  232 1    
   221  111  233 1    
   222  111  234 1    
   223  112  113 2    
   224  112  114 am   BACKBONE|DICT|INTERRES
   225  114  115 1    
   226  114  235 1    
   227  115  116 1    
   228  115  117 1    
   229  115  236 1    
   230  116  237 1    
   231  116  238 1    
   232  116  239 1    
   233  117  118 2    
   234  117  119 am   BACKBONE|DICT|INTERRES
   235  119  120 1    
   236  119  240 1    
   237  120  121 1    
   238  120  124 1    
   239  120  241 1    
   240  121  122 am   BACKBONE|DICT|INTERRES
   241  121  123 2    
   242  122  242 1    
   243  122  243 1    
   244  124  125 1    
   245  124  244 1    
   246  124  245 1    
   247  125  126 1    
   248  126  246 1    
   249  126  247 1    
@<TRIPOS>SUBSTRUCTURE
     1 UNK         1 GROUP             0       ****    0 ROOT    
