@<TRIPOS>MOLECULE
3R540
247   249    1
SMALL
USER_CHARGES


@<TRIPOS>ATOM
      1 CA         -3.1541   -8.1634  -45.6522 C.3       0 UNK        -0.1800 
      2 C          -2.6780   -9.4737  -46.2618 C.2       0 UNK         0.5000 
      3 O          -2.5249  -10.4609  -45.5409 O.2       0 UNK        -0.5000 
      4 N          -2.4378   -9.4841  -47.5809 N.am      1 UNK        -0.5000 
      5 CA         -1.9494  -10.6104  -48.3870 C.3       1 UNK         0.1400 
      6 C6         -2.9197  -11.8240  -48.3845 C.3       23 UNK        -0.0398 
      7 S7         -2.6418  -12.9834  -49.7666 S.3       23 UNK        -0.2404 
      8 C8         -1.7239  -14.3070  -48.9223 C.3       23 UNK        -0.0205 
      9 C9         -1.6660  -15.5727  -49.7588 C.ar      23 UNK        -0.0193 
     10 C10        -0.5439  -15.8621  -50.5397 C.ar      23 UNK        -0.1150 
     11 C11        -0.4804  -17.0502  -51.2741 C.ar      23 UNK        -0.0193 
     12 C12        -1.5425  -17.9575  -51.2080 C.ar      23 UNK        -0.1150 
     13 C13        -2.6703  -17.6812  -50.4292 C.ar      23 UNK        -0.0193 
     14 C14        -2.7309  -16.4752  -49.7226 C.ar      23 UNK        -0.1150 
     15 C15        -3.8029  -18.7025  -50.3490 C.3       23 UNK        -0.0205 
     16 S16        -4.5149  -18.9091  -48.6774 S.3       23 UNK        -0.2404 
     17 C17        -3.0437  -19.2806  -47.6623 C.3       23 UNK        -0.0398 
     18 CA         -2.7893  -20.7927  -47.4730 C.3       11 UNK         0.1400 
     19 N          -1.3945  -21.0642  -47.1126 N.am      11 UNK        -0.5000 
     20 C          -0.8520  -22.2827  -46.9770 C.2       10 UNK         0.5000 
     21 O          -1.4553  -23.3297  -47.2002 O.2       10 UNK        -0.5000 
     22 CA          0.5904  -22.3480  -46.4485 C.3       10 UNK         0.1400 
     23 CB          1.5972  -22.0982  -47.5810 C.3       10 UNK        -0.1800 
     24 N           0.8238  -21.4093  -45.3500 N.am      10 UNK        -0.5000 
     25 C           0.1984  -21.4566  -44.1640 C.2       9 UNK         0.5000 
     26 O          -0.5966  -22.3412  -43.8470 O.2       9 UNK        -0.5000 
     27 CA          0.4548  -20.2895  -43.1923 C.3       9 UNK         0.1400 
     28 CB          1.7885  -20.4665  -42.4527 C.3       9 UNK        -0.1800 
     29 N           0.4304  -18.9906  -43.8651 N.am      9 UNK        -0.5000 
     30 C          -0.6431  -18.4732  -44.4789 C.2       8 UNK         0.5000 
     31 O          -1.7503  -19.0115  -44.4891 O.2       8 UNK        -0.5000 
     32 CA         -0.4295  -17.1635  -45.2578 C.3       8 UNK         0.1400 
     33 CB         -0.5370  -15.9448  -44.3288 C.3       8 UNK        -0.1800 
     34 N           0.8572  -17.1490  -45.9556 N.am      8 UNK        -0.5000 
     35 C           1.1392  -17.9124  -47.0212 C.2       7 UNK         0.5000 
     36 O           0.3290  -18.6779  -47.5418 O.2       7 UNK        -0.5000 
     37 CA          2.5799  -17.8497  -47.5625 C.3       7 UNK         0.1400 
     38 CB          2.7700  -16.6329  -48.4785 C.3       7 UNK        -0.1800 
     39 N           3.5857  -17.8209  -46.4985 N.am      7 UNK        -0.5000 
     40 C           3.8314  -18.8455  -45.6701 C.2       6 UNK         0.5000 
     41 O           3.2592  -19.9313  -45.7440 O.2       6 UNK        -0.5000 
     42 CA          4.8538  -18.6104  -44.5406 C.3       6 UNK         0.1400 
     43 CB          6.2741  -18.9304  -45.0298 C.3       6 UNK        -0.1800 
     44 N           4.8342  -17.2619  -43.9628 N.am      6 UNK        -0.5000 
     45 C           3.7582  -16.6460  -43.4535 C.2       5 UNK         0.5000 
     46 O           2.6239  -17.1297  -43.4847 O.2       5 UNK        -0.5000 
     47 CA          3.9991  -15.2507  -42.8400 C.3       5 UNK         0.1400 
     48 CB          4.5576  -14.2753  -43.8901 C.3       5 UNK        -0.1800 
     49 N           2.7775  -14.6805  -42.2665 N.am      5 UNK        -0.5000 
     50 C           2.2109  -15.0894  -41.1205 C.2       4 UNK         0.5000 
     51 O           2.7221  -15.9320  -40.3802 O.2       4 UNK        -0.5000 
     52 CA          0.8617  -14.4540  -40.7256 C.3       4 UNK         0.1400 
     53 CB          0.7361  -14.2414  -39.2058 C.3       4 UNK        -0.1800 
     54 N           0.6519  -13.1752  -41.4025 N.am      4 UNK        -0.5000 
     55 C          -0.4552  -12.8103  -42.0592 C.2       3 UNK         0.5000 
     56 O          -1.4662  -13.5079  -42.1463 O.2       3 UNK        -0.5000 
     57 CA         -0.4319  -11.4312  -42.7508 C.3       3 UNK         0.1400 
     58 CB          0.5375  -10.4221  -42.0954 C.3       3 UNK        -0.1800 
     59 N          -0.1676  -11.5346  -44.1891 N.am      3 UNK        -0.5000 
     60 C           0.8951  -12.1066  -44.7810 C.2       2 UNK         0.5000 
     61 O           1.8085  -12.6451  -44.1556 O.2       2 UNK        -0.5000 
     62 CA          0.9626  -12.0737  -46.3204 C.3       2 UNK         0.1400 
     63 CB          1.4526  -13.4047  -46.9184 C.3       2 UNK        -0.1800 
     64 N          -0.3233  -11.7092  -46.9108 N.am      2 UNK        -0.5000 
     65 C          -0.4943  -10.9685  -48.0111 C.2       1 UNK         0.5000 
     66 O           0.4325  -10.5413  -48.7012 O.2       1 UNK        -0.5000 
     67 C          -3.7785  -21.4251  -46.4753 C.2       11 UNK         0.5000 
     68 O          -4.7114  -22.1077  -46.8997 O.2       11 UNK        -0.5000 
     69 N          -3.5270  -21.2328  -45.1731 N.am      12 UNK        -0.5000 
     70 CA         -4.3043  -21.8237  -44.0849 C.3       12 UNK         0.1400 
     71 CB         -3.8468  -21.2292  -42.7444 C.3       12 UNK        -0.1800 
     72 C          -4.2293  -23.3619  -44.0645 C.2       12 UNK         0.5000 
     73 O          -5.2639  -24.0136  -43.9203 O.2       12 UNK        -0.5000 
     74 N          -3.0197  -23.9124  -44.2419 N.am      13 UNK        -0.5000 
     75 CA         -2.7565  -25.3526  -44.2876 C.3       13 UNK         0.1400 
     76 CB         -1.2401  -25.5966  -44.2650 C.3       13 UNK        -0.1800 
     77 C          -3.4011  -26.0504  -45.5002 C.2       13 UNK         0.5000 
     78 O          -3.9584  -27.1383  -45.3499 O.2       13 UNK        -0.5000 
     79 N          -3.3304  -25.4072  -46.6728 N.am      14 UNK        -0.5000 
     80 CA         -3.9162  -25.8866  -47.9259 C.3       14 UNK         0.1400 
     81 CB         -3.2294  -25.1668  -49.0977 C.3       14 UNK        -0.1800 
     82 C          -5.4399  -25.6764  -48.0122 C.2       14 UNK         0.5000 
     83 O          -6.0616  -26.2211  -48.9232 O.2       14 UNK        -0.5000 
     84 N          -6.0049  -24.8595  -47.1103 N.am      15 UNK        -0.5000 
     85 CA         -7.3882  -24.3692  -47.1042 C.3       15 UNK         0.1400 
     86 CB         -8.3853  -25.5175  -46.8447 C.3       15 UNK        -0.1800 
     87 C          -7.7087  -23.5501  -48.3741 C.2       15 UNK         0.5000 
     88 O          -8.7585  -23.7329  -48.9928 O.2       15 UNK        -0.5000 
     89 N          -6.7604  -22.6763  -48.7408 N.am      16 UNK        -0.5000 
     90 CA         -6.7440  -21.7835  -49.9032 C.3       16 UNK         0.1400 
     91 CB         -7.8702  -20.7340  -49.8075 C.3       16 UNK        -0.1800 
     92 C          -6.7020  -22.4966  -51.2724 C.2       16 UNK         0.5000 
     93 O          -6.9996  -21.8685  -52.2904 O.2       16 UNK        -0.5000 
     94 N          -6.3083  -23.7777  -51.2941 N.am      17 UNK        -0.5000 
     95 CA         -6.0552  -24.5391  -52.5174 C.3       17 UNK         0.1400 
     96 CB         -6.0367  -26.0393  -52.1856 C.3       17 UNK        -0.1800 
     97 C          -4.7343  -24.1161  -53.1895 C.2       17 UNK         0.5000 
     98 O          -3.8677  -23.5180  -52.5453 O.2       17 UNK        -0.5000 
     99 N          -4.5875  -24.4858  -54.4696 N.am      18 UNK        -0.5000 
    100 CA        -3.4520  -24.1583  -55.3424 C.3       18 UNK         0.1400 
    101 CB        -3.7317  -24.7122  -56.7477 C.3       18 UNK        -0.1800 
    102 C         -2.0735  -24.6382  -54.8418 C.2       18 UNK         0.5000 
    103 O         -1.0557  -24.0967  -55.2739 O.2       18 UNK        -0.5000 
    104 N         -2.0581  -25.6042  -53.9119 N.am      19 UNK        -0.5000 
    105 CA        -0.8742  -26.0880  -53.1959 C.3       19 UNK         0.1400 
    106 CB        -1.2921  -27.2478  -52.2788 C.3       19 UNK        -0.1800 
    107 C         -0.1406  -24.9982  -52.3833 C.2       19 UNK         0.5000 
    108 O          1.0566  -25.1390  -52.1327 O.2       19 UNK        -0.5000 
    109 N         -0.8528  -23.9243  -52.0122 N.am      20 UNK        -0.5000 
    110 CA        -0.2951  -22.7385  -51.3597 C.3       20 UNK         0.1400 
    111 CB        -1.4401  -21.9746  -50.6845 C.3       20 UNK        -0.1800 
    112 C          0.4660  -21.7982  -52.3169 C.2       20 UNK         0.5000 
    113 O          1.1209  -20.8745  -51.8351 O.2       20 UNK        -0.5000 
    114 N          0.3544  -22.0314  -53.6340 N.am      21 UNK        -0.5000 
    115 CA         0.7980  -21.1742  -54.7370 C.3       21 UNK         0.1400 
    116 CB         2.3177  -20.8971  -54.6766 C.3       21 UNK        -0.1800 
    117 C         -0.0687  -19.9008  -54.8553 C.2       21 UNK         0.5000 
    118 O         -1.2072  -19.8909  -54.3813 O.2       21 UNK        -0.5000 
    119 N          0.4638  -18.8690  -55.5252 N.am      22 UNK        -0.5000 
    120 CA        -0.2044  -17.5870  -55.8322 C.3       22 UNK         0.1400 
    121 C         -1.3951  -17.6970  -56.8374 C.2       22 UNK         0.5000 
    122 N         -1.5275  -18.7810  -57.5925 N.am      22 UNK        -0.7600 
    123 O         -2.1944  -16.7736  -56.9680 O.2       22 UNK        -0.5000 
    124 C124       -0.5697  -16.7589  -54.5660 C.3       23 UNK        -0.0398 
    125 S125        0.8910  -16.2840  -53.5772 S.3       23 UNK        -0.2404 
    126 C126        0.7443  -17.3671  -52.1212 C.3       23 UNK        -0.0205 
    127 H127       -4.1300   -8.3004  -45.1866 H         1 UNK         0.0600 
    128 H128       -3.2409   -7.3750  -46.4001 H         1 UNK         0.0600 
    129 H129       -2.4535   -7.8310  -44.8862 H         1 UNK         0.0600 
    130 H130       -2.5636   -8.6239  -48.0967 H         1 UNK         0.3000 
    131 H131       -1.9171  -10.2284  -49.4089 H         1 UNK         0.0600 
    132 H132       -2.9123  -12.3553  -47.4324 H         1 UNK         0.0800 
    133 H133       -3.9415  -11.4588  -48.4958 H         1 UNK         0.0800 
    134 H134       -2.1894  -14.5336  -47.9619 H         1 UNK         0.0800 
    135 H135       -0.7152  -13.9593  -48.7039 H         1 UNK         0.0800 
    136 H136        0.2813  -15.1649  -50.5770 H         1 UNK         0.1150 
    137 H137       -1.4866  -18.8841  -51.7630 H         1 UNK         0.1150 
    138 H138       -3.5985  -16.2467  -49.1200 H         1 UNK         0.1150 
    139 H139       -4.5964  -18.3965  -51.0317 H         1 UNK         0.0800 
    140 H140       -3.4595  -19.6781  -50.6945 H         1 UNK         0.0800 
    141 H141       -3.1556  -18.7751  -46.7026 H         1 UNK         0.0800 
    142 H142       -2.1747  -18.8191  -48.1271 H         1 UNK         0.0800 
    143 H143       -2.9616  -21.2795  -48.4323 H         1 UNK         0.0600 
    144 H144       -0.8022  -20.2540  -46.9618 H         1 UNK         0.3000 
    145 H145        0.7585  -23.3558  -46.0639 H         1 UNK         0.0600 
    146 H146        2.6226  -22.2035  -47.2268 H         1 UNK         0.0600 
    147 H147        1.4589  -22.8165  -48.3894 H         1 UNK         0.0600 
    148 H148        1.4906  -21.1000  -48.0063 H         1 UNK         0.0600 
    149 H149        1.5174  -20.6846  -45.5134 H         1 UNK         0.3000 
    150 H150       -0.3465  -20.2918  -42.4504 H         1 UNK         0.0600 
    151 H151        1.7917  -21.3913  -41.8747 H         1 UNK         0.0600 
    152 H152        1.9677  -19.6455  -41.7579 H         1 UNK         0.0600 
    153 H153        2.6296  -20.5106  -43.1434 H         1 UNK         0.0600 
    154 H154        1.2918  -18.4505  -43.8621 H         1 UNK         0.3000 
    155 H155       -1.2235  -17.0878  -46.0039 H         1 UNK         0.0600 
    156 H156        0.2629  -15.9230  -43.5892 H         1 UNK         0.0600 
    157 H157       -1.4822  -15.9523  -43.7845 H         1 UNK         0.0600 
    158 H158       -0.4993  -15.0118  -44.8890 H         1 UNK         0.0600 
    159 H159        1.6021  -16.6244  -45.5196 H         1 UNK         0.3000 
    160 H160        2.7423  -18.7492  -48.1606 H         1 UNK         0.0600 
    161 H161        2.7318  -15.6986  -47.9208 H         1 UNK         0.0600 
    162 H162        1.9921  -16.5919  -49.2403 H         1 UNK         0.0600 
    163 H163        3.7292  -16.6753  -48.9947 H         1 UNK         0.0600 
    164 H164        4.0984  -16.9615  -46.3695 H         1 UNK         0.3000 
    165 H165        4.6116  -19.3059  -43.7354 H         1 UNK         0.0600 
    166 H166        6.9941  -18.8815  -44.2127 H         1 UNK         0.0600 
    167 H167        6.3266  -19.9374  -45.4462 H         1 UNK         0.0600 
    168 H168        6.5983  -18.2366  -45.8064 H         1 UNK         0.0600 
    169 H169        5.7268  -16.7932  -43.9093 H         1 UNK         0.3000 
    170 H170        4.7365  -15.3579  -42.0420 H         1 UNK         0.0600 
    171 H171        5.5498  -14.5761  -44.2272 H         1 UNK         0.0600 
    172 H172        3.9159  -14.2224  -44.7690 H         1 UNK         0.0600 
    173 H173        4.6500  -13.2677  -43.4840 H         1 UNK         0.0600 
    174 H174        2.2922  -14.0017  -42.8468 H         1 UNK         0.3000 
    175 H175        0.0965  -15.1692  -41.0337 H         1 UNK         0.0600 
    176 H176        1.5093  -13.5700  -38.8306 H         1 UNK         0.0600 
    177 H177       -0.2330  -13.8142  -38.9476 H         1 UNK         0.0600 
    178 H178        0.8258  -15.1844  -38.6653 H         1 UNK         0.0600 
    179 H179        1.4449  -12.5489  -41.4207 H         1 UNK         0.3000 
    180 H180       -1.4395  -11.0241  -42.6530 H         1 UNK         0.0600 
    181 H181        0.4104   -9.4293  -42.5272 H         1 UNK         0.0600 
    182 H182        1.5833  -10.7023  -42.2244 H         1 UNK         0.0600 
    183 H183        0.3463  -10.3329  -41.0252 H         1 UNK         0.0600 
    184 H184       -0.8876  -11.1189  -44.7721 H         1 UNK         0.3000 
    185 H185        1.6972  -11.3027  -46.5614 H         1 UNK         0.0600 
    186 H186        1.5701  -13.3294  -47.9994 H         1 UNK         0.0600 
    187 H187        2.4242  -13.6851  -46.5132 H         1 UNK         0.0600 
    188 H188        0.7598  -14.2199  -46.7127 H         1 UNK         0.0600 
    189 H189       -1.1450  -11.9517  -46.3724 H         1 UNK         0.3000 
    190 H190       -2.7541  -20.6287  -44.9071 H         1 UNK         0.3000 
    191 H191       -5.3493  -21.5459  -44.2377 H         1 UNK         0.0600 
    192 H192       -4.4347  -21.6308  -41.9183 H         1 UNK         0.0600 
    193 H193       -3.9663  -20.1456  -42.7335 H         1 UNK         0.0600 
    194 H194       -2.7991  -21.4500  -42.5400 H         1 UNK         0.0600 
    195 H195       -2.2105  -23.3010  -44.3117 H         1 UNK         0.3000 
    196 H196       -3.1832  -25.7964  -43.3858 H         1 UNK         0.0600 
    197 H197       -0.7483  -25.1495  -45.1293 H         1 UNK         0.0600 
    198 H198       -0.7864  -25.1754  -43.3677 H         1 UNK         0.0600 
    199 H199       -1.0150  -26.6638  -44.2736 H         1 UNK         0.0600 
    200 H200       -2.7960  -24.5424  -46.7291 H         1 UNK         0.3000 
    201 H201       -3.7213  -26.9570  -48.0178 H         1 UNK         0.0600 
    202 H202       -3.4477  -24.0988  -49.0823 H         1 UNK         0.0600 
    203 H203       -3.5692  -25.5543  -50.0573 H         1 UNK         0.0600 
    204 H204       -2.1468  -25.2915  -49.0655 H         1 UNK         0.0600 
    205 H205       -5.3940  -24.4366  -46.4237 H         1 UNK         0.3000 
    206 H206       -7.4603  -23.6747  -46.2659 H         1 UNK         0.0600 
    207 H207       -8.1253  -26.0663  -45.9395 H         1 UNK         0.0600 
    208 H208       -9.3964  -25.1314  -46.7113 H         1 UNK         0.0600 
    209 H209       -8.4147  -26.2279  -47.6712 H         1 UNK         0.0600 
    210 H210       -5.9537  -22.5871  -48.1237 H         1 UNK         0.3000 
    211 H211       -5.7965  -21.2499  -49.8386 H         1 UNK         0.0600 
    212 H212       -7.7618  -19.9705  -50.5785 H         1 UNK         0.0600 
    213 H213       -7.8490  -20.2224  -48.8453 H         1 UNK         0.0600 
    214 H214       -8.8555  -21.1845  -49.9290 H         1 UNK         0.0600 
    215 H215       -6.0872  -24.2344  -50.4209 H         1 UNK         0.3000 
    216 H216       -6.8730  -24.3514  -53.2163 H         1 UNK         0.0600 
    217 H217       -5.1978  -26.3032  -51.5424 H         1 UNK         0.0600 
    218 H218       -5.9551  -26.6425  -53.0904 H         1 UNK         0.0600 
    219 H219       -6.9535  -26.3421  -51.6789 H         1 UNK         0.0600 
    220 H220       -5.3400  -24.9967  -54.9085 H         1 UNK         0.3000 
    221 H221       -3.4001  -23.0696  -55.4091 H         1 UNK         0.0600 
    222 H222       -4.6494  -24.2947  -57.1622 H         1 UNK         0.0600 
    223 H223       -3.8292  -25.7986  -56.7389 H         1 UNK         0.0600 
    224 H224       -2.9239  -24.4609  -57.4366 H         1 UNK         0.0600 
    225 H225       -2.9454  -25.9844  -53.6189 H         1 UNK         0.3000 
    226 H226       -0.1710  -26.4701  -53.9385 H         1 UNK         0.0600 
    227 H227       -2.0195  -26.9278  -51.5320 H         1 UNK         0.0600 
    228 H228       -1.7336  -28.0645  -52.8503 H         1 UNK         0.0600 
    229 H229       -0.4318  -27.6546  -51.7455 H         1 UNK         0.0600 
    230 H230       -1.8393  -23.8821  -52.2487 H         1 UNK         0.3000 
    231 H231        0.4046  -23.0608  -50.5866 H         1 UNK         0.0600 
    232 H232       -2.1680  -21.6178  -51.4140 H         1 UNK         0.0600 
    233 H233       -1.0678  -21.1082  -50.1358 H         1 UNK         0.0600 
    234 H234       -1.9599  -22.6145  -49.9756 H         1 UNK         0.0600 
    235 H235       -0.2172  -22.8164  -53.9258 H         1 UNK         0.3000 
    236 H236        0.6084  -21.7506  -55.6435 H         1 UNK         0.0600 
    237 H237        2.8759  -21.8114  -54.4745 H         1 UNK         0.0600 
    238 H238        2.6859  -20.5043  -55.6246 H         1 UNK         0.0600 
    239 H239        2.5713  -20.1731  -53.9015 H         1 UNK         0.0600 
    240 H240        1.4021  -18.9632  -55.8858 H         1 UNK         0.3000 
    241 H241        0.5394  -17.0070  -56.3795 H         1 UNK         0.0600 
    242 H242       -2.2915  -18.8372  -58.2477 H         1 UNK         0.3800 
    243 H243       -0.8743  -19.5436  -57.5180 H         1 UNK         0.3800 
    244 H244       -1.2944  -17.2919  -53.9514 H         1 UNK         0.0800 
    245 H245       -1.0582  -15.8254  -54.8489 H         1 UNK         0.0800 
    246 H246        0.7258  -18.4035  -52.4542 H         1 UNK         0.0800 
    247 H247        1.6418  -17.2623  -51.5115 H         1 UNK         0.0800 
@<TRIPOS>BOND
     1    1    2 1    
     2    1  127 1    
     3    1  128 1    
     4    1  129 1    
     5    2    3 2    
     6    2    4 am   BACKBONE|DICT|INTERRES
     7    4    5 1    
     8    4  130 1    
     9    5    6 1    
    10    5   65 1    
    11    5  131 1    
    12    6    7 1    
    13    6  132 1    
    14    6  133 1    
    15    7    8 1    
    16    8    9 1    
    17    8  134 1    
    18    8  135 1    
    19    9   10 ar   
    20    9   14 ar   
    21   10   11 ar   
    22   10  136 1    
    23   11   12 ar   
    24   11  126 1    
    25   12   13 ar   
    26   12  137 1    
    27   13   14 ar   
    28   13   15 1    
    29   14  138 1    
    30   15   16 1    
    31   15  139 1    
    32   15  140 1    
    33   16   17 1    
    34   17   18 1    
    35   17  141 1    
    36   17  142 1    
    37   18   19 1    
    38   18   67 1    
    39   18  143 1    
    40   19   20 am   BACKBONE|DICT|INTERRES
    41   19  144 1    
    42   20   21 2    
    43   20   22 1    
    44   22   23 1    
    45   22   24 1    
    46   22  145 1    
    47   23  146 1    
    48   23  147 1    
    49   23  148 1    
    50   24   25 am   BACKBONE|DICT|INTERRES
    51   24  149 1    
    52   25   26 2    
    53   25   27 1    
    54   27   28 1    
    55   27   29 1    
    56   27  150 1    
    57   28  151 1    
    58   28  152 1    
    59   28  153 1    
    60   29   30 am   BACKBONE|DICT|INTERRES
    61   29  154 1    
    62   30   31 2    
    63   30   32 1    
    64   32   33 1    
    65   32   34 1    
    66   32  155 1    
    67   33  156 1    
    68   33  157 1    
    69   33  158 1    
    70   34   35 am   BACKBONE|DICT|INTERRES
    71   34  159 1    
    72   35   36 2    
    73   35   37 1    
    74   37   38 1    
    75   37   39 1    
    76   37  160 1    
    77   38  161 1    
    78   38  162 1    
    79   38  163 1    
    80   39   40 am   BACKBONE|DICT|INTERRES
    81   39  164 1    
    82   40   41 2    
    83   40   42 1    
    84   42   43 1    
    85   42   44 1    
    86   42  165 1    
    87   43  166 1    
    88   43  167 1    
    89   43  168 1    
    90   44   45 am   BACKBONE|DICT|INTERRES
    91   44  169 1    
    92   45   46 2    
    93   45   47 1    
    94   47   48 1    
    95   47   49 1    
    96   47  170 1    
    97   48  171 1    
    98   48  172 1    
    99   48  173 1    
   100   49   50 am   BACKBONE|DICT|INTERRES
   101   49  174 1    
   102   50   51 2    
   103   50   52 1    
   104   52   53 1    
   105   52   54 1    
   106   52  175 1    
   107   53  176 1    
   108   53  177 1    
   109   53  178 1    
   110   54   55 am   BACKBONE|DICT|INTERRES
   111   54  179 1    
   112   55   56 2    
   113   55   57 1    
   114   57   58 1    
   115   57   59 1    
   116   57  180 1    
   117   58  181 1    
   118   58  182 1    
   119   58  183 1    
   120   59   60 am   BACKBONE|DICT|INTERRES
   121   59  184 1    
   122   60   61 2    
   123   60   62 1    
   124   62   63 1    
   125   62   64 1    
   126   62  185 1    
   127   63  186 1    
   128   63  187 1    
   129   63  188 1    
   130   64   65 am   BACKBONE|DICT|INTERRES
   131   64  189 1    
   132   65   66 2    
   133   67   68 2    
   134   67   69 am   BACKBONE|DICT|INTERRES
   135   69   70 1    
   136   69  190 1    
   137   70   71 1    
   138   70   72 1    
   139   70  191 1    
   140   71  192 1    
   141   71  193 1    
   142   71  194 1    
   143   72   73 2    
   144   72   74 am   BACKBONE|DICT|INTERRES
   145   74   75 1    
   146   74  195 1    
   147   75   76 1    
   148   75   77 1    
   149   75  196 1    
   150   76  197 1    
   151   76  198 1    
   152   76  199 1    
   153   77   78 2    
   154   77   79 am   BACKBONE|DICT|INTERRES
   155   79   80 1    
   156   79  200 1    
   157   80   81 1    
   158   80   82 1    
   159   80  201 1    
   160   81  202 1    
   161   81  203 1    
   162   81  204 1    
   163   82   83 2    
   164   82   84 am   BACKBONE|DICT|INTERRES
   165   84   85 1    
   166   84  205 1    
   167   85   86 1    
   168   85   87 1    
   169   85  206 1    
   170   86  207 1    
   171   86  208 1    
   172   86  209 1    
   173   87   88 2    
   174   87   89 am   BACKBONE|DICT|INTERRES
   175   89   90 1    
   176   89  210 1    
   177   90   91 1    
   178   90   92 1    
   179   90  211 1    
   180   91  212 1    
   181   91  213 1    
   182   91  214 1    
   183   92   93 2    
   184   92   94 am   BACKBONE|DICT|INTERRES
   185   94   95 1    
   186   94  215 1    
   187   95   96 1    
   188   95   97 1    
   189   95  216 1    
   190   96  217 1    
   191   96  218 1    
   192   96  219 1    
   193   97   98 2    
   194   97   99 am   BACKBONE|DICT|INTERRES
   195   99  100 1    
   196   99  220 1    
   197  100  101 1    
   198  100  102 1    
   199  100  221 1    
   200  101  222 1    
   201  101  223 1    
   202  101  224 1    
   203  102  103 2    
   204  102  104 am   BACKBONE|DICT|INTERRES
   205  104  105 1    
   206  104  225 1    
   207  105  106 1    
   208  105  107 1    
   209  105  226 1    
   210  106  227 1    
   211  106  228 1    
   212  106  229 1    
   213  107  108 2    
   214  107  109 am   BACKBONE|DICT|INTERRES
   215  109  110 1    
   216  109  230 1    
   217  110  111 1    
   218  110  112 1    
   219  110  231 1    
   220  111  232 1    
   221  111  233 1    
   222  111  234 1    
   223  112  113 2    
   224  112  114 am   BACKBONE|DICT|INTERRES
   225  114  115 1    
   226  114  235 1    
   227  115  116 1    
   228  115  117 1    
   229  115  236 1    
   230  116  237 1    
   231  116  238 1    
   232  116  239 1    
   233  117  118 2    
   234  117  119 am   BACKBONE|DICT|INTERRES
   235  119  120 1    
   236  119  240 1    
   237  120  121 1    
   238  120  124 1    
   239  120  241 1    
   240  121  122 am   BACKBONE|DICT|INTERRES
   241  121  123 2    
   242  122  242 1    
   243  122  243 1    
   244  124  125 1    
   245  124  244 1    
   246  124  245 1    
   247  125  126 1    
   248  126  246 1    
   249  126  247 1    
@<TRIPOS>SUBSTRUCTURE
     1 UNK         1 GROUP             0       ****    0 ROOT    
