@<TRIPOS>MOLECULE
3R540
247   249    1
SMALL
USER_CHARGES


@<TRIPOS>ATOM
      1 CA          0.6805  -13.6667  -50.8090 C.3       0 UNK        -0.1800 
      2 C           0.2947  -13.6739  -49.3378 C.2       0 UNK         0.5000 
      3 O           1.0145  -13.1109  -48.5132 O.2       0 UNK        -0.5000 
      4 N          -0.8470  -14.2848  -48.9997 N.am      1 UNK        -0.5000 
      5 CA         -1.3704  -14.4179  -47.6304 C.3       1 UNK         0.1400 
      6 C6         -2.5780  -15.3798  -47.5626 C.3       23 UNK        -0.0398 
      7 S7         -3.9401  -14.9482  -48.6986 S.3       23 UNK        -0.2404 
      8 C8         -5.1858  -16.2053  -48.2522 C.3       23 UNK        -0.0205 
      9 C9         -4.8228  -17.6633  -48.5478 C.ar      23 UNK        -0.0193 
     10 C10        -3.7317  -18.0408  -49.3406 C.ar      23 UNK        -0.1150 
     11 C11        -3.4507  -19.3877  -49.5780 C.ar      23 UNK        -0.0193 
     12 C12        -4.2811  -20.3714  -49.0359 C.ar      23 UNK        -0.1150 
     13 C13        -5.3751  -20.0170  -48.2344 C.ar      23 UNK        -0.0193 
     14 C14        -5.6341  -18.6628  -48.0051 C.ar      23 UNK        -0.1150 
     15 C15        -6.3173  -21.0444  -47.6027 C.3       23 UNK        -0.0205 
     16 S16        -5.6848  -22.7517  -47.4739 S.3       23 UNK        -0.2404 
     17 C17        -4.2580  -22.5306  -46.3596 C.3       23 UNK        -0.0398 
     18 CA         -3.0985  -23.5039  -46.6948 C.3       11 UNK         0.1400 
     19 N          -1.7918  -22.8688  -46.4919 N.am      11 UNK        -0.5000 
     20 C          -0.6052  -23.4356  -46.7538 C.2       10 UNK         0.5000 
     21 O          -0.4825  -24.5452  -47.2728 O.2       10 UNK        -0.5000 
     22 CA          0.6596  -22.6782  -46.3047 C.3       10 UNK         0.1400 
     23 CB          1.2745  -21.9299  -47.4957 C.3       10 UNK        -0.1800 
     24 N           0.4497  -21.7439  -45.1929 N.am      10 UNK        -0.5000 
     25 C          -0.0859  -22.0365  -43.9972 C.2       9 UNK         0.5000 
     26 O          -0.4614  -23.1646  -43.6749 O.2       9 UNK        -0.5000 
     27 CA         -0.2937  -20.8693  -43.0153 C.3       9 UNK         0.1400 
     28 CB          0.9063  -20.7491  -42.0656 C.3       9 UNK        -0.1800 
     29 N          -0.5299  -19.5816  -43.6734 N.am      9 UNK        -0.5000 
     30 C          -1.5692  -19.3013  -44.4748 C.2       8 UNK         0.5000 
     31 O          -2.4551  -20.1100  -44.7521 O.2       8 UNK        -0.5000 
     32 CA         -1.5924  -17.8962  -45.1037 C.3       8 UNK         0.1400 
     33 CB         -2.0707  -16.8427  -44.0909 C.3       8 UNK        -0.1800 
     34 N          -0.2725  -17.5270  -45.6183 N.am      8 UNK        -0.5000 
     35 C           0.2651  -18.0480  -46.7311 C.2       7 UNK         0.5000 
     36 O          -0.3512  -18.7828  -47.4995 O.2       7 UNK        -0.5000 
     37 CA          1.7482  -17.7411  -47.0137 C.3       7 UNK         0.1400 
     38 CB          1.9088  -16.5377  -47.9500 C.3       7 UNK        -0.1800 
     39 N           2.5166  -17.4990  -45.7949 N.am      7 UNK        -0.5000 
     40 C           2.8901  -18.4542  -44.9334 C.2       6 UNK         0.5000 
     41 O           2.6545  -19.6506  -45.0964 O.2       6 UNK        -0.5000 
     42 CA          3.6074  -17.9827  -43.6539 C.3       6 UNK         0.1400 
     43 CB          5.1206  -17.8754  -43.8930 C.3       6 UNK        -0.1800 
     44 N           3.1038  -16.6977  -43.1624 N.am      6 UNK        -0.5000 
     45 C           1.8529  -16.4866  -42.7274 C.2       5 UNK         0.5000 
     46 O           1.0035  -17.3729  -42.6545 O.2       5 UNK        -0.5000 
     47 CA          1.4714  -15.0391  -42.3652 C.3       5 UNK         0.1400 
     48 CB          1.6899  -14.7841  -40.8668 C.3       5 UNK        -0.1800 
     49 N           2.2142  -14.0420  -43.1414 N.am      5 UNK        -0.5000 
     50 C           2.0703  -13.8464  -44.4588 C.2       4 UNK         0.5000 
     51 O           1.2818  -14.4795  -45.1623 O.2       4 UNK        -0.5000 
     52 CA          3.0232  -12.8330  -45.1018 C.3       4 UNK         0.1400 
     53 CB          4.1570  -13.5612  -45.8433 C.3       4 UNK        -0.1800 
     54 N           2.3041  -11.9794  -46.0438 N.am      4 UNK        -0.5000 
     55 C           2.4967  -10.6587  -46.1629 C.2       3 UNK         0.5000 
     56 O           3.2765  -10.0172  -45.4568 O.2       3 UNK        -0.5000 
     57 CA          1.7020   -9.9150  -47.2486 C.3       3 UNK         0.1400 
     58 CB          2.4571   -9.9546  -48.5871 C.3       3 UNK        -0.1800 
     59 N           0.3639  -10.4718  -47.4369 N.am      3 UNK        -0.5000 
     60 C          -0.7525   -9.9760  -46.8845 C.2       2 UNK         0.5000 
     61 O          -0.7641   -9.0085  -46.1222 O.2       2 UNK        -0.5000 
     62 CA         -2.0894  -10.6496  -47.2563 C.3       2 UNK         0.1400 
     63 CB         -2.8129   -9.8402  -48.3435 C.3       2 UNK        -0.1800 
     64 N          -1.9221  -12.0222  -47.7287 N.am      2 UNK        -0.5000 
     65 C          -1.6789  -13.0732  -46.9353 C.2       1 UNK         0.5000 
     66 O          -1.6730  -13.0077  -45.7058 O.2       1 UNK        -0.5000 
     67 C          -3.2461  -24.8318  -45.9140 C.2       11 UNK         0.5000 
     68 O          -3.9026  -25.7539  -46.3974 O.2       11 UNK        -0.5000 
     69 N          -2.6070  -24.9125  -44.7383 N.am      12 UNK        -0.5000 
     70 CA         -2.5472  -26.1068  -43.9008 C.3       12 UNK         0.1400 
     71 CB         -2.8934  -25.7222  -42.4536 C.3       12 UNK        -0.1800 
     72 C          -1.1561  -26.7569  -43.9663 C.2       12 UNK         0.5000 
     73 O          -1.0664  -27.9754  -44.1128 O.2       12 UNK        -0.5000 
     74 N          -0.0973  -25.9415  -43.8536 N.am      13 UNK        -0.5000 
     75 CA          1.2891  -26.3925  -43.7115 C.3       13 UNK         0.1400 
     76 CB          2.1594  -25.2160  -43.2428 C.3       13 UNK        -0.1800 
     77 C           1.8785  -27.0303  -44.9820 C.2       13 UNK         0.5000 
     78 O           2.6713  -27.9661  -44.8696 O.2       13 UNK        -0.5000 
     79 N           1.4824  -26.5241  -46.1565 N.am      14 UNK        -0.5000 
     80 CA          1.8956  -27.0342  -47.4673 C.3       14 UNK         0.1400 
     81 CB          2.5086  -25.8780  -48.2768 C.3       14 UNK        -0.1800 
     82 C           0.7176  -27.6714  -48.2290 C.2       14 UNK         0.5000 
     83 O           0.9223  -28.1782  -49.3326 O.2       14 UNK        -0.5000 
     84 N          -0.4875  -27.6224  -47.6385 N.am      15 UNK        -0.5000 
     85 CA         -1.7756  -28.0476  -48.1943 C.3       15 UNK         0.1400 
     86 CB         -1.8228  -29.5821  -48.3485 C.3       15 UNK        -0.1800 
     87 C          -2.1479  -27.2929  -49.4903 C.2       15 UNK         0.5000 
     88 O          -2.7120  -27.8893  -50.4106 O.2       15 UNK        -0.5000 
     89 N          -1.8019  -25.9983  -49.5511 N.am      16 UNK        -0.5000 
     90 CA         -2.0706  -25.1178  -50.6884 C.3       16 UNK         0.1400 
     91 CB         -1.3217  -23.7908  -50.4820 C.3       16 UNK        -0.1800 
     92 C          -3.5761  -24.8591  -50.8939 C.2       16 UNK         0.5000 
     93 O          -4.3430  -24.8636  -49.9292 O.2       16 UNK        -0.5000 
     94 N          -3.9646  -24.6073  -52.1492 N.am      17 UNK        -0.5000 
     95 CA         -5.3050  -24.1507  -52.5180 C.3       17 UNK         0.1400 
     96 CB         -5.4948  -24.3447  -54.0307 C.3       17 UNK        -0.1800 
     97 C          -5.5006  -22.6715  -52.1403 C.2       17 UNK         0.5000 
     98 O          -4.5224  -21.9271  -52.0689 O.2       17 UNK        -0.5000 
     99 N          -6.7579  -22.2540  -51.9536 N.am      18 UNK        -0.5000 
    100 CA        -7.1523  -20.8894  -51.5889 C.3       18 UNK         0.1400 
    101 CB        -8.5463  -20.9423  -50.9375 C.3       18 UNK        -0.1800 
    102 C         -7.0909  -19.9073  -52.7815 C.2       18 UNK         0.5000 
    103 O         -8.0891  -19.2615  -53.1059 O.2       18 UNK        -0.5000 
    104 N         -5.9237  -19.8239  -53.4311 N.am      19 UNK        -0.5000 
    105 CA        -5.6744  -18.9818  -54.6037 C.3       19 UNK         0.1400 
    106 CB        -4.5222  -19.5908  -55.4190 C.3       19 UNK        -0.1800 
    107 C         -5.3767  -17.5106  -54.2514 C.2       19 UNK         0.5000 
    108 O         -5.3908  -16.6675  -55.1487 O.2       19 UNK        -0.5000 
    109 N         -5.0828  -17.2302  -52.9728 N.am      20 UNK        -0.5000 
    110 CA        -4.7632  -15.9373  -52.3466 C.3       20 UNK         0.1400 
    111 CB        -5.9192  -14.9327  -52.5025 C.3       20 UNK        -0.1800 
    112 C         -3.4176  -15.3140  -52.7744 C.2       20 UNK         0.5000 
    113 O         -2.7286  -14.7326  -51.9366 O.2       20 UNK        -0.5000 
    114 N         -3.0501  -15.4605  -54.0532 N.am      21 UNK        -0.5000 
    115 CA        -1.7562  -15.0646  -54.6165 C.3       21 UNK         0.1400 
    116 CB        -1.8715  -15.0442  -56.1483 C.3       21 UNK        -0.1800 
    117 C         -0.6015  -15.9865  -54.1723 C.2       21 UNK         0.5000 
    118 O          0.5609  -15.5854  -54.2427 O.2       21 UNK        -0.5000 
    119 N         -0.9485  -17.2002  -53.7297 N.am      22 UNK        -0.5000 
    120 CA        -0.0753  -18.1707  -53.0594 C.3       22 UNK         0.1400 
    121 C          0.5240  -17.6347  -51.7288 C.2       22 UNK         0.5000 
    122 N          1.7476  -18.0248  -51.3961 N.am      22 UNK        -0.7600 
    123 O         -0.1204  -16.9032  -50.9828 O.2       22 UNK        -0.5000 
    124 C124       -0.8074  -19.5243  -52.8432 C.3       23 UNK        -0.0398 
    125 S125       -2.4946  -19.3566  -52.1587 S.3       23 UNK        -0.2404 
    126 C126       -2.2357  -19.7653  -50.4090 C.3       23 UNK        -0.0205 
    127 H127       -0.1015  -14.0989  -51.4336 H         1 UNK         0.0600 
    128 H128        1.5908  -14.2474  -50.9581 H         1 UNK         0.0600 
    129 H129        0.8626  -12.6468  -51.1470 H         1 UNK         0.0600 
    130 H130       -1.4006  -14.7254  -49.7253 H         1 UNK         0.3000 
    131 H131       -0.5742  -14.8737  -47.0406 H         1 UNK         0.0600 
    132 H132       -2.2301  -16.3843  -47.8002 H         1 UNK         0.0800 
    133 H133       -2.9765  -15.4358  -46.5493 H         1 UNK         0.0800 
    134 H134       -5.4133  -16.0984  -47.1904 H         1 UNK         0.0800 
    135 H135       -6.1060  -15.9701  -48.7885 H         1 UNK         0.0800 
    136 H136       -3.0838  -17.2986  -49.7840 H         1 UNK         0.1150 
    137 H137       -4.0665  -21.4099  -49.2431 H         1 UNK         0.1150 
    138 H138       -6.4816  -18.3819  -47.3951 H         1 UNK         0.1150 
    139 H139       -6.5932  -20.7142  -46.5999 H         1 UNK         0.0800 
    140 H140       -7.2400  -21.0643  -48.1818 H         1 UNK         0.0800 
    141 H141       -4.5875  -22.6197  -45.3226 H         1 UNK         0.0800 
    142 H142       -3.9162  -21.5009  -46.4604 H         1 UNK         0.0800 
    143 H143       -3.1428  -23.7529  -47.7562 H         1 UNK         0.0600 
    144 H144       -1.8003  -21.9589  -46.0481 H         1 UNK         0.3000 
    145 H145        1.3807  -23.4238  -45.9681 H         1 UNK         0.0600 
    146 H146        2.1960  -21.4207  -47.2133 H         1 UNK         0.0600 
    147 H147        1.5199  -22.6182  -48.3052 H         1 UNK         0.0600 
    148 H148        0.5877  -21.1871  -47.9004 H         1 UNK         0.0600 
    149 H149        0.7893  -20.8005  -45.3338 H         1 UNK         0.3000 
    150 H150       -1.1785  -21.0994  -42.4185 H         1 UNK         0.0600 
    151 H151        1.0618  -21.6776  -41.5146 H         1 UNK         0.0600 
    152 H152        0.7536  -19.9567  -41.3326 H         1 UNK         0.0600 
    153 H153        1.8266  -20.5327  -42.6075 H         1 UNK         0.0600 
    154 H154        0.1238  -18.8354  -43.4505 H         1 UNK         0.3000 
    155 H155       -2.2996  -17.9137  -45.9357 H         1 UNK         0.0600 
    156 H156       -3.1198  -17.0010  -43.8389 H         1 UNK         0.0600 
    157 H157       -1.9771  -15.8316  -44.4863 H         1 UNK         0.0600 
    158 H158       -1.5062  -16.8820  -43.1598 H         1 UNK         0.0600 
    159 H159        0.2983  -16.9308  -45.0357 H         1 UNK         0.3000 
    160 H160        2.1646  -18.6152  -47.5194 H         1 UNK         0.0600 
    161 H161        1.6568  -15.6031  -47.4532 H         1 UNK         0.0600 
    162 H162        1.2581  -16.6268  -48.8178 H         1 UNK         0.0600 
    163 H163        2.9330  -16.4532  -48.3129 H         1 UNK         0.0600 
    164 H164        2.7103  -16.5346  -45.5677 H         1 UNK         0.3000 
    165 H165        3.4355  -18.7317  -42.8786 H         1 UNK         0.0600 
    166 H166        5.6477  -17.6158  -42.9747 H         1 UNK         0.0600 
    167 H167        5.5282  -18.8249  -44.2427 H         1 UNK         0.0600 
    168 H168        5.3586  -17.1197  -44.6428 H         1 UNK         0.0600 
    169 H169        3.7443  -15.9184  -43.1815 H         1 UNK         0.3000 
    170 H170        0.4080  -14.9154  -42.5824 H         1 UNK         0.0600 
    171 H171        1.1290  -15.4997  -40.2638 H         1 UNK         0.0600 
    172 H172        2.7412  -14.8749  -40.5907 H         1 UNK         0.0600 
    173 H173        1.3520  -13.7873  -40.5829 H         1 UNK         0.0600 
    174 H174        2.8881  -13.4882  -42.6321 H         1 UNK         0.3000 
    175 H175        3.4619  -12.2304  -44.3036 H         1 UNK         0.0600 
    176 H176        3.7741  -14.1661  -46.6667 H         1 UNK         0.0600 
    177 H177        4.8739  -12.8520  -46.2573 H         1 UNK         0.0600 
    178 H178        4.7058  -14.2240  -45.1731 H         1 UNK         0.0600 
    179 H179        1.6570  -12.4536  -46.6665 H         1 UNK         0.3000 
    180 H180        1.6285   -8.8684  -46.9453 H         1 UNK         0.0600 
    181 H181        2.5927  -10.9748  -48.9476 H         1 UNK         0.0600 
    182 H182        3.4477   -9.5088  -48.4885 H         1 UNK         0.0600 
    183 H183        1.9244   -9.3955  -49.3564 H         1 UNK         0.0600 
    184 H184        0.3098  -11.3167  -47.9950 H         1 UNK         0.3000 
    185 H185       -2.7173  -10.6582  -46.3627 H         1 UNK         0.0600 
    186 H186       -2.9853   -8.8137  -48.0171 H         1 UNK         0.0600 
    187 H187       -2.2337   -9.7982  -49.2669 H         1 UNK         0.0600 
    188 H188       -3.7858  -10.2736  -48.5762 H         1 UNK         0.0600 
    189 H189       -1.9280  -12.1699  -48.7276 H         1 UNK         0.3000 
    190 H190       -2.0484  -24.1232  -44.4314 H         1 UNK         0.3000 
    191 H191       -3.2769  -26.8482  -44.2331 H         1 UNK         0.0600 
    192 H192       -3.9039  -25.3187  -42.3870 H         1 UNK         0.0600 
    193 H193       -2.8463  -26.5911  -41.7960 H         1 UNK         0.0600 
    194 H194       -2.2080  -24.9715  -42.0578 H         1 UNK         0.0600 
    195 H195       -0.2552  -24.9428  -43.7350 H         1 UNK         0.3000 
    196 H196        1.3092  -27.1533  -42.9281 H         1 UNK         0.0600 
    197 H197        3.1890  -25.5345  -43.0747 H         1 UNK         0.0600 
    198 H198        1.7905  -24.8020  -42.3041 H         1 UNK         0.0600 
    199 H199        2.1820  -24.4103  -43.9760 H         1 UNK         0.0600 
    200 H200        0.8158  -25.7622  -46.1726 H         1 UNK         0.3000 
    201 H201        2.6570  -27.8088  -47.3586 H         1 UNK         0.0600 
    202 H202        3.3268  -25.4053  -47.7335 H         1 UNK         0.0600 
    203 H203        1.7719  -25.1097  -48.5100 H         1 UNK         0.0600 
    204 H204        2.9132  -26.2370  -49.2238 H         1 UNK         0.0600 
    205 H205       -0.5325  -27.1900  -46.7281 H         1 UNK         0.3000 
    206 H206       -2.5301  -27.7734  -47.4570 H         1 UNK         0.0600 
    207 H207       -1.5666  -30.0794  -47.4130 H         1 UNK         0.0600 
    208 H208       -2.8225  -29.9159  -48.6286 H         1 UNK         0.0600 
    209 H209       -1.1336  -29.9347  -49.1163 H         1 UNK         0.0600 
    210 H210       -1.3458  -25.5769  -48.7484 H         1 UNK         0.3000 
    211 H211       -1.6751  -25.6026  -51.5833 H         1 UNK         0.0600 
    212 H212       -1.4344  -23.1398  -51.3501 H         1 UNK         0.0600 
    213 H213       -0.2543  -23.9553  -50.3334 H         1 UNK         0.0600 
    214 H214       -1.7003  -23.2456  -49.6175 H         1 UNK         0.0600 
    215 H215       -3.2689  -24.5761  -52.8796 H         1 UNK         0.3000 
    216 H216       -6.0453  -24.7531  -51.9871 H         1 UNK         0.0600 
    217 H217       -6.4964  -24.0453  -54.3420 H         1 UNK         0.0600 
    218 H218       -5.3670  -25.3896  -54.3138 H         1 UNK         0.0600 
    219 H219       -4.7825  -23.7508  -54.6053 H         1 UNK         0.0600 
    220 H220       -7.5124  -22.9136  -52.0757 H         1 UNK         0.3000 
    221 H221       -6.4535  -20.5160  -50.8396 H         1 UNK         0.0600 
    222 H222       -9.3094  -21.2686  -51.6453 H         1 UNK         0.0600 
    223 H223       -8.5631  -21.6293  -50.0917 H         1 UNK         0.0600 
    224 H224       -8.8403  -19.9608  -50.5634 H         1 UNK         0.0600 
    225 H225       -5.1536  -20.3971  -53.0943 H         1 UNK         0.3000 
    226 H226       -6.5662  -18.9870  -55.2338 H         1 UNK         0.0600 
    227 H227       -4.7502  -20.6141  -55.7181 H         1 UNK         0.0600 
    228 H228       -4.3429  -19.0194  -56.3306 H         1 UNK         0.0600 
    229 H229       -3.5894  -19.6081  -54.8564 H         1 UNK         0.0600 
    230 H230       -5.0433  -18.0210  -52.3447 H         1 UNK         0.3000 
    231 H231       -4.6731  -16.1556  -51.2839 H         1 UNK         0.0600 
    232 H232       -6.0660  -14.6356  -53.5411 H         1 UNK         0.0600 
    233 H233       -5.7218  -14.0259  -51.9294 H         1 UNK         0.0600 
    234 H234       -6.8563  -15.3512  -52.1354 H         1 UNK         0.0600 
    235 H235       -3.7150  -15.9051  -54.6798 H         1 UNK         0.3000 
    236 H236       -1.5237  -14.0545  -54.2730 H         1 UNK         0.0600 
    237 H237       -0.9333  -14.7298  -56.6073 H         1 UNK         0.0600 
    238 H238       -2.1187  -16.0297  -56.5455 H         1 UNK         0.0600 
    239 H239       -2.6429  -14.3472  -56.4763 H         1 UNK         0.0600 
    240 H240       -1.9335  -17.4101  -53.6732 H         1 UNK         0.3000 
    241 H241        0.7610  -18.3525  -53.7371 H         1 UNK         0.0600 
    242 H242        2.1441  -17.6903  -50.5344 H         1 UNK         0.3800 
    243 H243        2.2942  -18.6266  -51.9922 H         1 UNK         0.3800 
    244 H244       -0.2183  -20.2028  -52.2234 H         1 UNK         0.0800 
    245 H245       -0.9066  -20.0278  -53.8055 H         1 UNK         0.0800 
    246 H246       -1.3655  -19.2308  -50.0263 H         1 UNK         0.0800 
    247 H247       -2.0165  -20.8292  -50.3160 H         1 UNK         0.0800 
@<TRIPOS>BOND
     1    1    2 1    
     2    1  127 1    
     3    1  128 1    
     4    1  129 1    
     5    2    3 2    
     6    2    4 am   BACKBONE|DICT|INTERRES
     7    4    5 1    
     8    4  130 1    
     9    5    6 1    
    10    5   65 1    
    11    5  131 1    
    12    6    7 1    
    13    6  132 1    
    14    6  133 1    
    15    7    8 1    
    16    8    9 1    
    17    8  134 1    
    18    8  135 1    
    19    9   10 ar   
    20    9   14 ar   
    21   10   11 ar   
    22   10  136 1    
    23   11   12 ar   
    24   11  126 1    
    25   12   13 ar   
    26   12  137 1    
    27   13   14 ar   
    28   13   15 1    
    29   14  138 1    
    30   15   16 1    
    31   15  139 1    
    32   15  140 1    
    33   16   17 1    
    34   17   18 1    
    35   17  141 1    
    36   17  142 1    
    37   18   19 1    
    38   18   67 1    
    39   18  143 1    
    40   19   20 am   BACKBONE|DICT|INTERRES
    41   19  144 1    
    42   20   21 2    
    43   20   22 1    
    44   22   23 1    
    45   22   24 1    
    46   22  145 1    
    47   23  146 1    
    48   23  147 1    
    49   23  148 1    
    50   24   25 am   BACKBONE|DICT|INTERRES
    51   24  149 1    
    52   25   26 2    
    53   25   27 1    
    54   27   28 1    
    55   27   29 1    
    56   27  150 1    
    57   28  151 1    
    58   28  152 1    
    59   28  153 1    
    60   29   30 am   BACKBONE|DICT|INTERRES
    61   29  154 1    
    62   30   31 2    
    63   30   32 1    
    64   32   33 1    
    65   32   34 1    
    66   32  155 1    
    67   33  156 1    
    68   33  157 1    
    69   33  158 1    
    70   34   35 am   BACKBONE|DICT|INTERRES
    71   34  159 1    
    72   35   36 2    
    73   35   37 1    
    74   37   38 1    
    75   37   39 1    
    76   37  160 1    
    77   38  161 1    
    78   38  162 1    
    79   38  163 1    
    80   39   40 am   BACKBONE|DICT|INTERRES
    81   39  164 1    
    82   40   41 2    
    83   40   42 1    
    84   42   43 1    
    85   42   44 1    
    86   42  165 1    
    87   43  166 1    
    88   43  167 1    
    89   43  168 1    
    90   44   45 am   BACKBONE|DICT|INTERRES
    91   44  169 1    
    92   45   46 2    
    93   45   47 1    
    94   47   48 1    
    95   47   49 1    
    96   47  170 1    
    97   48  171 1    
    98   48  172 1    
    99   48  173 1    
   100   49   50 am   BACKBONE|DICT|INTERRES
   101   49  174 1    
   102   50   51 2    
   103   50   52 1    
   104   52   53 1    
   105   52   54 1    
   106   52  175 1    
   107   53  176 1    
   108   53  177 1    
   109   53  178 1    
   110   54   55 am   BACKBONE|DICT|INTERRES
   111   54  179 1    
   112   55   56 2    
   113   55   57 1    
   114   57   58 1    
   115   57   59 1    
   116   57  180 1    
   117   58  181 1    
   118   58  182 1    
   119   58  183 1    
   120   59   60 am   BACKBONE|DICT|INTERRES
   121   59  184 1    
   122   60   61 2    
   123   60   62 1    
   124   62   63 1    
   125   62   64 1    
   126   62  185 1    
   127   63  186 1    
   128   63  187 1    
   129   63  188 1    
   130   64   65 am   BACKBONE|DICT|INTERRES
   131   64  189 1    
   132   65   66 2    
   133   67   68 2    
   134   67   69 am   BACKBONE|DICT|INTERRES
   135   69   70 1    
   136   69  190 1    
   137   70   71 1    
   138   70   72 1    
   139   70  191 1    
   140   71  192 1    
   141   71  193 1    
   142   71  194 1    
   143   72   73 2    
   144   72   74 am   BACKBONE|DICT|INTERRES
   145   74   75 1    
   146   74  195 1    
   147   75   76 1    
   148   75   77 1    
   149   75  196 1    
   150   76  197 1    
   151   76  198 1    
   152   76  199 1    
   153   77   78 2    
   154   77   79 am   BACKBONE|DICT|INTERRES
   155   79   80 1    
   156   79  200 1    
   157   80   81 1    
   158   80   82 1    
   159   80  201 1    
   160   81  202 1    
   161   81  203 1    
   162   81  204 1    
   163   82   83 2    
   164   82   84 am   BACKBONE|DICT|INTERRES
   165   84   85 1    
   166   84  205 1    
   167   85   86 1    
   168   85   87 1    
   169   85  206 1    
   170   86  207 1    
   171   86  208 1    
   172   86  209 1    
   173   87   88 2    
   174   87   89 am   BACKBONE|DICT|INTERRES
   175   89   90 1    
   176   89  210 1    
   177   90   91 1    
   178   90   92 1    
   179   90  211 1    
   180   91  212 1    
   181   91  213 1    
   182   91  214 1    
   183   92   93 2    
   184   92   94 am   BACKBONE|DICT|INTERRES
   185   94   95 1    
   186   94  215 1    
   187   95   96 1    
   188   95   97 1    
   189   95  216 1    
   190   96  217 1    
   191   96  218 1    
   192   96  219 1    
   193   97   98 2    
   194   97   99 am   BACKBONE|DICT|INTERRES
   195   99  100 1    
   196   99  220 1    
   197  100  101 1    
   198  100  102 1    
   199  100  221 1    
   200  101  222 1    
   201  101  223 1    
   202  101  224 1    
   203  102  103 2    
   204  102  104 am   BACKBONE|DICT|INTERRES
   205  104  105 1    
   206  104  225 1    
   207  105  106 1    
   208  105  107 1    
   209  105  226 1    
   210  106  227 1    
   211  106  228 1    
   212  106  229 1    
   213  107  108 2    
   214  107  109 am   BACKBONE|DICT|INTERRES
   215  109  110 1    
   216  109  230 1    
   217  110  111 1    
   218  110  112 1    
   219  110  231 1    
   220  111  232 1    
   221  111  233 1    
   222  111  234 1    
   223  112  113 2    
   224  112  114 am   BACKBONE|DICT|INTERRES
   225  114  115 1    
   226  114  235 1    
   227  115  116 1    
   228  115  117 1    
   229  115  236 1    
   230  116  237 1    
   231  116  238 1    
   232  116  239 1    
   233  117  118 2    
   234  117  119 am   BACKBONE|DICT|INTERRES
   235  119  120 1    
   236  119  240 1    
   237  120  121 1    
   238  120  124 1    
   239  120  241 1    
   240  121  122 am   BACKBONE|DICT|INTERRES
   241  121  123 2    
   242  122  242 1    
   243  122  243 1    
   244  124  125 1    
   245  124  244 1    
   246  124  245 1    
   247  125  126 1    
   248  126  246 1    
   249  126  247 1    
@<TRIPOS>SUBSTRUCTURE
     1 UNK         1 GROUP             0       ****    0 ROOT    
