@<TRIPOS>MOLECULE
3R540
247   249    1
SMALL
USER_CHARGES


@<TRIPOS>ATOM
      1 CA          0.6683   -8.5229  -47.6903 C.3       0 UNK        -0.1800 
      2 C           1.4682   -9.5112  -48.5270 C.2       0 UNK         0.5000 
      3 O           2.5011   -9.1455  -49.0882 O.2       0 UNK        -0.5000 
      4 N           0.9970  -10.7616  -48.6116 N.am      1 UNK        -0.5000 
      5 CA          1.6463  -11.8605  -49.3396 C.3       1 UNK         0.1400 
      6 C6          0.6496  -13.0074  -49.6441 C.3       23 UNK        -0.0398 
      7 S7         -0.0894  -13.7822  -48.1566 S.3       23 UNK        -0.2404 
      8 C8          0.7126  -15.4263  -48.1768 C.3       23 UNK        -0.0205 
      9 C9          0.2299  -16.4041  -49.2533 C.ar      23 UNK        -0.0193 
     10 C10        -0.7875  -16.0982  -50.1690 C.ar      23 UNK        -0.1150 
     11 C11        -1.1567  -17.0088  -51.1621 C.ar      23 UNK        -0.0193 
     12 C12        -0.5179  -18.2486  -51.2310 C.ar      23 UNK        -0.1150 
     13 C13         0.4890  -18.5773  -50.3197 C.ar      23 UNK        -0.0193 
     14 C14         0.8531  -17.6540  -49.3344 C.ar      23 UNK        -0.1150 
     15 C15         1.2061  -19.9156  -50.4230 C.3       23 UNK        -0.0205 
     16 S16         0.1474  -21.3042  -49.9163 S.3       23 UNK        -0.2404 
     17 C17        -0.1063  -20.9415  -48.1471 C.3       23 UNK        -0.0398 
     18 CA         -0.4125  -22.2134  -47.3218 C.3       11 UNK         0.1400 
     19 N          -0.1555  -22.0157  -45.8931 N.am      11 UNK        -0.5000 
     20 C          -0.1717  -22.9925  -44.9747 C.2       10 UNK         0.5000 
     21 O          -0.3677  -24.1770  -45.2407 O.2       10 UNK        -0.5000 
     22 CA          0.0035  -22.5740  -43.5055 C.3       10 UNK         0.1400 
     23 CB          1.4828  -22.3198  -43.1817 C.3       10 UNK        -0.1800 
     24 N          -0.7955  -21.3969  -43.1645 N.am      10 UNK        -0.5000 
     25 C          -2.1355  -21.3560  -43.2025 C.2       9 UNK         0.5000 
     26 O          -2.8396  -22.3303  -43.4685 O.2       9 UNK        -0.5000 
     27 CA         -2.7984  -19.9885  -42.9532 C.3       9 UNK         0.1400 
     28 CB         -2.8748  -19.6805  -41.4508 C.3       9 UNK        -0.1800 
     29 N          -2.1143  -18.8948  -43.6444 N.am      9 UNK        -0.5000 
     30 C          -1.9915  -18.7887  -44.9756 C.2       8 UNK         0.5000 
     31 O          -2.4772  -19.5859  -45.7761 O.2       8 UNK        -0.5000 
     32 CA         -1.1276  -17.6292  -45.4973 C.3       8 UNK         0.1400 
     33 CB         -1.9177  -16.3105  -45.4968 C.3       8 UNK        -0.1800 
     34 N           0.1009  -17.4827  -44.7149 N.am      8 UNK        -0.5000 
     35 C           1.0949  -18.3831  -44.7026 C.2       7 UNK         0.5000 
     36 O           1.1024  -19.3999  -45.3959 O.2       7 UNK        -0.5000 
     37 CA          2.2514  -18.1289  -43.7197 C.3       7 UNK         0.1400 
     38 CB          3.2804  -17.1718  -44.3321 C.3       7 UNK        -0.1800 
     39 N           1.7861  -17.5875  -42.4427 N.am      7 UNK        -0.5000 
     40 C           1.0830  -18.2901  -41.5420 C.2       6 UNK         0.5000 
     41 O           0.7937  -19.4772  -41.6813 O.2       6 UNK        -0.5000 
     42 CA          0.5727  -17.5308  -40.3020 C.3       6 UNK         0.1400 
     43 CB          1.6191  -17.5698  -39.1787 C.3       6 UNK        -0.1800 
     44 N           0.2230  -16.1382  -40.5838 N.am      6 UNK        -0.5000 
     45 C          -0.6974  -15.7369  -41.4722 C.2       5 UNK         0.5000 
     46 O          -1.4126  -16.5149  -42.1030 O.2       5 UNK        -0.5000 
     47 CA         -0.8127  -14.2219  -41.7335 C.3       5 UNK         0.1400 
     48 CB         -2.0796  -13.6594  -41.0721 C.3       5 UNK        -0.1800 
     49 N           0.3488  -13.4496  -41.2776 N.am      5 UNK        -0.5000 
     50 C           1.5808  -13.5249  -41.7984 C.2       4 UNK         0.5000 
     51 O           1.8931  -14.2739  -42.7286 O.2       4 UNK        -0.5000 
     52 CA          2.6505  -12.6635  -41.1178 C.3       4 UNK         0.1400 
     53 CB          3.2669  -13.4082  -39.9203 C.3       4 UNK        -0.1800 
     54 N           3.6930  -12.3368  -42.0830 N.am      4 UNK        -0.5000 
     55 C           4.4406  -11.2268  -42.0619 C.2       3 UNK         0.5000 
     56 O           4.3523  -10.3654  -41.1853 O.2       3 UNK        -0.5000 
     57 CA          5.4654  -11.0335  -43.1994 C.3       3 UNK         0.1400 
     58 CB          6.8830  -11.3574  -42.7016 C.3       3 UNK        -0.1800 
     59 N           5.1954  -11.8297  -44.4000 N.am      3 UNK        -0.5000 
     60 C           4.1669  -11.6356  -45.2344 C.2       2 UNK         0.5000 
     61 O           3.3060  -10.7650  -45.0746 O.2       2 UNK        -0.5000 
     62 CA          4.0885  -12.5849  -46.4391 C.3       2 UNK         0.1400 
     63 CB          3.7922  -14.0283  -45.9961 C.3       2 UNK        -0.1800 
     64 N           3.0287  -12.1293  -47.3260 N.am      2 UNK        -0.5000 
     65 C           2.9132  -12.3930  -48.6312 C.2       1 UNK         0.5000 
     66 O           3.7413  -13.0415  -49.2726 O.2       1 UNK        -0.5000 
     67 C          -1.8408  -22.7371  -47.5833 C.2       11 UNK         0.5000 
     68 O          -2.0083  -23.6724  -48.3672 O.2       11 UNK        -0.5000 
     69 N          -2.8408  -22.1597  -46.9023 N.am      12 UNK        -0.5000 
     70 CA         -4.2409  -22.5862  -46.9478 C.3       12 UNK         0.1400 
     71 CB         -5.1103  -21.6122  -46.1398 C.3       12 UNK        -0.1800 
     72 C          -4.4459  -24.0357  -46.4731 C.2       12 UNK         0.5000 
     73 O          -5.2278  -24.7656  -47.0817 O.2       12 UNK        -0.5000 
     74 N          -3.7245  -24.4302  -45.4173 N.am      13 UNK        -0.5000 
     75 CA         -3.7466  -25.7808  -44.8657 C.3       13 UNK         0.1400 
     76 CB         -3.1694  -25.7570  -43.4410 C.3       13 UNK        -0.1800 
     77 C          -2.9978  -26.7990  -45.7456 C.2       13 UNK         0.5000 
     78 O          -3.5620  -27.8421  -46.0784 O.2       13 UNK        -0.5000 
     79 N          -1.7336  -26.5021  -46.0737 N.am      14 UNK        -0.5000 
     80 CA         -0.8031  -27.4628  -46.6683 C.3       14 UNK         0.1400 
     81 CB          0.6287  -27.1030  -46.2412 C.3       14 UNK        -0.1800 
     82 C          -0.8830  -27.5520  -48.2004 C.2       14 UNK         0.5000 
     83 O          -0.6642  -28.6355  -48.7442 O.2       14 UNK        -0.5000 
     84 N          -1.1535  -26.4254  -48.8707 N.am      15 UNK        -0.5000 
     85 CA         -1.0622  -26.2879  -50.3277 C.3       15 UNK         0.1400 
     86 CB          0.0794  -25.3074  -50.6524 C.3       15 UNK        -0.1800 
     87 C          -2.3841  -25.8266  -50.9637 C.2       15 UNK         0.5000 
     88 O          -2.3912  -25.4892  -52.1485 O.2       15 UNK        -0.5000 
     89 N          -3.4689  -25.7797  -50.1746 N.am      16 UNK        -0.5000 
     90 CA         -4.8029  -25.2902  -50.5474 C.3       16 UNK         0.1400 
     91 CB         -5.4834  -26.2662  -51.5292 C.3       16 UNK        -0.1800 
     92 C          -4.7859  -23.8310  -51.0561 C.2       16 UNK         0.5000 
     93 O          -5.5417  -23.4826  -51.9650 O.2       16 UNK        -0.5000 
     94 N          -3.8949  -23.0174  -50.4663 N.am      17 UNK        -0.5000 
     95 CA         -3.5980  -21.6264  -50.8138 C.3       17 UNK         0.1400 
     96 CB         -4.7659  -20.6959  -50.4256 C.3       17 UNK        -0.1800 
     97 C          -3.1005  -21.5075  -52.2688 C.2       17 UNK         0.5000 
     98 O          -3.7059  -20.8258  -53.0980 O.2       17 UNK        -0.5000 
     99 N          -2.0088  -22.2387  -52.5405 N.am      18 UNK        -0.5000 
    100 CA        -1.3231  -22.3813  -53.8278 C.3       18 UNK         0.1400 
    101 CB        -0.6718  -21.0473  -54.2487 C.3       18 UNK        -0.1800 
    102 C         -2.2271  -22.9902  -54.9193 C.2       18 UNK         0.5000 
    103 O         -2.2131  -22.5290  -56.0620 O.2       18 UNK        -0.5000 
    104 N         -3.0151  -24.0047  -54.5317 N.am      19 UNK        -0.5000 
    105 CA        -3.9925  -24.7885  -55.3017 C.3       19 UNK         0.1400 
    106 CB        -3.3004  -25.5701  -56.4336 C.3       19 UNK        -0.1800 
    107 C         -5.2057  -24.0013  -55.8412 C.2       19 UNK         0.5000 
    108 O         -6.3214  -24.5217  -55.8250 O.2       19 UNK        -0.5000 
    109 N         -4.9752  -22.7729  -56.3120 N.am      20 UNK        -0.5000 
    110 CA        -5.9550  -21.8752  -56.9205 C.3       20 UNK         0.1400 
    111 CB        -5.2069  -20.9478  -57.8936 C.3       20 UNK        -0.1800 
    112 C         -6.7600  -21.0502  -55.8968 C.2       20 UNK         0.5000 
    113 O         -7.5429  -20.1934  -56.3105 O.2       20 UNK        -0.5000 
    114 N         -6.5313  -21.2715  -54.5933 N.am      21 UNK        -0.5000 
    115 CA        -7.1056  -20.5353  -53.4602 C.3       21 UNK         0.1400 
    116 CB        -8.6145  -20.8251  -53.3245 C.3       21 UNK        -0.1800 
    117 C         -6.7739  -19.0276  -53.5153 C.2       21 UNK         0.5000 
    118 O         -7.6417  -18.1854  -53.2780 O.2       21 UNK        -0.5000 
    119 N         -5.5236  -18.7314  -53.8911 N.am      22 UNK        -0.5000 
    120 CA        -4.9793  -17.4027  -54.2169 C.3       22 UNK         0.1400 
    121 C         -5.6172  -16.7101  -55.4636 C.2       22 UNK         0.5000 
    122 N         -6.4342  -17.3788  -56.2698 N.am      22 UNK        -0.7600 
    123 O         -5.3361  -15.5456  -55.7343 O.2       22 UNK        -0.5000 
    124 C124       -4.8947  -16.4497  -52.9903 C.3       23 UNK        -0.0398 
    125 S125       -3.8811  -17.1167  -51.6266 S.3       23 UNK        -0.2404 
    126 C126       -2.2196  -16.6337  -52.1818 C.3       23 UNK        -0.0205 
    127 H127        1.2753   -8.1566  -46.8624 H         1 UNK         0.0600 
    128 H128       -0.2321   -8.9777  -47.2764 H         1 UNK         0.0600 
    129 H129        0.3691   -7.6701  -48.2997 H         1 UNK         0.0600 
    130 H130        0.1445  -11.0090  -48.1284 H         1 UNK         0.3000 
    131 H131        1.9788  -11.4628  -50.3009 H         1 UNK         0.0600 
    132 H132       -0.1674  -12.6209  -50.2547 H         1 UNK         0.0800 
    133 H133        1.1299  -13.7700  -50.2600 H         1 UNK         0.0800 
    134 H134        1.7884  -15.2848  -48.2878 H         1 UNK         0.0800 
    135 H135        0.5726  -15.8870  -47.1998 H         1 UNK         0.0800 
    136 H136       -1.2954  -15.1465  -50.1339 H         1 UNK         0.1150 
    137 H137       -0.8010  -18.9561  -51.9974 H         1 UNK         0.1150 
    138 H138        1.6379  -17.9034  -48.6335 H         1 UNK         0.1150 
    139 H139        1.5209  -20.0730  -51.4554 H         1 UNK         0.0800 
    140 H140        2.1182  -19.9179  -49.8242 H         1 UNK         0.0800 
    141 H141       -0.8892  -20.1889  -48.0359 H         1 UNK         0.0800 
    142 H142        0.8096  -20.4808  -47.7761 H         1 UNK         0.0800 
    143 H143        0.2775  -22.9956  -47.6465 H         1 UNK         0.0600 
    144 H144        0.0548  -21.0674  -45.5967 H         1 UNK         0.3000 
    145 H145       -0.3412  -23.4017  -42.8822 H         1 UNK         0.0600 
    146 H146        1.6228  -22.1100  -42.1212 H         1 UNK         0.0600 
    147 H147        2.0908  -23.1926  -43.4230 H         1 UNK         0.0600 
    148 H148        1.8809  -21.4759  -43.7450 H         1 UNK         0.0600 
    149 H149       -0.2842  -20.5709  -42.8682 H         1 UNK         0.3000 
    150 H150       -3.8176  -20.0372  -43.3415 H         1 UNK         0.0600 
    151 H151       -3.4337  -20.4542  -40.9229 H         1 UNK         0.0600 
    152 H152       -3.3784  -18.7311  -41.2674 H         1 UNK         0.0600 
    153 H153       -1.8845  -19.6262  -40.9994 H         1 UNK         0.0600 
    154 H154       -1.7187  -18.1610  -43.0632 H         1 UNK         0.3000 
    155 H155       -0.8469  -17.8565  -46.5282 H         1 UNK         0.0600 
    156 H156       -2.7624  -16.3694  -46.1842 H         1 UNK         0.0600 
    157 H157       -1.3006  -15.4709  -45.8140 H         1 UNK         0.0600 
    158 H158       -2.3181  -16.0721  -44.5118 H         1 UNK         0.0600 
    159 H159        0.1471  -16.6999  -44.0796 H         1 UNK         0.3000 
    160 H160        2.7458  -19.0840  -43.5299 H         1 UNK         0.0600 
    161 H161        2.8434  -16.1900  -44.5054 H         1 UNK         0.0600 
    162 H162        3.6468  -17.5454  -45.2892 H         1 UNK         0.0600 
    163 H163        4.1429  -17.0446  -43.6776 H         1 UNK         0.0600 
    164 H164        1.9565  -16.6044  -42.2752 H         1 UNK         0.3000 
    165 H165       -0.3288  -18.0359  -39.9502 H         1 UNK         0.0600 
    166 H166        1.2378  -17.1083  -38.2677 H         1 UNK         0.0600 
    167 H167        1.8889  -18.5977  -38.9324 H         1 UNK         0.0600 
    168 H168        2.5345  -17.0486  -39.4622 H         1 UNK         0.0600 
    169 H169        0.7564  -15.4308  -40.1021 H         1 UNK         0.3000 
    170 H170       -0.9026  -14.0886  -42.8137 H         1 UNK         0.0600 
    171 H171       -2.9685  -14.1917  -41.4138 H         1 UNK         0.0600 
    172 H172       -2.0405  -13.7495  -39.9857 H         1 UNK         0.0600 
    173 H173       -2.2195  -12.6067  -41.3183 H         1 UNK         0.0600 
    174 H174        0.1850  -12.8192  -40.5053 H         1 UNK         0.3000 
    175 H175        2.1752  -11.7438  -40.7693 H         1 UNK         0.0600 
    176 H176        3.7489  -14.3365  -40.2302 H         1 UNK         0.0600 
    177 H177        4.0154  -12.7956  -39.4172 H         1 UNK         0.0600 
    178 H178        2.5074  -13.6617  -39.1799 H         1 UNK         0.0600 
    179 H179        3.7764  -12.9846  -42.8553 H         1 UNK         0.3000 
    180 H180        5.4375   -9.9791  -43.4823 H         1 UNK         0.0600 
    181 H181        6.9800  -12.4065  -42.4195 H         1 UNK         0.0600 
    182 H182        7.1375  -10.7578  -41.8265 H         1 UNK         0.0600 
    183 H183        7.6294  -11.1435  -43.4669 H         1 UNK         0.0600 
    184 H184        5.8545  -12.5681  -44.6007 H         1 UNK         0.3000 
    185 H185        5.0452  -12.5459  -46.9639 H         1 UNK         0.0600 
    186 H186        4.5471  -14.3996  -45.3025 H         1 UNK         0.0600 
    187 H187        2.8231  -14.0927  -45.4997 H         1 UNK         0.0600 
    188 H188        3.7775  -14.7098  -46.8465 H         1 UNK         0.0600 
    189 H189        2.3444  -11.5310  -46.8806 H         1 UNK         0.3000 
    190 H190       -2.6348  -21.3522  -46.3180 H         1 UNK         0.3000 
    191 H191       -4.5748  -22.5330  -47.9824 H         1 UNK         0.0600 
    192 H192       -5.0261  -20.5963  -46.5262 H         1 UNK         0.0600 
    193 H193       -6.1627  -21.8936  -46.1920 H         1 UNK         0.0600 
    194 H194       -4.8279  -21.5944  -45.0877 H         1 UNK         0.0600 
    195 H195       -3.1415  -23.7491  -44.9423 H         1 UNK         0.3000 
    196 H196       -4.7872  -26.1047  -44.7955 H         1 UNK         0.0600 
    197 H197       -3.1767  -26.7539  -42.9987 H         1 UNK         0.0600 
    198 H198       -3.7564  -25.1079  -42.7910 H         1 UNK         0.0600 
    199 H199       -2.1401  -25.3972  -43.4259 H         1 UNK         0.0600 
    200 H200       -1.3331  -25.6168  -45.7667 H         1 UNK         0.3000 
    201 H201       -1.0226  -28.4560  -46.2699 H         1 UNK         0.0600 
    202 H202        0.7214  -27.0725  -45.1554 H         1 UNK         0.0600 
    203 H203        0.9326  -26.1304  -46.6306 H         1 UNK         0.0600 
    204 H204        1.3435  -27.8404  -46.6085 H         1 UNK         0.0600 
    205 H205       -1.3535  -25.5708  -48.3602 H         1 UNK         0.3000 
    206 H206       -0.8235  -27.2451  -50.7947 H         1 UNK         0.0600 
    207 H207        1.0247  -25.6531  -50.2340 H         1 UNK         0.0600 
    208 H208        0.2224  -25.2048  -51.7288 H         1 UNK         0.0600 
    209 H209       -0.1188  -24.3141  -50.2503 H         1 UNK         0.0600 
    210 H210       -3.3550  -26.0558  -49.2095 H         1 UNK         0.3000 
    211 H211       -5.3990  -25.2825  -49.6354 H         1 UNK         0.0600 
    212 H212       -4.9547  -26.3208  -52.4798 H         1 UNK         0.0600 
    213 H213       -6.5086  -25.9605  -51.7412 H         1 UNK         0.0600 
    214 H214       -5.5265  -27.2729  -51.1138 H         1 UNK         0.0600 
    215 H215       -3.2931  -23.4214  -49.7531 H         1 UNK         0.3000 
    216 H216       -2.7525  -21.3224  -50.1974 H         1 UNK         0.0600 
    217 H217       -4.7369  -19.7549  -50.9712 H         1 UNK         0.0600 
    218 H218       -4.7164  -20.4474  -49.3656 H         1 UNK         0.0600 
    219 H219       -5.7391  -21.1504  -50.5965 H         1 UNK         0.0600 
    220 H220       -1.6215  -22.7905  -51.7886 H         1 UNK         0.3000 
    221 H221       -0.5200  -23.1020  -53.6674 H         1 UNK         0.0600 
    222 H222       -1.4156  -20.2737  -54.4420 H         1 UNK         0.0600 
    223 H223        0.0030  -20.6809  -53.4758 H         1 UNK         0.0600 
    224 H224       -0.0823  -21.1688  -55.1581 H         1 UNK         0.0600 
    225 H225       -2.9086  -24.3185  -53.5698 H         1 UNK         0.3000 
    226 H226       -4.3912  -25.5210  -54.5999 H         1 UNK         0.0600 
    227 H227       -2.4967  -26.1956  -56.0450 H         1 UNK         0.0600 
    228 H228       -4.0074  -26.2276  -56.9410 H         1 UNK         0.0600 
    229 H229       -2.8754  -24.9063  -57.1870 H         1 UNK         0.0600 
    230 H230       -4.0101  -22.4498  -56.2928 H         1 UNK         0.3000 
    231 H231       -6.6708  -22.4676  -57.4939 H         1 UNK         0.0600 
    232 H232       -4.4922  -20.3113  -57.3700 H         1 UNK         0.0600 
    233 H233       -5.8973  -20.2954  -58.4299 H         1 UNK         0.0600 
    234 H234       -4.6592  -21.5208  -58.6421 H         1 UNK         0.0600 
    235 H235       -5.8395  -21.9673  -54.3486 H         1 UNK         0.3000 
    236 H236       -6.6174  -20.9298  -52.5738 H         1 UNK         0.0600 
    237 H237       -8.8049  -21.8971  -53.2725 H         1 UNK         0.0600 
    238 H238       -9.0159  -20.3803  -52.4133 H         1 UNK         0.0600 
    239 H239       -9.1835  -20.4227  -54.1630 H         1 UNK         0.0600 
    240 H240       -4.8658  -19.5024  -53.9647 H         1 UNK         0.3000 
    241 H241       -3.9555  -17.6017  -54.5336 H         1 UNK         0.0600 
    242 H242       -6.8190  -16.9084  -57.0734 H         1 UNK         0.3800 
    243 H243       -6.7112  -18.3339  -56.0758 H         1 UNK         0.3800 
    244 H244       -4.4787  -15.4820  -53.2749 H         1 UNK         0.0800 
    245 H245       -5.8930  -16.2400  -52.6047 H         1 UNK         0.0800 
    246 H246       -2.0015  -17.1142  -53.1366 H         1 UNK         0.0800 
    247 H247       -2.1937  -15.5582  -52.3647 H         1 UNK         0.0800 
@<TRIPOS>BOND
     1    1    2 1    
     2    1  127 1    
     3    1  128 1    
     4    1  129 1    
     5    2    3 2    
     6    2    4 am   BACKBONE|DICT|INTERRES
     7    4    5 1    
     8    4  130 1    
     9    5    6 1    
    10    5   65 1    
    11    5  131 1    
    12    6    7 1    
    13    6  132 1    
    14    6  133 1    
    15    7    8 1    
    16    8    9 1    
    17    8  134 1    
    18    8  135 1    
    19    9   10 ar   
    20    9   14 ar   
    21   10   11 ar   
    22   10  136 1    
    23   11   12 ar   
    24   11  126 1    
    25   12   13 ar   
    26   12  137 1    
    27   13   14 ar   
    28   13   15 1    
    29   14  138 1    
    30   15   16 1    
    31   15  139 1    
    32   15  140 1    
    33   16   17 1    
    34   17   18 1    
    35   17  141 1    
    36   17  142 1    
    37   18   19 1    
    38   18   67 1    
    39   18  143 1    
    40   19   20 am   BACKBONE|DICT|INTERRES
    41   19  144 1    
    42   20   21 2    
    43   20   22 1    
    44   22   23 1    
    45   22   24 1    
    46   22  145 1    
    47   23  146 1    
    48   23  147 1    
    49   23  148 1    
    50   24   25 am   BACKBONE|DICT|INTERRES
    51   24  149 1    
    52   25   26 2    
    53   25   27 1    
    54   27   28 1    
    55   27   29 1    
    56   27  150 1    
    57   28  151 1    
    58   28  152 1    
    59   28  153 1    
    60   29   30 am   BACKBONE|DICT|INTERRES
    61   29  154 1    
    62   30   31 2    
    63   30   32 1    
    64   32   33 1    
    65   32   34 1    
    66   32  155 1    
    67   33  156 1    
    68   33  157 1    
    69   33  158 1    
    70   34   35 am   BACKBONE|DICT|INTERRES
    71   34  159 1    
    72   35   36 2    
    73   35   37 1    
    74   37   38 1    
    75   37   39 1    
    76   37  160 1    
    77   38  161 1    
    78   38  162 1    
    79   38  163 1    
    80   39   40 am   BACKBONE|DICT|INTERRES
    81   39  164 1    
    82   40   41 2    
    83   40   42 1    
    84   42   43 1    
    85   42   44 1    
    86   42  165 1    
    87   43  166 1    
    88   43  167 1    
    89   43  168 1    
    90   44   45 am   BACKBONE|DICT|INTERRES
    91   44  169 1    
    92   45   46 2    
    93   45   47 1    
    94   47   48 1    
    95   47   49 1    
    96   47  170 1    
    97   48  171 1    
    98   48  172 1    
    99   48  173 1    
   100   49   50 am   BACKBONE|DICT|INTERRES
   101   49  174 1    
   102   50   51 2    
   103   50   52 1    
   104   52   53 1    
   105   52   54 1    
   106   52  175 1    
   107   53  176 1    
   108   53  177 1    
   109   53  178 1    
   110   54   55 am   BACKBONE|DICT|INTERRES
   111   54  179 1    
   112   55   56 2    
   113   55   57 1    
   114   57   58 1    
   115   57   59 1    
   116   57  180 1    
   117   58  181 1    
   118   58  182 1    
   119   58  183 1    
   120   59   60 am   BACKBONE|DICT|INTERRES
   121   59  184 1    
   122   60   61 2    
   123   60   62 1    
   124   62   63 1    
   125   62   64 1    
   126   62  185 1    
   127   63  186 1    
   128   63  187 1    
   129   63  188 1    
   130   64   65 am   BACKBONE|DICT|INTERRES
   131   64  189 1    
   132   65   66 2    
   133   67   68 2    
   134   67   69 am   BACKBONE|DICT|INTERRES
   135   69   70 1    
   136   69  190 1    
   137   70   71 1    
   138   70   72 1    
   139   70  191 1    
   140   71  192 1    
   141   71  193 1    
   142   71  194 1    
   143   72   73 2    
   144   72   74 am   BACKBONE|DICT|INTERRES
   145   74   75 1    
   146   74  195 1    
   147   75   76 1    
   148   75   77 1    
   149   75  196 1    
   150   76  197 1    
   151   76  198 1    
   152   76  199 1    
   153   77   78 2    
   154   77   79 am   BACKBONE|DICT|INTERRES
   155   79   80 1    
   156   79  200 1    
   157   80   81 1    
   158   80   82 1    
   159   80  201 1    
   160   81  202 1    
   161   81  203 1    
   162   81  204 1    
   163   82   83 2    
   164   82   84 am   BACKBONE|DICT|INTERRES
   165   84   85 1    
   166   84  205 1    
   167   85   86 1    
   168   85   87 1    
   169   85  206 1    
   170   86  207 1    
   171   86  208 1    
   172   86  209 1    
   173   87   88 2    
   174   87   89 am   BACKBONE|DICT|INTERRES
   175   89   90 1    
   176   89  210 1    
   177   90   91 1    
   178   90   92 1    
   179   90  211 1    
   180   91  212 1    
   181   91  213 1    
   182   91  214 1    
   183   92   93 2    
   184   92   94 am   BACKBONE|DICT|INTERRES
   185   94   95 1    
   186   94  215 1    
   187   95   96 1    
   188   95   97 1    
   189   95  216 1    
   190   96  217 1    
   191   96  218 1    
   192   96  219 1    
   193   97   98 2    
   194   97   99 am   BACKBONE|DICT|INTERRES
   195   99  100 1    
   196   99  220 1    
   197  100  101 1    
   198  100  102 1    
   199  100  221 1    
   200  101  222 1    
   201  101  223 1    
   202  101  224 1    
   203  102  103 2    
   204  102  104 am   BACKBONE|DICT|INTERRES
   205  104  105 1    
   206  104  225 1    
   207  105  106 1    
   208  105  107 1    
   209  105  226 1    
   210  106  227 1    
   211  106  228 1    
   212  106  229 1    
   213  107  108 2    
   214  107  109 am   BACKBONE|DICT|INTERRES
   215  109  110 1    
   216  109  230 1    
   217  110  111 1    
   218  110  112 1    
   219  110  231 1    
   220  111  232 1    
   221  111  233 1    
   222  111  234 1    
   223  112  113 2    
   224  112  114 am   BACKBONE|DICT|INTERRES
   225  114  115 1    
   226  114  235 1    
   227  115  116 1    
   228  115  117 1    
   229  115  236 1    
   230  116  237 1    
   231  116  238 1    
   232  116  239 1    
   233  117  118 2    
   234  117  119 am   BACKBONE|DICT|INTERRES
   235  119  120 1    
   236  119  240 1    
   237  120  121 1    
   238  120  124 1    
   239  120  241 1    
   240  121  122 am   BACKBONE|DICT|INTERRES
   241  121  123 2    
   242  122  242 1    
   243  122  243 1    
   244  124  125 1    
   245  124  244 1    
   246  124  245 1    
   247  125  126 1    
   248  126  246 1    
   249  126  247 1    
@<TRIPOS>SUBSTRUCTURE
     1 UNK         1 GROUP             0       ****    0 ROOT    
