@<TRIPOS>MOLECULE
3R540
247   249    1
SMALL
USER_CHARGES


@<TRIPOS>ATOM
      1 CA         -0.5944  -17.0793  -49.0576 C.3       0 UNK        -0.1800 
      2 C          -0.4438  -15.6465  -49.5722 C.2       0 UNK         0.5000 
      3 O          -0.9021  -15.3692  -50.6775 O.2       0 UNK        -0.5000 
      4 N           0.1652  -14.6944  -48.8443 N.am      1 UNK        -0.5000 
      5 CA          0.7723  -14.7662  -47.5042 C.3       1 UNK         0.1400 
      6 C6          1.9874  -15.7347  -47.4102 C.3       23 UNK        -0.0398 
      7 S7          3.5534  -15.0296  -48.0289 S.3       23 UNK        -0.2404 
      8 C8          3.4565  -15.2202  -49.8427 C.3       23 UNK        -0.0205 
      9 C9          3.1368  -16.6276  -50.3395 C.ar      23 UNK        -0.0193 
     10 C10         2.2731  -16.7761  -51.4278 C.ar      23 UNK        -0.1150 
     11 C11         1.9265  -18.0425  -51.9017 C.ar      23 UNK        -0.0193 
     12 C12         2.4691  -19.1743  -51.2901 C.ar      23 UNK        -0.1150 
     13 C13         3.3381  -19.0455  -50.2005 C.ar      23 UNK        -0.0193 
     14 C14         3.6837  -17.7699  -49.7420 C.ar      23 UNK        -0.1150 
     15 C15         3.8632  -20.2910  -49.4943 C.3       23 UNK        -0.0205 
     16 S16         3.1413  -20.5185  -47.8298 S.3       23 UNK        -0.2404 
     17 C17         1.3610  -20.2688  -48.1392 C.3       23 UNK        -0.0398 
     18 CA          0.4300  -21.3147  -47.4881 C.3       11 UNK         0.1400 
     19 N           0.5257  -21.3678  -46.0255 N.am      11 UNK        -0.5000 
     20 C          -0.1349  -22.2528  -45.2601 C.2       10 UNK         0.5000 
     21 O          -0.8176  -23.1664  -45.7234 O.2       10 UNK        -0.5000 
     22 CA         -0.0952  -22.0665  -43.7295 C.3       10 UNK         0.1400 
     23 CB          0.8962  -23.0462  -43.0866 C.3       10 UNK        -0.1800 
     24 N           0.2126  -20.7010  -43.3024 N.am      10 UNK        -0.5000 
     25 C          -0.5284  -19.6204  -43.5878 C.2       9 UNK         0.5000 
     26 O          -1.5825  -19.6637  -44.2229 O.2       9 UNK        -0.5000 
     27 CA          0.0384  -18.2606  -43.1443 C.3       9 UNK         0.1400 
     28 CB         -0.4185  -17.9266  -41.7191 C.3       9 UNK        -0.1800 
     29 N           1.5019  -18.2078  -43.2369 N.am      9 UNK        -0.5000 
     30 C           2.1696  -18.2668  -44.3990 C.2       8 UNK         0.5000 
     31 O           1.6121  -18.3186  -45.4935 O.2       8 UNK        -0.5000 
     32 CA          3.7042  -18.3573  -44.3287 C.3       8 UNK         0.1400 
     33 CB          4.3520  -16.9792  -44.1378 C.3       8 UNK        -0.1800 
     34 N           4.1400  -19.2568  -43.2618 N.am      8 UNK        -0.5000 
     35 C           4.0731  -20.5930  -43.3470 C.2       7 UNK         0.5000 
     36 O           3.6992  -21.1924  -44.3538 O.2       7 UNK        -0.5000 
     37 CA          4.4692  -21.4057  -42.0994 C.3       7 UNK         0.1400 
     38 CB          5.9372  -21.8485  -42.1919 C.3       7 UNK        -0.1800 
     39 N           4.2634  -20.7015  -40.8327 N.am      7 UNK        -0.5000 
     40 C           3.0829  -20.2826  -40.3578 C.2       6 UNK         0.5000 
     41 O           2.0198  -20.4205  -40.9658 O.2       6 UNK        -0.5000 
     42 CA          3.0823  -19.5822  -38.9804 C.3       6 UNK         0.1400 
     43 CB          4.4851  -19.4291  -38.3490 C.3       6 UNK        -0.1800 
     44 N           2.4071  -18.2801  -39.0023 N.am      6 UNK        -0.5000 
     45 C           2.6751  -17.2461  -39.8110 C.2       5 UNK         0.5000 
     46 O           3.4948  -17.2807  -40.7337 O.2       5 UNK        -0.5000 
     47 CA          1.8991  -15.9518  -39.5241 C.3       5 UNK         0.1400 
     48 CB          2.4274  -15.2611  -38.2551 C.3       5 UNK        -0.1800 
     49 N           2.0420  -15.0394  -40.6548 N.am      5 UNK        -0.5000 
     50 C           1.0742  -14.2697  -41.1630 C.2       4 UNK         0.5000 
     51 O          -0.0676  -14.2299  -40.6983 O.2       4 UNK        -0.5000 
     52 CA          1.4555  -13.3992  -42.3820 C.3       4 UNK         0.1400 
     53 CB          2.4482  -14.1010  -43.3279 C.3       4 UNK        -0.1800 
     54 N           0.2781  -12.9960  -43.1524 N.am      4 UNK        -0.5000 
     55 C          -0.5036  -11.9441  -42.8660 C.2       3 UNK         0.5000 
     56 O          -0.2819  -11.1713  -41.9318 O.2       3 UNK        -0.5000 
     57 CA         -1.7196  -11.6751  -43.7795 C.3       3 UNK         0.1400 
     58 CB         -1.5491  -10.3419  -44.5270 C.3       3 UNK        -0.1800 
     59 N          -1.9529  -12.7283  -44.7683 N.am      3 UNK        -0.5000 
     60 C          -2.6148  -13.8707  -44.5426 C.2       2 UNK         0.5000 
     61 O          -3.1564  -14.1487  -43.4728 O.2       2 UNK        -0.5000 
     62 CA         -2.6661  -14.8812  -45.7083 C.3       2 UNK         0.1400 
     63 CB         -3.9951  -14.7573  -46.4692 C.3       2 UNK        -0.1800 
     64 N          -1.5580  -14.7470  -46.6626 N.am      2 UNK        -0.5000 
     65 C          -0.2661  -14.9604  -46.3698 C.2       1 UNK         0.5000 
     66 O           0.1109  -15.2493  -45.2358 O.2       1 UNK        -0.5000 
     67 C          -1.0115  -21.0343  -47.9568 C.2       11 UNK         0.5000 
     68 O          -1.4542  -21.6483  -48.9243 O.2       11 UNK        -0.5000 
     69 N          -1.7241  -20.1329  -47.2630 N.am      12 UNK        -0.5000 
     70 CA         -3.1079  -19.7758  -47.5810 C.3       12 UNK         0.1400 
     71 CB         -3.5033  -18.4990  -46.8260 C.3       12 UNK        -0.1800 
     72 C          -4.0879  -20.9212  -47.2775 C.2       12 UNK         0.5000 
     73 O          -5.0547  -21.1025  -48.0181 O.2       12 UNK        -0.5000 
     74 N          -3.7979  -21.6952  -46.2223 N.am      13 UNK        -0.5000 
     75 CA         -4.5252  -22.9128  -45.8695 C.3       13 UNK         0.1400 
     76 CB         -4.1357  -23.3613  -44.4526 C.3       13 UNK        -0.1800 
     77 C          -4.2865  -24.0329  -46.8976 C.2       13 UNK         0.5000 
     78 O          -5.2503  -24.6411  -47.3628 O.2       13 UNK        -0.5000 
     79 N          -3.0167  -24.2485  -47.2733 N.am      14 UNK        -0.5000 
     80 CA         -2.5947  -25.2174  -48.2893 C.3       14 UNK         0.1400 
     81 CB         -1.0607  -25.2921  -48.3179 C.3       14 UNK        -0.1800 
     82 C          -3.1506  -24.9036  -49.6917 C.2       14 UNK         0.5000 
     83 O          -3.5566  -25.8207  -50.4057 O.2       14 UNK        -0.5000 
     84 N          -3.1990  -23.6110  -50.0390 N.am      15 UNK        -0.5000 
     85 CA         -3.7850  -23.0878  -51.2731 C.3       15 UNK         0.1400 
     86 CB         -3.1897  -21.6992  -51.5568 C.3       15 UNK        -0.1800 
     87 C          -5.3249  -23.0151  -51.2479 C.2       15 UNK         0.5000 
     88 O          -5.9107  -22.5964  -52.2470 O.2       15 UNK        -0.5000 
     89 N          -5.9537  -23.3850  -50.1214 N.am      16 UNK        -0.5000 
     90 CA         -7.3988  -23.4120  -49.8776 C.3       16 UNK         0.1400 
     91 CB         -8.0565  -24.5395  -50.6998 C.3       16 UNK        -0.1800 
     92 C          -8.0592  -22.0352  -50.0928 C.2       16 UNK         0.5000 
     93 O          -9.0191  -21.9182  -50.8554 O.2       16 UNK        -0.5000 
     94 N          -7.4909  -21.0097  -49.4414 N.am      17 UNK        -0.5000 
     95 CA         -7.8544  -19.5911  -49.5378 C.3       17 UNK         0.1400 
     96 CB         -9.2800  -19.3391  -49.0031 C.3       17 UNK        -0.1800 
     97 C          -7.6187  -19.0220  -50.9530 C.2       17 UNK         0.5000 
     98 O          -8.4284  -18.2413  -51.4558 O.2       17 UNK        -0.5000 
     99 N          -6.4982  -19.4405  -51.5601 N.am      18 UNK        -0.5000 
    100 CA        -6.0155  -19.0813  -52.8980 C.3       18 UNK         0.1400 
    101 CB        -5.7245  -17.5694  -53.0018 C.3       18 UNK        -0.1800 
    102 C         -6.8955  -19.6110  -54.0507 C.2       18 UNK         0.5000 
    103 O         -6.8502  -19.0641  -55.1536 O.2       18 UNK        -0.5000 
    104 N         -7.6442  -20.6946  -53.8025 N.am      19 UNK        -0.5000 
    105 CA        -8.3487  -21.4591  -54.8342 C.3       19 UNK         0.1400 
    106 CB        -9.4056  -22.3555  -54.1739 C.3       19 UNK        -0.1800 
    107 C         -7.3725  -22.3006  -55.6797 C.2       19 UNK         0.5000 
    108 O         -7.5817  -22.4555  -56.8832 O.2       19 UNK        -0.5000 
    109 N         -6.3088  -22.7933  -55.0352 N.am      20 UNK        -0.5000 
    110 CA        -5.1811  -23.5000  -55.6308 C.3       20 UNK         0.1400 
    111 CB        -5.1311  -24.9279  -55.0567 C.3       20 UNK        -0.1800 
    112 C         -3.9076  -22.6885  -55.3367 C.2       20 UNK         0.5000 
    113 O         -3.0009  -23.1721  -54.6575 O.2       20 UNK        -0.5000 
    114 N         -3.8985  -21.4343  -55.8088 N.am      21 UNK        -0.5000 
    115 CA        -2.8292  -20.4529  -55.6147 C.3       21 UNK         0.1400 
    116 CB        -3.2819  -19.1108  -56.2118 C.3       21 UNK        -0.1800 
    117 C         -1.4711  -20.8742  -56.2132 C.2       21 UNK         0.5000 
    118 O         -1.4142  -21.7067  -57.1215 O.2       21 UNK        -0.5000 
    119 N         -0.4051  -20.2486  -55.7019 N.am      22 UNK        -0.5000 
    120 CA         0.9964  -20.4547  -56.1060 C.3       22 UNK         0.1400 
    121 C          1.3725  -19.9517  -57.5340 C.2       22 UNK         0.5000 
    122 N          0.5313  -19.1861  -58.2185 N.am      22 UNK        -0.7600 
    123 O          2.4467  -20.2743  -58.0345 O.2       22 UNK        -0.5000 
    124 C124        1.9753  -19.9129  -55.0277 C.3       23 UNK        -0.0398 
    125 S125        1.7451  -18.1330  -54.6659 S.3       23 UNK        -0.2404 
    126 C126        0.9273  -18.1739  -53.0403 C.3       23 UNK        -0.0205 
    127 H127        0.1557  -17.7182  -49.5217 H         1 UNK         0.0600 
    128 H128       -1.5746  -17.4691  -49.3316 H         1 UNK         0.0600 
    129 H129       -0.5003  -17.1737  -47.9784 H         1 UNK         0.0600 
    130 H130        0.2204  -13.7753  -49.2604 H         1 UNK         0.3000 
    131 H131        1.1553  -13.7618  -47.3174 H         1 UNK         0.0600 
    132 H132        1.7955  -16.6958  -47.8828 H         1 UNK         0.0800 
    133 H133        2.2028  -15.9704  -46.3698 H         1 UNK         0.0800 
    134 H134        4.4107  -14.9141  -50.2727 H         1 UNK         0.0800 
    135 H135        2.7154  -14.5109  -50.2137 H         1 UNK         0.0800 
    136 H136        1.8457  -15.9009  -51.8975 H         1 UNK         0.1150 
    137 H137        2.1906  -20.1571  -51.6431 H         1 UNK         0.1150 
    138 H138        4.3511  -17.6714  -48.8976 H         1 UNK         0.1150 
    139 H139        3.6614  -21.1832  -50.0890 H         1 UNK         0.0800 
    140 H140        4.9481  -20.2239  -49.4038 H         1 UNK         0.0800 
    141 H141        1.1921  -20.2866  -49.2153 H         1 UNK         0.0800 
    142 H142        1.1041  -19.2606  -47.8141 H         1 UNK         0.0800 
    143 H143        0.7121  -22.2990  -47.8672 H         1 UNK         0.0600 
    144 H144        1.0788  -20.6445  -45.5843 H         1 UNK         0.3000 
    145 H145       -1.0917  -22.3025  -43.3512 H         1 UNK         0.0600 
    146 H146        0.9274  -22.9281  -42.0033 H         1 UNK         0.0600 
    147 H147        0.6099  -24.0781  -43.2937 H         1 UNK         0.0600 
    148 H148        1.9054  -22.9073  -43.4714 H         1 UNK         0.0600 
    149 H149        1.0319  -20.5787  -42.7160 H         1 UNK         0.3000 
    150 H150       -0.3714  -17.5025  -43.8149 H         1 UNK         0.0600 
    151 H151       -1.5027  -18.0048  -41.6285 H         1 UNK         0.0600 
    152 H152       -0.1519  -16.9057  -41.4577 H         1 UNK         0.0600 
    153 H153        0.0216  -18.5972  -40.9810 H         1 UNK         0.0600 
    154 H154        2.0254  -18.2139  -42.3723 H         1 UNK         0.3000 
    155 H155        4.0531  -18.7540  -45.2849 H         1 UNK         0.0600 
    156 H156        4.0870  -16.5382  -43.1784 H         1 UNK         0.0600 
    157 H157        4.0426  -16.2859  -44.9198 H         1 UNK         0.0600 
    158 H158        5.4388  -17.0491  -44.1815 H         1 UNK         0.0600 
    159 H159        4.4194  -18.8320  -42.3873 H         1 UNK         0.3000 
    160 H160        3.8452  -22.3013  -42.0818 H         1 UNK         0.0600 
    161 H161        6.6161  -20.9948  -42.1815 H         1 UNK         0.0600 
    162 H162        6.1209  -22.4027  -43.1135 H         1 UNK         0.0600 
    163 H163        6.2060  -22.5030  -41.3625 H         1 UNK         0.0600 
    164 H164        5.0882  -20.5309  -40.2760 H         1 UNK         0.3000 
    165 H165        2.4935  -20.2228  -38.3224 H         1 UNK         0.0600 
    166 H166        4.4175  -18.9685  -37.3632 H         1 UNK         0.0600 
    167 H167        4.9690  -20.3969  -38.2113 H         1 UNK         0.0600 
    168 H168        5.1422  -18.8052  -38.9563 H         1 UNK         0.0600 
    169 H169        1.6873  -18.1629  -38.3032 H         1 UNK         0.3000 
    170 H170        0.8500  -16.2164  -39.3781 H         1 UNK         0.0600 
    171 H171        2.3244  -15.9050  -37.3809 H         1 UNK         0.0600 
    172 H172        3.4824  -15.0008  -38.3497 H         1 UNK         0.0600 
    173 H173        1.8746  -14.3447  -38.0477 H         1 UNK         0.0600 
    174 H174        2.9373  -15.0929  -41.1225 H         1 UNK         0.3000 
    175 H175        1.9456  -12.5031  -41.9961 H         1 UNK         0.0600 
    176 H176        2.1087  -15.1029  -43.5913 H         1 UNK         0.0600 
    177 H177        2.5811  -13.5410  -44.2539 H         1 UNK         0.0600 
    178 H178        3.4333  -14.1922  -42.8701 H         1 UNK         0.0600 
    179 H179        0.0041  -13.6243  -43.8982 H         1 UNK         0.3000 
    180 H180       -2.5970  -11.5922  -43.1347 H         1 UNK         0.0600 
    181 H181       -0.6773  -10.3566  -45.1823 H         1 UNK         0.0600 
    182 H182       -1.4208   -9.5135  -43.8290 H         1 UNK         0.0600 
    183 H183       -2.4245  -10.1163  -45.1363 H         1 UNK         0.0600 
    184 H184       -1.5477  -12.5857  -45.6814 H         1 UNK         0.3000 
    185 H185       -2.6113  -15.8810  -45.2722 H         1 UNK         0.0600 
    186 H186       -4.0713  -15.5016  -47.2617 H         1 UNK         0.0600 
    187 H187       -4.8432  -14.9090  -45.8003 H         1 UNK         0.0600 
    188 H188       -4.1073  -13.7721  -46.9235 H         1 UNK         0.0600 
    189 H189       -1.7996  -14.4766  -47.6052 H         1 UNK         0.3000 
    190 H190       -1.3280  -19.7215  -46.4267 H         1 UNK         0.3000 
    191 H191       -3.1659  -19.5648  -48.6509 H         1 UNK         0.0600 
    192 H192       -3.5091  -18.6499  -45.7464 H         1 UNK         0.0600 
    193 H193       -4.5026  -18.1708  -47.1148 H         1 UNK         0.0600 
    194 H194       -2.8160  -17.6833  -47.0464 H         1 UNK         0.0600 
    195 H195       -2.9809  -21.4702  -45.6728 H         1 UNK         0.3000 
    196 H196       -5.5926  -22.6813  -45.8678 H         1 UNK         0.0600 
    197 H197       -4.7107  -24.2381  -44.1523 H         1 UNK         0.0600 
    198 H198       -4.3344  -22.5768  -43.7222 H         1 UNK         0.0600 
    199 H199       -3.0806  -23.6246  -44.3824 H         1 UNK         0.0600 
    200 H200       -2.2745  -23.7292  -46.8113 H         1 UNK         0.3000 
    201 H201       -2.9776  -26.1960  -47.9927 H         1 UNK         0.0600 
    202 H202       -0.6619  -25.5826  -47.3458 H         1 UNK         0.0600 
    203 H203       -0.6167  -24.3336  -48.5880 H         1 UNK         0.0600 
    204 H204       -0.7184  -26.0299  -49.0445 H         1 UNK         0.0600 
    205 H205       -2.7643  -22.9252  -49.4270 H         1 UNK         0.3000 
    206 H206       -3.5084  -23.7517  -52.0937 H         1 UNK         0.0600 
    207 H207       -2.1024  -21.7427  -51.6213 H         1 UNK         0.0600 
    208 H208       -3.5487  -21.3082  -52.5075 H         1 UNK         0.0600 
    209 H209       -3.4538  -20.9806  -50.7803 H         1 UNK         0.0600 
    210 H210       -5.3845  -23.6895  -49.3417 H         1 UNK         0.3000 
    211 H211       -7.5316  -23.6532  -48.8220 H         1 UNK         0.0600 
    212 H212       -7.9461  -24.3788  -51.7721 H         1 UNK         0.0600 
    213 H213       -9.1234  -24.6107  -50.4857 H         1 UNK         0.0600 
    214 H214       -7.6128  -25.5062  -50.4617 H         1 UNK         0.0600 
    215 H215       -6.6663  -21.2008  -48.8731 H         1 UNK         0.3000 
    216 H216       -7.1634  -19.0596  -48.8817 H         1 UNK         0.0600 
    217 H217       -9.4883  -18.2705  -48.9395 H         1 UNK         0.0600 
    218 H218       -9.4043  -19.7530  -48.0025 H         1 UNK         0.0600 
    219 H219      -10.0416  -19.7804  -49.6464 H         1 UNK         0.0600 
    220 H220       -5.9356  -20.1167  -51.0644 H         1 UNK         0.3000 
    221 H221       -5.0607  -19.5939  -53.0128 H         1 UNK         0.0600 
    222 H222       -6.6394  -16.9771  -52.9807 H         1 UNK         0.0600 
    223 H223       -5.0869  -17.2333  -52.1841 H         1 UNK         0.0600 
    224 H224       -5.2066  -17.3319  -53.9315 H         1 UNK         0.0600 
    225 H225       -7.6096  -21.1055  -52.8780 H         1 UNK         0.3000 
    226 H226       -8.8610  -20.7619  -55.5005 H         1 UNK         0.0600 
    227 H227      -10.1194  -21.7653  -53.5990 H         1 UNK         0.0600 
    228 H228       -9.9696  -22.9122  -54.9232 H         1 UNK         0.0600 
    229 H229       -8.9514  -23.0802  -53.4981 H         1 UNK         0.0600 
    230 H230       -6.2221  -22.6108  -54.0362 H         1 UNK         0.3000 
    231 H231       -5.2864  -23.5655  -56.7156 H         1 UNK         0.0600 
    232 H232       -6.0405  -25.4785  -55.2972 H         1 UNK         0.0600 
    233 H233       -5.0222  -24.9230  -53.9713 H         1 UNK         0.0600 
    234 H234       -4.2919  -25.4874  -55.4715 H         1 UNK         0.0600 
    235 H235       -4.6881  -21.1282  -56.3583 H         1 UNK         0.3000 
    236 H236       -2.6954  -20.3246  -54.5391 H         1 UNK         0.0600 
    237 H237       -2.5360  -18.3318  -56.0499 H         1 UNK         0.0600 
    238 H238       -3.4498  -19.1867  -57.2869 H         1 UNK         0.0600 
    239 H239       -4.2076  -18.7656  -55.7532 H         1 UNK         0.0600 
    240 H240       -0.5459  -19.5401  -54.9979 H         1 UNK         0.3000 
    241 H241        1.1453  -21.5355  -56.1456 H         1 UNK         0.0600 
    242 H242       -0.3532  -18.9145  -57.8221 H         1 UNK         0.3800 
    243 H243        0.7850  -18.8728  -59.1424 H         1 UNK         0.3800 
    244 H244        1.8601  -20.4886  -54.1091 H         1 UNK         0.0800 
    245 H245        3.0112  -20.0704  -55.3332 H         1 UNK         0.0800 
    246 H246        0.3372  -19.0842  -52.9261 H         1 UNK         0.0800 
    247 H247        0.2133  -17.3499  -52.9907 H         1 UNK         0.0800 
@<TRIPOS>BOND
     1    1    2 1    
     2    1  127 1    
     3    1  128 1    
     4    1  129 1    
     5    2    3 2    
     6    2    4 am   BACKBONE|DICT|INTERRES
     7    4    5 1    
     8    4  130 1    
     9    5    6 1    
    10    5   65 1    
    11    5  131 1    
    12    6    7 1    
    13    6  132 1    
    14    6  133 1    
    15    7    8 1    
    16    8    9 1    
    17    8  134 1    
    18    8  135 1    
    19    9   10 ar   
    20    9   14 ar   
    21   10   11 ar   
    22   10  136 1    
    23   11   12 ar   
    24   11  126 1    
    25   12   13 ar   
    26   12  137 1    
    27   13   14 ar   
    28   13   15 1    
    29   14  138 1    
    30   15   16 1    
    31   15  139 1    
    32   15  140 1    
    33   16   17 1    
    34   17   18 1    
    35   17  141 1    
    36   17  142 1    
    37   18   19 1    
    38   18   67 1    
    39   18  143 1    
    40   19   20 am   BACKBONE|DICT|INTERRES
    41   19  144 1    
    42   20   21 2    
    43   20   22 1    
    44   22   23 1    
    45   22   24 1    
    46   22  145 1    
    47   23  146 1    
    48   23  147 1    
    49   23  148 1    
    50   24   25 am   BACKBONE|DICT|INTERRES
    51   24  149 1    
    52   25   26 2    
    53   25   27 1    
    54   27   28 1    
    55   27   29 1    
    56   27  150 1    
    57   28  151 1    
    58   28  152 1    
    59   28  153 1    
    60   29   30 am   BACKBONE|DICT|INTERRES
    61   29  154 1    
    62   30   31 2    
    63   30   32 1    
    64   32   33 1    
    65   32   34 1    
    66   32  155 1    
    67   33  156 1    
    68   33  157 1    
    69   33  158 1    
    70   34   35 am   BACKBONE|DICT|INTERRES
    71   34  159 1    
    72   35   36 2    
    73   35   37 1    
    74   37   38 1    
    75   37   39 1    
    76   37  160 1    
    77   38  161 1    
    78   38  162 1    
    79   38  163 1    
    80   39   40 am   BACKBONE|DICT|INTERRES
    81   39  164 1    
    82   40   41 2    
    83   40   42 1    
    84   42   43 1    
    85   42   44 1    
    86   42  165 1    
    87   43  166 1    
    88   43  167 1    
    89   43  168 1    
    90   44   45 am   BACKBONE|DICT|INTERRES
    91   44  169 1    
    92   45   46 2    
    93   45   47 1    
    94   47   48 1    
    95   47   49 1    
    96   47  170 1    
    97   48  171 1    
    98   48  172 1    
    99   48  173 1    
   100   49   50 am   BACKBONE|DICT|INTERRES
   101   49  174 1    
   102   50   51 2    
   103   50   52 1    
   104   52   53 1    
   105   52   54 1    
   106   52  175 1    
   107   53  176 1    
   108   53  177 1    
   109   53  178 1    
   110   54   55 am   BACKBONE|DICT|INTERRES
   111   54  179 1    
   112   55   56 2    
   113   55   57 1    
   114   57   58 1    
   115   57   59 1    
   116   57  180 1    
   117   58  181 1    
   118   58  182 1    
   119   58  183 1    
   120   59   60 am   BACKBONE|DICT|INTERRES
   121   59  184 1    
   122   60   61 2    
   123   60   62 1    
   124   62   63 1    
   125   62   64 1    
   126   62  185 1    
   127   63  186 1    
   128   63  187 1    
   129   63  188 1    
   130   64   65 am   BACKBONE|DICT|INTERRES
   131   64  189 1    
   132   65   66 2    
   133   67   68 2    
   134   67   69 am   BACKBONE|DICT|INTERRES
   135   69   70 1    
   136   69  190 1    
   137   70   71 1    
   138   70   72 1    
   139   70  191 1    
   140   71  192 1    
   141   71  193 1    
   142   71  194 1    
   143   72   73 2    
   144   72   74 am   BACKBONE|DICT|INTERRES
   145   74   75 1    
   146   74  195 1    
   147   75   76 1    
   148   75   77 1    
   149   75  196 1    
   150   76  197 1    
   151   76  198 1    
   152   76  199 1    
   153   77   78 2    
   154   77   79 am   BACKBONE|DICT|INTERRES
   155   79   80 1    
   156   79  200 1    
   157   80   81 1    
   158   80   82 1    
   159   80  201 1    
   160   81  202 1    
   161   81  203 1    
   162   81  204 1    
   163   82   83 2    
   164   82   84 am   BACKBONE|DICT|INTERRES
   165   84   85 1    
   166   84  205 1    
   167   85   86 1    
   168   85   87 1    
   169   85  206 1    
   170   86  207 1    
   171   86  208 1    
   172   86  209 1    
   173   87   88 2    
   174   87   89 am   BACKBONE|DICT|INTERRES
   175   89   90 1    
   176   89  210 1    
   177   90   91 1    
   178   90   92 1    
   179   90  211 1    
   180   91  212 1    
   181   91  213 1    
   182   91  214 1    
   183   92   93 2    
   184   92   94 am   BACKBONE|DICT|INTERRES
   185   94   95 1    
   186   94  215 1    
   187   95   96 1    
   188   95   97 1    
   189   95  216 1    
   190   96  217 1    
   191   96  218 1    
   192   96  219 1    
   193   97   98 2    
   194   97   99 am   BACKBONE|DICT|INTERRES
   195   99  100 1    
   196   99  220 1    
   197  100  101 1    
   198  100  102 1    
   199  100  221 1    
   200  101  222 1    
   201  101  223 1    
   202  101  224 1    
   203  102  103 2    
   204  102  104 am   BACKBONE|DICT|INTERRES
   205  104  105 1    
   206  104  225 1    
   207  105  106 1    
   208  105  107 1    
   209  105  226 1    
   210  106  227 1    
   211  106  228 1    
   212  106  229 1    
   213  107  108 2    
   214  107  109 am   BACKBONE|DICT|INTERRES
   215  109  110 1    
   216  109  230 1    
   217  110  111 1    
   218  110  112 1    
   219  110  231 1    
   220  111  232 1    
   221  111  233 1    
   222  111  234 1    
   223  112  113 2    
   224  112  114 am   BACKBONE|DICT|INTERRES
   225  114  115 1    
   226  114  235 1    
   227  115  116 1    
   228  115  117 1    
   229  115  236 1    
   230  116  237 1    
   231  116  238 1    
   232  116  239 1    
   233  117  118 2    
   234  117  119 am   BACKBONE|DICT|INTERRES
   235  119  120 1    
   236  119  240 1    
   237  120  121 1    
   238  120  124 1    
   239  120  241 1    
   240  121  122 am   BACKBONE|DICT|INTERRES
   241  121  123 2    
   242  122  242 1    
   243  122  243 1    
   244  124  125 1    
   245  124  244 1    
   246  124  245 1    
   247  125  126 1    
   248  126  246 1    
   249  126  247 1    
@<TRIPOS>SUBSTRUCTURE
     1 UNK         1 GROUP             0       ****    0 ROOT    
