@<TRIPOS>MOLECULE
3R540
247   249    1
SMALL
USER_CHARGES


@<TRIPOS>ATOM
      1 CA         -1.1520  -10.2290  -49.6735 C.3       0 UNK        -0.1800 
      2 C           0.0525  -10.6704  -48.8549 C.2       0 UNK         0.5000 
      3 O           0.3921  -10.0235  -47.8640 O.2       0 UNK        -0.5000 
      4 N           0.6951  -11.7752  -49.2597 N.am      1 UNK        -0.5000 
      5 CA          1.8735  -12.3564  -48.6006 C.3       1 UNK         0.1400 
      6 C6          2.5748  -13.4143  -49.4980 C.3       23 UNK        -0.0398 
      7 S7          1.7650  -15.0527  -49.5857 S.3       23 UNK        -0.2404 
      8 C8          0.6498  -14.8849  -51.0106 C.3       23 UNK        -0.0205 
      9 C9         -0.3906  -15.9933  -50.9939 C.ar      23 UNK        -0.0193 
     10 C10        -0.3115  -17.0638  -51.8879 C.ar      23 UNK        -0.1150 
     11 C11        -1.2575  -18.0936  -51.8486 C.ar      23 UNK        -0.0193 
     12 C12        -2.2951  -18.0389  -50.9110 C.ar      23 UNK        -0.1150 
     13 C13        -2.3865  -16.9702  -50.0097 C.ar      23 UNK        -0.0193 
     14 C14        -1.4329  -15.9507  -50.0647 C.ar      23 UNK        -0.1150 
     15 C15        -3.5199  -16.8667  -48.9922 C.3       23 UNK        -0.0205 
     16 S16        -3.9750  -18.4419  -48.1960 S.3       23 UNK        -0.2404 
     17 C17        -2.4700  -18.8650  -47.2492 C.3       23 UNK        -0.0398 
     18 CA         -2.0483  -20.3443  -47.4328 C.3       11 UNK         0.1400 
     19 N          -0.7454  -20.6317  -46.8343 N.am      11 UNK        -0.5000 
     20 C          -0.0829  -21.7888  -46.9703 C.2       10 UNK         0.5000 
     21 O          -0.4626  -22.7110  -47.6910 O.2       10 UNK        -0.5000 
     22 CA          1.1904  -21.9702  -46.1236 C.3       10 UNK         0.1400 
     23 CB          2.4040  -21.3428  -46.8236 C.3       10 UNK        -0.1800 
     24 N           1.0571  -21.4262  -44.7694 N.am      10 UNK        -0.5000 
     25 C           0.1833  -21.8764  -43.8563 C.2       9 UNK         0.5000 
     26 O          -0.5705  -22.8299  -44.0460 O.2       9 UNK        -0.5000 
     27 CA          0.0926  -21.1021  -42.5291 C.3       9 UNK         0.1400 
     28 CB          1.2423  -21.4831  -41.5851 C.3       9 UNK        -0.1800 
     29 N           0.0707  -19.6535  -42.7286 N.am      9 UNK        -0.5000 
     30 C          -0.8966  -18.9930  -43.3815 C.2       8 UNK         0.5000 
     31 O          -1.9073  -19.5306  -43.8349 O.2       8 UNK        -0.5000 
     32 CA         -0.6665  -17.4900  -43.6199 C.3       8 UNK         0.1400 
     33 CB         -1.0052  -16.6807  -42.3603 C.3       8 UNK        -0.1800 
     34 N           0.7045  -17.2025  -44.0454 N.am      8 UNK        -0.5000 
     35 C           1.2505  -17.6531  -45.1842 C.2       7 UNK         0.5000 
     36 O           0.6234  -18.2824  -46.0335 O.2       7 UNK        -0.5000 
     37 CA          2.7554  -17.4120  -45.3880 C.3       7 UNK         0.1400 
     38 CB          3.0173  -16.0369  -46.0051 C.3       7 UNK        -0.1800 
     39 N           3.5055  -17.5335  -44.1413 N.am      7 UNK        -0.5000 
     40 C           3.7451  -18.6936  -43.5174 C.2       6 UNK         0.5000 
     41 O           3.3898  -19.7891  -43.9515 O.2       6 UNK        -0.5000 
     42 CA          4.4653  -18.6032  -42.1600 C.3       6 UNK         0.1400 
     43 CB          5.9869  -18.5356  -42.3566 C.3       6 UNK        -0.1800 
     44 N           4.0246  -17.4500  -41.3715 N.am      6 UNK        -0.5000 
     45 C           2.7938  -17.3188  -40.8576 C.2       5 UNK         0.5000 
     46 O           1.9151  -18.1736  -40.9691 O.2       5 UNK        -0.5000 
     47 CA          2.4798  -15.9953  -40.1355 C.3       5 UNK         0.1400 
     48 CB          2.9026  -16.0728  -38.6610 C.3       5 UNK        -0.1800 
     49 N           3.0981  -14.8195  -40.7581 N.am      5 UNK        -0.5000 
     50 C           2.8197  -14.3793  -41.9920 C.2       4 UNK         0.5000 
     51 O           2.0710  -14.9700  -42.7736 O.2       4 UNK        -0.5000 
     52 CA          3.5223  -13.0875  -42.4436 C.3       4 UNK         0.1400 
     53 CB          4.7232  -13.4131  -43.3444 C.3       4 UNK        -0.1800 
     54 N           2.5854  -12.2436  -43.1812 N.am      4 UNK        -0.5000 
     55 C           1.7002  -11.4135  -42.6079 C.2       3 UNK         0.5000 
     56 O           1.6892  -11.1533  -41.4040 O.2       3 UNK        -0.5000 
     57 CA          0.6271  -10.7896  -43.5268 C.3       3 UNK         0.1400 
     58 CB          1.1060   -9.4404  -44.0829 C.3       3 UNK        -0.1800 
     59 N           0.2852  -11.6700  -44.6427 N.am      3 UNK        -0.5000 
     60 C          -0.3186  -12.8584  -44.5129 C.2       2 UNK         0.5000 
     61 O          -0.8940  -13.2034  -43.4812 O.2       2 UNK        -0.5000 
     62 CA         -0.2421  -13.8385  -45.7059 C.3       2 UNK         0.1400 
     63 CB         -1.6065  -14.4754  -46.0182 C.3       2 UNK        -0.1800 
     64 N           0.3085  -13.2832  -46.9463 N.am      2 UNK        -0.5000 
     65 C           1.5673  -12.8763  -47.1751 C.2       1 UNK         0.5000 
     66 O           2.4453  -12.8518  -46.3119 O.2       1 UNK        -0.5000 
     67 C          -3.1242  -21.3243  -46.9149 C.2       11 UNK         0.5000 
     68 O          -3.8189  -21.9458  -47.7185 O.2       11 UNK        -0.5000 
     69 N          -3.2301  -21.4579  -45.5866 N.am      12 UNK        -0.5000 
     70 CA         -4.2059  -22.3172  -44.9199 C.3       12 UNK         0.1400 
     71 CB         -4.1630  -22.0569  -43.4063 C.3       12 UNK        -0.1800 
     72 C          -4.0132  -23.8137  -45.2255 C.2       12 UNK         0.5000 
     73 O          -4.9844  -24.4881  -45.5689 O.2       12 UNK        -0.5000 
     74 N          -2.7740  -24.3013  -45.0879 N.am      13 UNK        -0.5000 
     75 CA         -2.4205  -25.7066  -45.2579 C.3       13 UNK         0.1400 
     76 CB         -1.2063  -26.0441  -44.3727 C.3       13 UNK        -0.1800 
     77 C          -2.1805  -26.0575  -46.7351 C.2       13 UNK         0.5000 
     78 O          -3.0428  -26.6741  -47.3609 O.2       13 UNK        -0.5000 
     79 N          -1.0027  -25.6882  -47.2562 N.am      14 UNK        -0.5000 
     80 CA         -0.4892  -26.1115  -48.5609 C.3       14 UNK         0.1400 
     81 CB          0.9807  -25.6845  -48.7009 C.3       14 UNK        -0.1800 
     82 C          -1.3229  -25.6176  -49.7552 C.2       14 UNK         0.5000 
     83 O          -1.5524  -26.3899  -50.6870 O.2       14 UNK        -0.5000 
     84 N          -1.7800  -24.3597  -49.7013 N.am      15 UNK        -0.5000 
     85 CA         -2.6379  -23.7672  -50.7312 C.3       15 UNK         0.1400 
     86 CB         -2.3863  -22.2559  -50.8210 C.3       15 UNK        -0.1800 
     87 C          -4.1350  -24.0515  -50.5094 C.2       15 UNK         0.5000 
     88 O          -4.9376  -23.6268  -51.3387 O.2       15 UNK        -0.5000 
     89 N          -4.4912  -24.7343  -49.4100 N.am      16 UNK        -0.5000 
     90 CA         -5.8438  -25.1513  -49.0234 C.3       16 UNK         0.1400 
     91 CB         -6.3320  -26.2838  -49.9502 C.3       16 UNK        -0.1800 
     92 C          -6.8454  -23.9789  -48.9244 C.2       16 UNK         0.5000 
     93 O          -7.9661  -24.0779  -49.4273 O.2       16 UNK        -0.5000 
     94 N          -6.4041  -22.8857  -48.2864 N.am      17 UNK        -0.5000 
     95 CA         -7.0927  -21.6018  -48.1281 C.3       17 UNK         0.1400 
     96 CB         -8.4041  -21.7539  -47.3289 C.3       17 UNK        -0.1800 
     97 C          -7.2620  -20.8726  -49.4759 C.2       17 UNK         0.5000 
     98 O          -8.3516  -20.3911  -49.7919 O.2       17 UNK        -0.5000 
     99 N          -6.1567  -20.8079  -50.2328 N.am      18 UNK        -0.5000 
    100 CA        -6.0072  -20.1703  -51.5446 C.3       18 UNK         0.1400 
    101 CB        -6.1784  -18.6407  -51.4412 C.3       18 UNK        -0.1800 
    102 C         -6.9100  -20.7981  -52.6241 C.2       18 UNK         0.5000 
    103 O         -7.6629  -20.0929  -53.3015 O.2       18 UNK        -0.5000 
    104 N         -6.8025  -22.1221  -52.7872 N.am      19 UNK        -0.5000 
    105 CA        -7.3998  -22.8855  -53.8812 C.3       19 UNK         0.1400 
    106 CB        -7.4579  -24.3702  -53.4801 C.3       19 UNK        -0.1800 
    107 C         -6.6027  -22.6462  -55.1810 C.2       19 UNK         0.5000 
    108 O         -5.8278  -23.5063  -55.6031 O.2       19 UNK        -0.5000 
    109 N         -6.7871  -21.4483  -55.7524 N.am      20 UNK        -0.5000 
    110 CA        -6.0264  -20.8478  -56.8512 C.3       20 UNK         0.1400 
    111 CB        -6.1071  -21.7027  -58.1371 C.3       20 UNK        -0.1800 
    112 C         -4.5886  -20.4814  -56.4171 C.2       20 UNK         0.5000 
    113 O         -4.3618  -20.1807  -55.2415 O.2       20 UNK        -0.5000 
    114 N         -3.6563  -20.4538  -57.3781 N.am      21 UNK        -0.5000 
    115 CA        -2.2431  -20.1276  -57.1788 C.3       21 UNK         0.1400 
    116 CB        -1.5861  -19.9439  -58.5566 C.3       21 UNK        -0.1800 
    117 C         -1.4920  -21.1952  -56.3591 C.2       21 UNK         0.5000 
    118 O         -1.9340  -22.3441  -56.2773 O.2       21 UNK        -0.5000 
    119 N         -0.3471  -20.8007  -55.7957 N.am      22 UNK        -0.5000 
    120 CA         0.5294  -21.6539  -54.9864 C.3       22 UNK         0.1400 
    121 C          2.0239  -21.2558  -55.1400 C.2       22 UNK         0.5000 
    122 N          2.9439  -22.0662  -54.6341 N.am      22 UNK        -0.7600 
    123 O          2.3625  -20.2233  -55.7166 O.2       22 UNK        -0.5000 
    124 C124        0.0399  -21.7519  -53.5137 C.3       23 UNK        -0.0398 
    125 S125        0.3242  -20.2685  -52.4811 S.3       23 UNK        -0.2404 
    126 C126       -1.1543  -19.2606  -52.8207 C.3       23 UNK        -0.0205 
    127 H127       -1.3404  -10.8989  -50.5128 H         1 UNK         0.0600 
    128 H128       -0.9894   -9.2261  -50.0683 H         1 UNK         0.0600 
    129 H129       -2.0437  -10.2095  -49.0471 H         1 UNK         0.0600 
    130 H130        0.3739  -12.2532  -50.0880 H         1 UNK         0.3000 
    131 H131        2.5842  -11.5367  -48.4732 H         1 UNK         0.0600 
    132 H132        2.7113  -13.0248  -50.5078 H         1 UNK         0.0800 
    133 H133        3.5839  -13.5831  -49.1186 H         1 UNK         0.0800 
    134 H134        1.2328  -14.9082  -51.9326 H         1 UNK         0.0800 
    135 H135        0.1423  -13.9212  -50.9853 H         1 UNK         0.0800 
    136 H136        0.4950  -17.1073  -52.6065 H         1 UNK         0.1150 
    137 H137       -3.0310  -18.8294  -50.8824 H         1 UNK         0.1150 
    138 H138       -1.4936  -15.1201  -49.3758 H         1 UNK         0.1150 
    139 H139       -3.2685  -16.1517  -48.2079 H         1 UNK         0.0800 
    140 H140       -4.3980  -16.4638  -49.4973 H         1 UNK         0.0800 
    141 H141       -2.6455  -18.6322  -46.1990 H         1 UNK         0.0800 
    142 H142       -1.6555  -18.2134  -47.5685 H         1 UNK         0.0800 
    143 H143       -1.9286  -20.5101  -48.5029 H         1 UNK         0.0600 
    144 H144       -0.3219  -19.8873  -46.2867 H         1 UNK         0.3000 
    145 H145        1.3730  -23.0427  -46.0306 H         1 UNK         0.0600 
    146 H146        3.3187  -21.5096  -46.2546 H         1 UNK         0.0600 
    147 H147        2.5506  -21.7793  -47.8124 H         1 UNK         0.0600 
    148 H148        2.2818  -20.2682  -46.9557 H         1 UNK         0.0600 
    149 H149        1.6835  -20.6682  -44.5177 H         1 UNK         0.3000 
    150 H150       -0.8457  -21.3833  -42.0466 H         1 UNK         0.0600 
    151 H151        1.2549  -22.5579  -41.4004 H         1 UNK         0.0600 
    152 H152        1.1388  -20.9877  -40.6196 H         1 UNK         0.0600 
    153 H153        2.2134  -21.2096  -41.9971 H         1 UNK         0.0600 
    154 H154        0.8440  -19.1258  -42.3352 H         1 UNK         0.3000 
    155 H155       -1.3362  -17.1716  -44.4208 H         1 UNK         0.0600 
    156 H156       -0.4127  -16.9960  -41.5023 H         1 UNK         0.0600 
    157 H157       -2.0558  -16.8001  -42.0936 H         1 UNK         0.0600 
    158 H158       -0.8262  -15.6178  -42.5129 H         1 UNK         0.0600 
    159 H159        1.2676  -16.6257  -43.4273 H         1 UNK         0.3000 
    160 H160        3.1216  -18.1667  -46.0867 H         1 UNK         0.0600 
    161 H161        2.7401  -15.2374  -45.3210 H         1 UNK         0.0600 
    162 H162        2.4362  -15.9057  -46.9164 H         1 UNK         0.0600 
    163 H163        4.0681  -15.9089  -46.2643 H         1 UNK         0.0600 
    164 H164        3.7833  -16.6739  -43.6923 H         1 UNK         0.3000 
    165 H165        4.2326  -19.5105  -41.5984 H         1 UNK         0.0600 
    166 H166        6.5087  -18.5454  -41.3995 H         1 UNK         0.0600 
    167 H167        6.3441  -19.3928  -42.9290 H         1 UNK         0.0600 
    168 H168        6.2860  -17.6345  -42.8934 H         1 UNK         0.0600 
    169 H169        4.6899  -16.7037  -41.2330 H         1 UNK         0.3000 
    170 H170        1.3975  -15.8548  -40.1695 H         1 UNK         0.0600 
    171 H171        2.4399  -16.9283  -38.1668 H         1 UNK         0.0600 
    172 H172        3.9831  -16.1776  -38.5557 H         1 UNK         0.0600 
    173 H173        2.5964  -15.1802  -38.1153 H         1 UNK         0.0600 
    174 H174        3.7332  -14.2883  -40.1798 H         1 UNK         0.3000 
    175 H175        3.8857  -12.5484  -41.5662 H         1 UNK         0.0600 
    176 H176        4.4189  -13.9251  -44.2574 H         1 UNK         0.0600 
    177 H177        5.2517  -12.5051  -43.6350 H         1 UNK         0.0600 
    178 H178        5.4388  -14.0547  -42.8288 H         1 UNK         0.0600 
    179 H179        2.4995  -12.4355  -44.1728 H         1 UNK         0.3000 
    180 H180       -0.2720  -10.6202  -42.9309 H         1 UNK         0.0600 
    181 H181        1.9987   -9.5535  -44.6995 H         1 UNK         0.0600 
    182 H182        1.3485   -8.7488  -43.2750 H         1 UNK         0.0600 
    183 H183        0.3352   -8.9701  -44.6941 H         1 UNK         0.0600 
    184 H184        0.7187  -11.4582  -45.5306 H         1 UNK         0.3000 
    185 H185        0.4256  -14.6382  -45.3842 H         1 UNK         0.0600 
    186 H186       -2.0559  -14.9144  -45.1269 H         1 UNK         0.0600 
    187 H187       -2.3108  -13.7429  -46.4138 H         1 UNK         0.0600 
    188 H188       -1.5022  -15.2771  -46.7494 H         1 UNK         0.0600 
    189 H189       -0.3374  -13.2155  -47.7182 H         1 UNK         0.3000 
    190 H190       -2.6315  -20.8976  -44.9855 H         1 UNK         0.3000 
    191 H191       -5.1965  -22.0328  -45.2812 H         1 UNK         0.0600 
    192 H192       -3.1801  -22.2754  -42.9874 H         1 UNK         0.0600 
    193 H193       -4.8909  -22.6767  -42.8813 H         1 UNK         0.0600 
    194 H194       -4.3969  -21.0165  -43.1796 H         1 UNK         0.0600 
    195 H195       -2.0245  -23.6756  -44.7987 H         1 UNK         0.3000 
    196 H196       -3.2506  -26.3248  -44.9087 H         1 UNK         0.0600 
    197 H197       -0.9196  -27.0903  -44.4862 H         1 UNK         0.0600 
    198 H198       -1.4364  -25.8839  -43.3193 H         1 UNK         0.0600 
    199 H199       -0.3340  -25.4362  -44.6137 H         1 UNK         0.0600 
    200 H200       -0.3879  -25.1141  -46.6991 H         1 UNK         0.3000 
    201 H201       -0.5189  -27.2031  -48.5779 H         1 UNK         0.0600 
    202 H202        1.5914  -26.1019  -47.9003 H         1 UNK         0.0600 
    203 H203        1.0939  -24.6007  -48.6795 H         1 UNK         0.0600 
    204 H204        1.3992  -26.0367  -49.6446 H         1 UNK         0.0600 
    205 H205       -1.5111  -23.7717  -48.9152 H         1 UNK         0.3000 
    206 H206       -2.3689  -24.1941  -51.6997 H         1 UNK         0.0600 
    207 H207       -1.3280  -22.0144  -50.7285 H         1 UNK         0.0600 
    208 H208       -2.7347  -21.8755  -51.7805 H         1 UNK         0.0600 
    209 H209       -2.9290  -21.7063  -50.0577 H         1 UNK         0.0600 
    210 H210       -3.7541  -25.0352  -48.7856 H         1 UNK         0.3000 
    211 H211       -5.7594  -25.5647  -48.0175 H         1 UNK         0.0600 
    212 H212       -6.4648  -25.9379  -50.9755 H         1 UNK         0.0600 
    213 H213       -7.2887  -26.6829  -49.6117 H         1 UNK         0.0600 
    214 H214       -5.6231  -27.1117  -49.9650 H         1 UNK         0.0600 
    215 H215       -5.4366  -22.8807  -47.9714 H         1 UNK         0.3000 
    216 H216       -6.4272  -20.9759  -47.5318 H         1 UNK         0.0600 
    217 H217       -8.8289  -20.7775  -47.0934 H         1 UNK         0.0600 
    218 H218       -8.2314  -22.2691  -46.3840 H         1 UNK         0.0600 
    219 H219       -9.1602  -22.3106  -47.8827 H         1 UNK         0.0600 
    220 H220       -5.3332  -21.2744  -49.8793 H         1 UNK         0.3000 
    221 H221       -4.9804  -20.3610  -51.8607 H         1 UNK         0.0600 
    222 H222       -7.1955  -18.3606  -51.1661 H         1 UNK         0.0600 
    223 H223       -5.5045  -18.2178  -50.7005 H         1 UNK         0.0600 
    224 H224       -5.9523  -18.1594  -52.3934 H         1 UNK         0.0600 
    225 H225       -6.1450  -22.6363  -52.2012 H         1 UNK         0.3000 
    226 H226       -8.4245  -22.5431  -54.0401 H         1 UNK         0.0600 
    227 H227       -8.0395  -24.5082  -52.5681 H         1 UNK         0.0600 
    228 H228       -7.9282  -24.9670  -54.2622 H         1 UNK         0.0600 
    229 H229       -6.4633  -24.7819  -53.3050 H         1 UNK         0.0600 
    230 H230       -7.3727  -20.7988  -55.2380 H         1 UNK         0.3000 
    231 H231       -6.5216  -19.8992  -57.0625 H         1 UNK         0.0600 
    232 H232       -7.1341  -22.0044  -58.3434 H         1 UNK         0.0600 
    233 H233       -5.5027  -22.6077  -58.0662 H         1 UNK         0.0600 
    234 H234       -5.7618  -21.1429  -59.0067 H         1 UNK         0.0600 
    235 H235       -3.9202  -20.7395  -58.3091 H         1 UNK         0.3000 
    236 H236       -2.1886  -19.1813  -56.6362 H         1 UNK         0.0600 
    237 H237       -0.5381  -19.6576  -58.4592 H         1 UNK         0.0600 
    238 H238       -1.6213  -20.8624  -59.1438 H         1 UNK         0.0600 
    239 H239       -2.0817  -19.1596  -59.1293 H         1 UNK         0.0600 
    240 H240        0.0109  -19.8695  -55.9604 H         1 UNK         0.3000 
    241 H241        0.4736  -22.6573  -55.4135 H         1 UNK         0.0600 
    242 H242        3.9165  -21.8174  -54.7278 H         1 UNK         0.3800 
    243 H243        2.6983  -22.9216  -54.1606 H         1 UNK         0.3800 
    244 H244       -1.0192  -22.0093  -53.4904 H         1 UNK         0.0800 
    245 H245        0.5428  -22.5846  -53.0206 H         1 UNK         0.0800 
    246 H246       -2.0488  -19.8816  -52.7719 H         1 UNK         0.0800 
    247 H247       -1.1042  -18.8743  -53.8390 H         1 UNK         0.0800 
@<TRIPOS>BOND
     1    1    2 1    
     2    1  127 1    
     3    1  128 1    
     4    1  129 1    
     5    2    3 2    
     6    2    4 am   BACKBONE|DICT|INTERRES
     7    4    5 1    
     8    4  130 1    
     9    5    6 1    
    10    5   65 1    
    11    5  131 1    
    12    6    7 1    
    13    6  132 1    
    14    6  133 1    
    15    7    8 1    
    16    8    9 1    
    17    8  134 1    
    18    8  135 1    
    19    9   10 ar   
    20    9   14 ar   
    21   10   11 ar   
    22   10  136 1    
    23   11   12 ar   
    24   11  126 1    
    25   12   13 ar   
    26   12  137 1    
    27   13   14 ar   
    28   13   15 1    
    29   14  138 1    
    30   15   16 1    
    31   15  139 1    
    32   15  140 1    
    33   16   17 1    
    34   17   18 1    
    35   17  141 1    
    36   17  142 1    
    37   18   19 1    
    38   18   67 1    
    39   18  143 1    
    40   19   20 am   BACKBONE|DICT|INTERRES
    41   19  144 1    
    42   20   21 2    
    43   20   22 1    
    44   22   23 1    
    45   22   24 1    
    46   22  145 1    
    47   23  146 1    
    48   23  147 1    
    49   23  148 1    
    50   24   25 am   BACKBONE|DICT|INTERRES
    51   24  149 1    
    52   25   26 2    
    53   25   27 1    
    54   27   28 1    
    55   27   29 1    
    56   27  150 1    
    57   28  151 1    
    58   28  152 1    
    59   28  153 1    
    60   29   30 am   BACKBONE|DICT|INTERRES
    61   29  154 1    
    62   30   31 2    
    63   30   32 1    
    64   32   33 1    
    65   32   34 1    
    66   32  155 1    
    67   33  156 1    
    68   33  157 1    
    69   33  158 1    
    70   34   35 am   BACKBONE|DICT|INTERRES
    71   34  159 1    
    72   35   36 2    
    73   35   37 1    
    74   37   38 1    
    75   37   39 1    
    76   37  160 1    
    77   38  161 1    
    78   38  162 1    
    79   38  163 1    
    80   39   40 am   BACKBONE|DICT|INTERRES
    81   39  164 1    
    82   40   41 2    
    83   40   42 1    
    84   42   43 1    
    85   42   44 1    
    86   42  165 1    
    87   43  166 1    
    88   43  167 1    
    89   43  168 1    
    90   44   45 am   BACKBONE|DICT|INTERRES
    91   44  169 1    
    92   45   46 2    
    93   45   47 1    
    94   47   48 1    
    95   47   49 1    
    96   47  170 1    
    97   48  171 1    
    98   48  172 1    
    99   48  173 1    
   100   49   50 am   BACKBONE|DICT|INTERRES
   101   49  174 1    
   102   50   51 2    
   103   50   52 1    
   104   52   53 1    
   105   52   54 1    
   106   52  175 1    
   107   53  176 1    
   108   53  177 1    
   109   53  178 1    
   110   54   55 am   BACKBONE|DICT|INTERRES
   111   54  179 1    
   112   55   56 2    
   113   55   57 1    
   114   57   58 1    
   115   57   59 1    
   116   57  180 1    
   117   58  181 1    
   118   58  182 1    
   119   58  183 1    
   120   59   60 am   BACKBONE|DICT|INTERRES
   121   59  184 1    
   122   60   61 2    
   123   60   62 1    
   124   62   63 1    
   125   62   64 1    
   126   62  185 1    
   127   63  186 1    
   128   63  187 1    
   129   63  188 1    
   130   64   65 am   BACKBONE|DICT|INTERRES
   131   64  189 1    
   132   65   66 2    
   133   67   68 2    
   134   67   69 am   BACKBONE|DICT|INTERRES
   135   69   70 1    
   136   69  190 1    
   137   70   71 1    
   138   70   72 1    
   139   70  191 1    
   140   71  192 1    
   141   71  193 1    
   142   71  194 1    
   143   72   73 2    
   144   72   74 am   BACKBONE|DICT|INTERRES
   145   74   75 1    
   146   74  195 1    
   147   75   76 1    
   148   75   77 1    
   149   75  196 1    
   150   76  197 1    
   151   76  198 1    
   152   76  199 1    
   153   77   78 2    
   154   77   79 am   BACKBONE|DICT|INTERRES
   155   79   80 1    
   156   79  200 1    
   157   80   81 1    
   158   80   82 1    
   159   80  201 1    
   160   81  202 1    
   161   81  203 1    
   162   81  204 1    
   163   82   83 2    
   164   82   84 am   BACKBONE|DICT|INTERRES
   165   84   85 1    
   166   84  205 1    
   167   85   86 1    
   168   85   87 1    
   169   85  206 1    
   170   86  207 1    
   171   86  208 1    
   172   86  209 1    
   173   87   88 2    
   174   87   89 am   BACKBONE|DICT|INTERRES
   175   89   90 1    
   176   89  210 1    
   177   90   91 1    
   178   90   92 1    
   179   90  211 1    
   180   91  212 1    
   181   91  213 1    
   182   91  214 1    
   183   92   93 2    
   184   92   94 am   BACKBONE|DICT|INTERRES
   185   94   95 1    
   186   94  215 1    
   187   95   96 1    
   188   95   97 1    
   189   95  216 1    
   190   96  217 1    
   191   96  218 1    
   192   96  219 1    
   193   97   98 2    
   194   97   99 am   BACKBONE|DICT|INTERRES
   195   99  100 1    
   196   99  220 1    
   197  100  101 1    
   198  100  102 1    
   199  100  221 1    
   200  101  222 1    
   201  101  223 1    
   202  101  224 1    
   203  102  103 2    
   204  102  104 am   BACKBONE|DICT|INTERRES
   205  104  105 1    
   206  104  225 1    
   207  105  106 1    
   208  105  107 1    
   209  105  226 1    
   210  106  227 1    
   211  106  228 1    
   212  106  229 1    
   213  107  108 2    
   214  107  109 am   BACKBONE|DICT|INTERRES
   215  109  110 1    
   216  109  230 1    
   217  110  111 1    
   218  110  112 1    
   219  110  231 1    
   220  111  232 1    
   221  111  233 1    
   222  111  234 1    
   223  112  113 2    
   224  112  114 am   BACKBONE|DICT|INTERRES
   225  114  115 1    
   226  114  235 1    
   227  115  116 1    
   228  115  117 1    
   229  115  236 1    
   230  116  237 1    
   231  116  238 1    
   232  116  239 1    
   233  117  118 2    
   234  117  119 am   BACKBONE|DICT|INTERRES
   235  119  120 1    
   236  119  240 1    
   237  120  121 1    
   238  120  124 1    
   239  120  241 1    
   240  121  122 am   BACKBONE|DICT|INTERRES
   241  121  123 2    
   242  122  242 1    
   243  122  243 1    
   244  124  125 1    
   245  124  244 1    
   246  124  245 1    
   247  125  126 1    
   248  126  246 1    
   249  126  247 1    
@<TRIPOS>SUBSTRUCTURE
     1 UNK         1 GROUP             0       ****    0 ROOT    
