@<TRIPOS>MOLECULE
3R540
247   249    1
SMALL
USER_CHARGES


@<TRIPOS>ATOM
      1 CA          2.5977  -19.0840  -52.3533 C.3       0 UNK        -0.1800 
      2 C           3.2069  -17.7054  -52.5683 C.2       0 UNK         0.5000 
      3 O           3.6122  -17.3812  -53.6855 O.2       0 UNK        -0.5000 
      4 N           3.2850  -16.9044  -51.5009 N.am      1 UNK        -0.5000 
      5 CA          3.7678  -15.5192  -51.5153 C.3       1 UNK         0.1400 
      6 C6          4.4172  -15.1150  -50.1622 C.3       23 UNK        -0.0398 
      7 S7          5.7384  -16.2566  -49.6153 S.3       23 UNK        -0.2404 
      8 C8          5.0880  -16.8889  -48.0329 C.3       23 UNK        -0.0205 
      9 C9          3.9230  -17.8470  -48.2308 C.ar      23 UNK        -0.0193 
     10 C10         2.6120  -17.3670  -48.2182 C.ar      23 UNK        -0.1150 
     11 C11         1.5382  -18.2285  -48.4435 C.ar      23 UNK        -0.0193 
     12 C12         1.7735  -19.5934  -48.6172 C.ar      23 UNK        -0.1150 
     13 C13         3.0792  -20.0935  -48.6084 C.ar      23 UNK        -0.0193 
     14 C14         4.1511  -19.2124  -48.4294 C.ar      23 UNK        -0.1150 
     15 C15         3.3276  -21.5807  -48.8214 C.3       23 UNK        -0.0205 
     16 S16         4.0990  -22.3921  -47.3821 S.3       23 UNK        -0.2404 
     17 C17         2.9000  -22.0864  -46.0389 C.3       23 UNK        -0.0398 
     18 CA          2.0301  -23.3234  -45.6956 C.3       11 UNK         0.1400 
     19 N           1.7781  -23.4302  -44.2523 N.am      11 UNK        -0.5000 
     20 C           1.3175  -24.5271  -43.6302 C.2       10 UNK         0.5000 
     21 O           1.0465  -25.5729  -44.2211 O.2       10 UNK        -0.5000 
     22 CA          1.0815  -24.4392  -42.1073 C.3       10 UNK         0.1400 
     23 CB          2.2799  -25.0250  -41.3460 C.3       10 UNK        -0.1800 
     24 N           0.8271  -23.0801  -41.6217 N.am      10 UNK        -0.5000 
     25 C          -0.2350  -22.3332  -41.9522 C.2       9 UNK         0.5000 
     26 O          -1.1383  -22.7320  -42.6877 O.2       9 UNK        -0.5000 
     27 CA         -0.2723  -20.8756  -41.4430 C.3       9 UNK         0.1400 
     28 CB          0.7648  -20.5562  -40.3433 C.3       9 UNK        -0.1800 
     29 N          -0.1401  -19.9389  -42.5618 N.am      9 UNK        -0.5000 
     30 C           0.8525  -19.9136  -43.4656 C.2       8 UNK         0.5000 
     31 O           1.8601  -20.6196  -43.4113 O.2       8 UNK        -0.5000 
     32 CA          0.6592  -18.9647  -44.6576 C.3       8 UNK         0.1400 
     33 CB         -0.3911  -19.5533  -45.6153 C.3       8 UNK        -0.1800 
     34 N           0.2483  -17.6211  -44.2523 N.am      8 UNK        -0.5000 
     35 C           0.9742  -16.7791  -43.5018 C.2       7 UNK         0.5000 
     36 O           2.0857  -17.0447  -43.0438 O.2       7 UNK        -0.5000 
     37 CA          0.3590  -15.3959  -43.2312 C.3       7 UNK         0.1400 
     38 CB          0.7651  -14.4195  -44.3431 C.3       7 UNK        -0.1800 
     39 N          -1.1005  -15.4650  -43.1657 N.am      7 UNK        -0.5000 
     40 C          -1.7964  -15.6940  -42.0442 C.2       6 UNK         0.5000 
     41 O          -1.2864  -15.7764  -40.9263 O.2       6 UNK        -0.5000 
     42 CA         -3.3200  -15.8792  -42.1940 C.3       6 UNK         0.1400 
     43 CB         -4.0424  -14.5314  -42.0471 C.3       6 UNK        -0.1800 
     44 N          -3.7166  -16.4971  -43.4614 N.am      6 UNK        -0.5000 
     45 C          -3.3850  -17.7367  -43.8471 C.2       5 UNK         0.5000 
     46 O          -2.7095  -18.5110  -43.1666 O.2       5 UNK        -0.5000 
     47 CA         -3.8543  -18.1777  -45.2467 C.3       5 UNK         0.1400 
     48 CB         -5.2580  -18.7934  -45.1529 C.3       5 UNK        -0.1800 
     49 N          -3.8544  -17.1459  -46.2951 N.am      5 UNK        -0.5000 
     50 C          -2.8854  -16.2621  -46.5756 C.2       4 UNK         0.5000 
     51 O          -1.8496  -16.1436  -45.9137 O.2       4 UNK        -0.5000 
     52 CA         -3.1258  -15.3500  -47.7925 C.3       4 UNK         0.1400 
     53 CB         -4.4334  -14.5487  -47.6468 C.3       4 UNK        -0.1800 
     54 N          -2.0042  -14.4235  -47.9381 N.am      4 UNK        -0.5000 
     55 C          -1.5520  -13.9023  -49.0855 C.2       3 UNK         0.5000 
     56 O          -2.0513  -14.1454  -50.1866 O.2       3 UNK        -0.5000 
     57 CA         -0.3375  -12.9583  -48.9963 C.3       3 UNK         0.1400 
     58 CB          0.6274  -13.3069  -47.8450 C.3       3 UNK        -0.1800 
     59 N           0.3908  -12.9545  -50.2636 N.am      3 UNK        -0.5000 
     60 C           1.1273  -11.9406  -50.7320 C.2       2 UNK         0.5000 
     61 O           1.2566  -10.8669  -50.1401 O.2       2 UNK        -0.5000 
     62 CA          1.8841  -12.1905  -52.0559 C.3       2 UNK         0.1400 
     63 CB          2.5797  -10.9262  -52.5931 C.3       2 UNK        -0.1800 
     64 N           2.8901  -13.2424  -51.8848 N.am      2 UNK        -0.5000 
     65 C           2.6214  -14.5540  -51.9066 C.2       1 UNK         0.5000 
     66 O           1.5038  -14.9867  -52.1938 O.2       1 UNK        -0.5000 
     67 C           0.7322  -23.3644  -46.5350 C.2       11 UNK         0.5000 
     68 O           0.7950  -23.6426  -47.7327 O.2       11 UNK        -0.5000 
     69 N          -0.4335  -23.1552  -45.9003 N.am      12 UNK        -0.5000 
     70 CA         -1.7559  -23.3069  -46.5133 C.3       12 UNK         0.1400 
     71 CB         -2.8388  -22.9132  -45.4994 C.3       12 UNK        -0.1800 
     72 C          -2.0207  -24.7251  -47.0580 C.2       12 UNK         0.5000 
     73 O          -2.7773  -24.8661  -48.0162 O.2       12 UNK        -0.5000 
     74 N          -1.3658  -25.7446  -46.4822 N.am      13 UNK        -0.5000 
     75 CA         -1.4053  -27.1251  -46.9681 C.3       13 UNK         0.1400 
     76 CB         -0.7351  -28.0431  -45.9354 C.3       13 UNK        -0.1800 
     77 C          -0.7479  -27.2974  -48.3529 C.2       13 UNK         0.5000 
     78 O          -1.1979  -28.1361  -49.1342 O.2       13 UNK        -0.5000 
     79 N           0.2873  -26.4951  -48.6383 N.am      14 UNK        -0.5000 
     80 CA          0.9675  -26.4525  -49.9320 C.3       14 UNK         0.1400 
     81 CB          2.4262  -26.0130  -49.7260 C.3       14 UNK        -0.1800 
     82 C           0.2492  -25.5074  -50.9101 C.2       14 UNK         0.5000 
     83 O           0.1219  -25.8319  -52.0904 O.2       14 UNK        -0.5000 
     84 N          -0.2240  -24.3643  -50.3974 N.am      15 UNK        -0.5000 
     85 CA         -0.8688  -23.2899  -51.1554 C.3       15 UNK         0.1400 
     86 CB         -0.5255  -21.9505  -50.4855 C.3       15 UNK        -0.1800 
     87 C          -2.3889  -23.4753  -51.3661 C.2       15 UNK         0.5000 
     88 O          -3.0898  -22.4891  -51.6002 O.2       15 UNK        -0.5000 
     89 N          -2.8752  -24.7239  -51.2993 N.am      16 UNK        -0.5000 
     90 CA         -4.2449  -25.1611  -51.6037 C.3       16 UNK         0.1400 
     91 CB         -4.4998  -25.0831  -53.1233 C.3       16 UNK        -0.1800 
     92 C          -5.3199  -24.4235  -50.7768 C.2       16 UNK         0.5000 
     93 O          -6.2735  -23.8765  -51.3323 O.2       16 UNK        -0.5000 
     94 N          -5.1028  -24.3966  -49.4568 N.am      17 UNK        -0.5000 
     95 CA         -5.8697  -23.7346  -48.3967 C.3       17 UNK         0.1400 
     96 CB         -7.3783  -24.0464  -48.4710 C.3       17 UNK        -0.1800 
     97 C          -5.6007  -22.2234  -48.2741 C.2       17 UNK         0.5000 
     98 O          -5.9491  -21.6550  -47.2400 O.2       17 UNK        -0.5000 
     99 N          -4.9745  -21.6030  -49.2893 N.am      18 UNK        -0.5000 
    100 CA        -4.5569  -20.1940  -49.3505 C.3       18 UNK         0.1400 
    101 CB        -3.3622  -19.9652  -48.4031 C.3       18 UNK        -0.1800 
    102 C         -5.7013  -19.1746  -49.1337 C.2       18 UNK         0.5000 
    103 O         -5.4591  -18.0607  -48.6596 O.2       18 UNK        -0.5000 
    104 N         -6.9325  -19.5858  -49.4677 N.am      19 UNK        -0.5000 
    105 CA        -8.1565  -18.8036  -49.3210 C.3       19 UNK         0.1400 
    106 CB        -9.3677  -19.7213  -49.5451 C.3       19 UNK        -0.1800 
    107 C         -8.1780  -17.6182  -50.2983 C.2       19 UNK         0.5000 
    108 O         -7.8275  -17.7895  -51.4678 O.2       19 UNK        -0.5000 
    109 N         -8.5777  -16.4439  -49.7932 N.am      20 UNK        -0.5000 
    110 CA        -8.5608  -15.1214  -50.4335 C.3       20 UNK         0.1400 
    111 CB        -9.4028  -15.0822  -51.7243 C.3       20 UNK        -0.1800 
    112 C         -7.1350  -14.5811  -50.6582 C.2       20 UNK         0.5000 
    113 O         -6.8252  -13.4904  -50.1784 O.2       20 UNK        -0.5000 
    114 N         -6.2892  -15.3597  -51.3397 N.am      21 UNK        -0.5000 
    115 CA        -4.8671  -15.1141  -51.5365 C.3       21 UNK         0.1400 
    116 CB        -4.6461  -13.9978  -52.5746 C.3       21 UNK        -0.1800 
    117 C         -4.1854  -16.4147  -51.9829 C.2       21 UNK         0.5000 
    118 O         -4.8172  -17.2337  -52.6539 O.2       21 UNK        -0.5000 
    119 N         -2.9019  -16.5621  -51.6402 N.am      22 UNK        -0.5000 
    120 CA        -2.0212  -17.6365  -52.1379 C.3       22 UNK         0.1400 
    121 C         -1.2614  -17.2754  -53.4488 C.2       22 UNK         0.5000 
    122 N         -1.3466  -16.0511  -53.9555 N.am      22 UNK        -0.7600 
    123 O         -0.6117  -18.1341  -54.0385 O.2       22 UNK        -0.5000 
    124 C124       -1.0701  -18.1855  -51.0415 C.3       23 UNK        -0.0398 
    125 S125       -0.1489  -16.8949  -50.1432 S.3       23 UNK        -0.2404 
    126 C126        0.1337  -17.6639  -48.5262 C.3       23 UNK        -0.0205 
    127 H127        1.8250  -19.2745  -53.0980 H         1 UNK         0.0600 
    128 H128        2.1425  -19.1724  -51.3680 H         1 UNK         0.0600 
    129 H129        3.3633  -19.8540  -52.4462 H         1 UNK         0.0600 
    130 H130        2.9123  -17.2238  -50.6176 H         1 UNK         0.3000 
    131 H131        4.5350  -15.4264  -52.2866 H         1 UNK         0.0600 
    132 H132        4.8787  -14.1302  -50.2448 H         1 UNK         0.0800 
    133 H133        3.6621  -15.0155  -49.3835 H         1 UNK         0.0800 
    134 H134        4.7931  -16.0536  -47.3958 H         1 UNK         0.0800 
    135 H135        5.8933  -17.4008  -47.5041 H         1 UNK         0.0800 
    136 H136        2.4210  -16.3159  -48.0602 H         1 UNK         0.1150 
    137 H137        0.9403  -20.2617  -48.7725 H         1 UNK         0.1150 
    138 H138        5.1631  -19.5923  -48.4392 H         1 UNK         0.1150 
    139 H139        2.4019  -22.0998  -49.0678 H         1 UNK         0.0800 
    140 H140        3.9813  -21.7066  -49.6853 H         1 UNK         0.0800 
    141 H141        2.2934  -21.2054  -46.2473 H         1 UNK         0.0800 
    142 H142        3.5075  -21.8114  -45.1758 H         1 UNK         0.0800 
    143 H143        2.5939  -24.2187  -45.9668 H         1 UNK         0.0600 
    144 H144        1.9333  -22.5852  -43.7100 H         1 UNK         0.3000 
    145 H145        0.2023  -25.0455  -41.8795 H         1 UNK         0.0600 
    146 H146        2.0922  -25.0496  -40.2724 H         1 UNK         0.0600 
    147 H147        2.4812  -26.0494  -41.6625 H         1 UNK         0.0600 
    148 H148        3.1873  -24.4443  -41.5163 H         1 UNK         0.0600 
    149 H149        1.5435  -22.6646  -41.0441 H         1 UNK         0.3000 
    150 H150       -1.2662  -20.7209  -41.0209 H         1 UNK         0.0600 
    151 H151        0.6461  -21.2199  -39.4859 H         1 UNK         0.0600 
    152 H152        0.6367  -19.5370  -39.9784 H         1 UNK         0.0600 
    153 H153        1.7918  -20.6477  -40.6981 H         1 UNK         0.0600 
    154 H154       -0.9506  -19.3498  -42.7328 H         1 UNK         0.3000 
    155 H155        1.6068  -18.8688  -45.1922 H         1 UNK         0.0600 
    156 H156       -1.1917  -20.0669  -45.0838 H         1 UNK         0.0600 
    157 H157        0.0581  -20.2777  -46.2931 H         1 UNK         0.0600 
    158 H158       -0.8602  -18.7803  -46.2167 H         1 UNK         0.0600 
    159 H159       -0.6338  -17.2859  -44.6178 H         1 UNK         0.3000 
    160 H160        0.7567  -15.0211  -42.2857 H         1 UNK         0.0600 
    161 H161        0.3150  -13.4377  -44.1957 H         1 UNK         0.0600 
    162 H162        0.4606  -14.7910  -45.3211 H         1 UNK         0.0600 
    163 H163        1.8470  -14.2839  -44.3678 H         1 UNK         0.0600 
    164 H164       -1.5904  -15.4613  -44.0538 H         1 UNK         0.3000 
    165 H165       -3.6513  -16.5351  -41.3862 H         1 UNK         0.0600 
    166 H166       -5.1248  -14.6595  -42.0639 H         1 UNK         0.0600 
    167 H167       -3.7878  -14.0528  -41.1004 H         1 UNK         0.0600 
    168 H168       -3.7723  -13.8410  -42.8472 H         1 UNK         0.0600 
    169 H169       -4.2641  -15.9308  -44.0922 H         1 UNK         0.3000 
    170 H170       -3.1707  -18.9584  -45.5724 H         1 UNK         0.0600 
    171 H171       -5.2868  -19.5961  -44.4148 H         1 UNK         0.0600 
    172 H172       -6.0037  -18.0518  -44.8646 H         1 UNK         0.0600 
    173 H173       -5.5679  -19.2237  -46.1040 H         1 UNK         0.0600 
    174 H174       -4.6329  -17.2012  -46.9436 H         1 UNK         0.3000 
    175 H175       -3.1839  -15.9917  -48.6740 H         1 UNK         0.0600 
    176 H176       -4.4678  -14.0056  -46.7016 H         1 UNK         0.0600 
    177 H177       -4.5460  -13.8179  -48.4473 H         1 UNK         0.0600 
    178 H178       -5.3058  -15.2020  -47.6873 H         1 UNK         0.0600 
    179 H179       -1.4939  -14.2574  -47.0811 H         1 UNK         0.3000 
    180 H180       -0.7406  -11.9587  -48.8225 H         1 UNK         0.0600 
    181 H181        0.9301  -14.3542  -47.8761 H         1 UNK         0.0600 
    182 H182        0.1616  -13.1125  -46.8798 H         1 UNK         0.0600 
    183 H183        1.5316  -12.6992  -47.8812 H         1 UNK         0.0600 
    184 H184        0.3109  -13.8020  -50.8174 H         1 UNK         0.3000 
    185 H185        1.1487  -12.5022  -52.8009 H         1 UNK         0.0600 
    186 H186        1.8605  -10.1209  -52.7481 H         1 UNK         0.0600 
    187 H187        3.3422  -10.5593  -51.9049 H         1 UNK         0.0600 
    188 H188        3.0599  -11.1194  -53.5525 H         1 UNK         0.0600 
    189 H189        3.8179  -12.9291  -51.6397 H         1 UNK         0.3000 
    190 H190       -0.4207  -22.9677  -44.9058 H         1 UNK         0.3000 
    191 H191       -1.8130  -22.6167  -47.3563 H         1 UNK         0.0600 
    192 H192       -2.8283  -23.5683  -44.6277 H         1 UNK         0.0600 
    193 H193       -3.8326  -22.9780  -45.9411 H         1 UNK         0.0600 
    194 H194       -2.7081  -21.8892  -45.1511 H         1 UNK         0.0600 
    195 H195       -0.7473  -25.5553  -45.7036 H         1 UNK         0.3000 
    196 H196       -2.4526  -27.4207  -47.0593 H         1 UNK         0.0600 
    197 H197       -0.7860  -29.0866  -46.2489 H         1 UNK         0.0600 
    198 H198       -1.2260  -27.9707  -44.9648 H         1 UNK         0.0600 
    199 H199        0.3176  -27.7924  -45.7978 H         1 UNK         0.0600 
    200 H200        0.5611  -25.7928  -47.9638 H         1 UNK         0.3000 
    201 H201        0.9769  -27.4524  -50.3714 H         1 UNK         0.0600 
    202 H202        2.9525  -26.6964  -49.0596 H         1 UNK         0.0600 
    203 H203        2.4956  -25.0115  -49.2999 H         1 UNK         0.0600 
    204 H204        2.9665  -26.0025  -50.6734 H         1 UNK         0.0600 
    205 H205       -0.0434  -24.1714  -49.4171 H         1 UNK         0.3000 
    206 H206       -0.4363  -23.2634  -52.1576 H         1 UNK         0.0600 
    207 H207        0.5437  -21.7537  -50.5535 H         1 UNK         0.0600 
    208 H208       -1.0325  -21.1170  -50.9694 H         1 UNK         0.0600 
    209 H209       -0.8024  -21.9473  -49.4325 H         1 UNK         0.0600 
    210 H210       -2.2214  -25.4583  -51.0685 H         1 UNK         0.3000 
    211 H211       -4.3052  -26.2112  -51.3141 H         1 UNK         0.0600 
    212 H212       -4.4731  -24.0549  -53.4859 H         1 UNK         0.0600 
    213 H213       -5.4768  -25.4954  -53.3781 H         1 UNK         0.0600 
    214 H214       -3.7537  -25.6527  -53.6773 H         1 UNK         0.0600 
    215 H215       -4.2266  -24.7951  -49.1213 H         1 UNK         0.3000 
    216 H216       -5.5010  -24.1757  -47.4696 H         1 UNK         0.0600 
    217 H217       -7.8864  -23.7071  -47.5676 H         1 UNK         0.0600 
    218 H218       -7.5581  -25.1176  -48.5613 H         1 UNK         0.0600 
    219 H219       -7.8597  -23.5490  -49.3130 H         1 UNK         0.0600 
    220 H220       -4.7215  -22.1584  -50.0983 H         1 UNK         0.3000 
    221 H221       -4.2046  -20.0219  -50.3686 H         1 UNK         0.0600 
    222 H222       -3.6088  -20.2382  -47.3789 H         1 UNK         0.0600 
    223 H223       -2.5073  -20.5669  -48.7038 H         1 UNK         0.0600 
    224 H224       -3.0392  -18.9247  -48.4028 H         1 UNK         0.0600 
    225 H225       -7.0306  -20.5047  -49.8722 H         1 UNK         0.3000 
    226 H226       -8.1926  -18.4261  -48.2968 H         1 UNK         0.0600 
    227 H227      -10.3018  -19.1730  -49.4165 H         1 UNK         0.0600 
    228 H228       -9.3712  -20.1449  -50.5504 H         1 UNK         0.0600 
    229 H229       -9.3744  -20.5468  -48.8329 H         1 UNK         0.0600 
    230 H230       -8.8337  -16.4249  -48.8157 H         1 UNK         0.3000 
    231 H231       -9.0405  -14.4487  -49.7206 H         1 UNK         0.0600 
    232 H232      -10.4173  -15.4374  -51.5437 H         1 UNK         0.0600 
    233 H233       -8.9711  -15.6895  -52.5198 H         1 UNK         0.0600 
    234 H234       -9.4778  -14.0625  -52.1035 H         1 UNK         0.0600 
    235 H235       -6.6175  -16.2660  -51.6686 H         1 UNK         0.3000 
    236 H236       -4.4465  -14.8131  -50.5788 H         1 UNK         0.0600 
    237 H237       -5.0881  -13.0557  -52.2512 H         1 UNK         0.0600 
    238 H238       -3.5822  -13.8138  -52.7276 H         1 UNK         0.0600 
    239 H239       -5.0798  -14.2582  -53.5408 H         1 UNK         0.0600 
    240 H240       -2.4449  -15.8252  -51.1080 H         1 UNK         0.3000 
    241 H241       -2.6514  -18.4810  -52.4234 H         1 UNK         0.0600 
    242 H242       -0.8477  -15.8327  -54.8027 H         1 UNK         0.3800 
    243 H243       -1.8568  -15.3315  -53.4721 H         1 UNK         0.3800 
    244 H244       -1.6658  -18.7510  -50.3285 H         1 UNK         0.0800 
    245 H245       -0.3552  -18.8966  -51.4569 H         1 UNK         0.0800 
    246 H246       -0.0038  -16.9146  -47.7459 H         1 UNK         0.0800 
    247 H247       -0.6089  -18.4402  -48.3535 H         1 UNK         0.0800 
@<TRIPOS>BOND
     1    1    2 1    
     2    1  127 1    
     3    1  128 1    
     4    1  129 1    
     5    2    3 2    
     6    2    4 am   BACKBONE|DICT|INTERRES
     7    4    5 1    
     8    4  130 1    
     9    5    6 1    
    10    5   65 1    
    11    5  131 1    
    12    6    7 1    
    13    6  132 1    
    14    6  133 1    
    15    7    8 1    
    16    8    9 1    
    17    8  134 1    
    18    8  135 1    
    19    9   10 ar   
    20    9   14 ar   
    21   10   11 ar   
    22   10  136 1    
    23   11   12 ar   
    24   11  126 1    
    25   12   13 ar   
    26   12  137 1    
    27   13   14 ar   
    28   13   15 1    
    29   14  138 1    
    30   15   16 1    
    31   15  139 1    
    32   15  140 1    
    33   16   17 1    
    34   17   18 1    
    35   17  141 1    
    36   17  142 1    
    37   18   19 1    
    38   18   67 1    
    39   18  143 1    
    40   19   20 am   BACKBONE|DICT|INTERRES
    41   19  144 1    
    42   20   21 2    
    43   20   22 1    
    44   22   23 1    
    45   22   24 1    
    46   22  145 1    
    47   23  146 1    
    48   23  147 1    
    49   23  148 1    
    50   24   25 am   BACKBONE|DICT|INTERRES
    51   24  149 1    
    52   25   26 2    
    53   25   27 1    
    54   27   28 1    
    55   27   29 1    
    56   27  150 1    
    57   28  151 1    
    58   28  152 1    
    59   28  153 1    
    60   29   30 am   BACKBONE|DICT|INTERRES
    61   29  154 1    
    62   30   31 2    
    63   30   32 1    
    64   32   33 1    
    65   32   34 1    
    66   32  155 1    
    67   33  156 1    
    68   33  157 1    
    69   33  158 1    
    70   34   35 am   BACKBONE|DICT|INTERRES
    71   34  159 1    
    72   35   36 2    
    73   35   37 1    
    74   37   38 1    
    75   37   39 1    
    76   37  160 1    
    77   38  161 1    
    78   38  162 1    
    79   38  163 1    
    80   39   40 am   BACKBONE|DICT|INTERRES
    81   39  164 1    
    82   40   41 2    
    83   40   42 1    
    84   42   43 1    
    85   42   44 1    
    86   42  165 1    
    87   43  166 1    
    88   43  167 1    
    89   43  168 1    
    90   44   45 am   BACKBONE|DICT|INTERRES
    91   44  169 1    
    92   45   46 2    
    93   45   47 1    
    94   47   48 1    
    95   47   49 1    
    96   47  170 1    
    97   48  171 1    
    98   48  172 1    
    99   48  173 1    
   100   49   50 am   BACKBONE|DICT|INTERRES
   101   49  174 1    
   102   50   51 2    
   103   50   52 1    
   104   52   53 1    
   105   52   54 1    
   106   52  175 1    
   107   53  176 1    
   108   53  177 1    
   109   53  178 1    
   110   54   55 am   BACKBONE|DICT|INTERRES
   111   54  179 1    
   112   55   56 2    
   113   55   57 1    
   114   57   58 1    
   115   57   59 1    
   116   57  180 1    
   117   58  181 1    
   118   58  182 1    
   119   58  183 1    
   120   59   60 am   BACKBONE|DICT|INTERRES
   121   59  184 1    
   122   60   61 2    
   123   60   62 1    
   124   62   63 1    
   125   62   64 1    
   126   62  185 1    
   127   63  186 1    
   128   63  187 1    
   129   63  188 1    
   130   64   65 am   BACKBONE|DICT|INTERRES
   131   64  189 1    
   132   65   66 2    
   133   67   68 2    
   134   67   69 am   BACKBONE|DICT|INTERRES
   135   69   70 1    
   136   69  190 1    
   137   70   71 1    
   138   70   72 1    
   139   70  191 1    
   140   71  192 1    
   141   71  193 1    
   142   71  194 1    
   143   72   73 2    
   144   72   74 am   BACKBONE|DICT|INTERRES
   145   74   75 1    
   146   74  195 1    
   147   75   76 1    
   148   75   77 1    
   149   75  196 1    
   150   76  197 1    
   151   76  198 1    
   152   76  199 1    
   153   77   78 2    
   154   77   79 am   BACKBONE|DICT|INTERRES
   155   79   80 1    
   156   79  200 1    
   157   80   81 1    
   158   80   82 1    
   159   80  201 1    
   160   81  202 1    
   161   81  203 1    
   162   81  204 1    
   163   82   83 2    
   164   82   84 am   BACKBONE|DICT|INTERRES
   165   84   85 1    
   166   84  205 1    
   167   85   86 1    
   168   85   87 1    
   169   85  206 1    
   170   86  207 1    
   171   86  208 1    
   172   86  209 1    
   173   87   88 2    
   174   87   89 am   BACKBONE|DICT|INTERRES
   175   89   90 1    
   176   89  210 1    
   177   90   91 1    
   178   90   92 1    
   179   90  211 1    
   180   91  212 1    
   181   91  213 1    
   182   91  214 1    
   183   92   93 2    
   184   92   94 am   BACKBONE|DICT|INTERRES
   185   94   95 1    
   186   94  215 1    
   187   95   96 1    
   188   95   97 1    
   189   95  216 1    
   190   96  217 1    
   191   96  218 1    
   192   96  219 1    
   193   97   98 2    
   194   97   99 am   BACKBONE|DICT|INTERRES
   195   99  100 1    
   196   99  220 1    
   197  100  101 1    
   198  100  102 1    
   199  100  221 1    
   200  101  222 1    
   201  101  223 1    
   202  101  224 1    
   203  102  103 2    
   204  102  104 am   BACKBONE|DICT|INTERRES
   205  104  105 1    
   206  104  225 1    
   207  105  106 1    
   208  105  107 1    
   209  105  226 1    
   210  106  227 1    
   211  106  228 1    
   212  106  229 1    
   213  107  108 2    
   214  107  109 am   BACKBONE|DICT|INTERRES
   215  109  110 1    
   216  109  230 1    
   217  110  111 1    
   218  110  112 1    
   219  110  231 1    
   220  111  232 1    
   221  111  233 1    
   222  111  234 1    
   223  112  113 2    
   224  112  114 am   BACKBONE|DICT|INTERRES
   225  114  115 1    
   226  114  235 1    
   227  115  116 1    
   228  115  117 1    
   229  115  236 1    
   230  116  237 1    
   231  116  238 1    
   232  116  239 1    
   233  117  118 2    
   234  117  119 am   BACKBONE|DICT|INTERRES
   235  119  120 1    
   236  119  240 1    
   237  120  121 1    
   238  120  124 1    
   239  120  241 1    
   240  121  122 am   BACKBONE|DICT|INTERRES
   241  121  123 2    
   242  122  242 1    
   243  122  243 1    
   244  124  125 1    
   245  124  244 1    
   246  124  245 1    
   247  125  126 1    
   248  126  246 1    
   249  126  247 1    
@<TRIPOS>SUBSTRUCTURE
     1 UNK         1 GROUP             0       ****    0 ROOT    
