@<TRIPOS>MOLECULE
3R540
247   249    1
SMALL
USER_CHARGES


@<TRIPOS>ATOM
      1 CA          7.0728  -17.0194  -46.9647 C.3       0 UNK        -0.1800 
      2 C           5.8825  -16.3623  -46.2819 C.2       0 UNK         0.5000 
      3 O           5.7267  -16.4839  -45.0665 O.2       0 UNK        -0.5000 
      4 N           5.0440  -15.6607  -47.0537 N.am      1 UNK        -0.5000 
      5 CA          3.8406  -14.9560  -46.5995 C.3       1 UNK         0.1400 
      6 C6          2.7602  -14.8667  -47.7126 C.3       23 UNK        -0.0398 
      7 S7          3.3463  -14.2215  -49.3153 S.3       23 UNK        -0.2404 
      8 C8          1.7582  -13.7431  -50.0858 C.3       23 UNK        -0.0205 
      9 C9          0.8495  -14.8888  -50.5456 C.ar      23 UNK        -0.0193 
     10 C10        -0.4742  -14.5847  -50.8893 C.ar      23 UNK        -0.1150 
     11 C11        -1.3337  -15.5711  -51.3834 C.ar      23 UNK        -0.0193 
     12 C12        -0.8580  -16.8725  -51.5399 C.ar      23 UNK        -0.1150 
     13 C13         0.4391  -17.2103  -51.1538 C.ar      23 UNK        -0.0193 
     14 C14         1.2938  -16.2142  -50.6726 C.ar      23 UNK        -0.1150 
     15 C15         0.9014  -18.6571  -51.2499 C.3       23 UNK        -0.0205 
     16 S16         0.6714  -19.5483  -49.6761 S.3       23 UNK        -0.2404 
     17 C17        -1.1151  -19.3377  -49.3678 C.3       23 UNK        -0.0398 
     18 CA         -1.7571  -20.5339  -48.6354 C.3       11 UNK         0.1400 
     19 N          -1.1458  -20.7914  -47.3340 N.am      11 UNK        -0.5000 
     20 C          -1.1568  -21.9643  -46.6921 C.2       10 UNK         0.5000 
     21 O          -1.6156  -22.9999  -47.1804 O.2       10 UNK        -0.5000 
     22 CA         -0.5939  -21.9524  -45.2549 C.3       10 UNK         0.1400 
     23 CB         -0.0581  -23.3286  -44.8091 C.3       10 UNK        -0.1800 
     24 N           0.3830  -20.8744  -45.0368 N.am      10 UNK        -0.5000 
     25 C           1.6205  -20.7764  -45.5491 C.2       9 UNK         0.5000 
     26 O           2.1694  -21.6637  -46.1995 O.2       9 UNK        -0.5000 
     27 CA          2.3776  -19.4529  -45.3215 C.3       9 UNK         0.1400 
     28 CB          2.4046  -18.6251  -46.6135 C.3       9 UNK        -0.1800 
     29 N           1.8262  -18.6247  -44.2487 N.am      9 UNK        -0.5000 
     30 C           1.9668  -18.8812  -42.9413 C.2       8 UNK         0.5000 
     31 O           2.5719  -19.8545  -42.4913 O.2       8 UNK        -0.5000 
     32 CA          1.2986  -17.8857  -41.9797 C.3       8 UNK         0.1400 
     33 CB          2.2033  -16.6615  -41.7694 C.3       8 UNK        -0.1800 
     34 N          -0.0131  -17.4638  -42.4781 N.am      8 UNK        -0.5000 
     35 C          -1.1237  -18.2104  -42.3805 C.2       7 UNK         0.5000 
     36 O          -1.1626  -19.2974  -41.8045 O.2       7 UNK        -0.5000 
     37 CA         -2.4028  -17.6788  -43.0546 C.3       7 UNK         0.1400 
     38 CB         -3.2536  -16.8800  -42.0577 C.3       7 UNK        -0.1800 
     39 N          -2.1291  -16.8500  -44.2282 N.am      7 UNK        -0.5000 
     40 C          -1.7326  -17.3297  -45.4151 C.2       6 UNK         0.5000 
     41 O          -1.6232  -18.5311  -45.6620 O.2       6 UNK        -0.5000 
     42 CA         -1.3660  -16.3052  -46.5064 C.3       6 UNK         0.1400 
     43 CB         -2.5565  -16.0472  -47.4398 C.3       6 UNK        -0.1800 
     44 N          -0.8915  -15.0273  -45.9767 N.am      6 UNK        -0.5000 
     45 C           0.1825  -14.8783  -45.1933 C.2       5 UNK         0.5000 
     46 O           0.8916  -15.8194  -44.8322 O.2       5 UNK        -0.5000 
     47 CA          0.5366  -13.4554  -44.7373 C.3       5 UNK         0.1400 
     48 CB         -0.3098  -12.3347  -45.3825 C.3       5 UNK        -0.1800 
     49 N           0.5431  -13.3512  -43.2822 N.am      5 UNK        -0.5000 
     50 C          -0.5003  -13.4340  -42.4465 C.2       4 UNK         0.5000 
     51 O          -1.6419  -13.7153  -42.8139 O.2       4 UNK        -0.5000 
     52 CA         -0.2320  -13.1530  -40.9496 C.3       4 UNK         0.1400 
     53 CB         -0.7122  -14.3170  -40.0665 C.3       4 UNK        -0.1800 
     54 N           1.1745  -12.8620  -40.6445 N.am      4 UNK        -0.5000 
     55 C           1.8045  -11.7060  -40.9041 C.2       3 UNK         0.5000 
     56 O           1.2485  -10.7212  -41.3918 O.2       3 UNK        -0.5000 
     57 CA          3.3181  -11.6401  -40.6037 C.3       3 UNK         0.1400 
     58 CB          3.7926  -12.6895  -39.5724 C.3       3 UNK        -0.1800 
     59 N           4.1360  -11.7166  -41.8232 N.am      3 UNK        -0.5000 
     60 C           4.1408  -12.7082  -42.7260 C.2       2 UNK         0.5000 
     61 O           3.3857  -13.6808  -42.6667 O.2       2 UNK        -0.5000 
     62 CA          5.1744  -12.6076  -43.8667 C.3       2 UNK         0.1400 
     63 CB          6.6053  -12.7429  -43.3200 C.3       2 UNK        -0.1800 
     64 N           4.9562  -13.6796  -44.8370 N.am      2 UNK        -0.5000 
     65 C           4.1716  -13.6076  -45.9165 C.2       1 UNK         0.5000 
     66 O           3.7008  -12.5523  -46.3435 O.2       1 UNK        -0.5000 
     67 C          -3.2706  -20.3009  -48.4720 C.2       11 UNK         0.5000 
     68 O          -4.0388  -20.7290  -49.3293 O.2       11 UNK        -0.5000 
     69 N          -3.6861  -19.6820  -47.3547 N.am      12 UNK        -0.5000 
     70 CA         -5.0958  -19.4855  -46.9933 C.3       12 UNK         0.1400 
     71 CB         -5.1971  -18.4828  -45.8351 C.3       12 UNK        -0.1800 
     72 C          -5.7941  -20.8076  -46.6211 C.2       12 UNK         0.5000 
     73 O          -6.9971  -20.9490  -46.8370 O.2       12 UNK        -0.5000 
     74 N          -5.0066  -21.7656  -46.1125 N.am      13 UNK        -0.5000 
     75 CA         -5.4017  -23.1557  -45.8791 C.3       13 UNK         0.1400 
     76 CB         -4.4415  -23.7665  -44.8448 C.3       13 UNK        -0.1800 
     77 C          -5.4090  -23.9987  -47.1731 C.2       13 UNK         0.5000 
     78 O          -5.8084  -25.1617  -47.1294 O.2       13 UNK        -0.5000 
     79 N          -4.9371  -23.4133  -48.2856 N.am      14 UNK        -0.5000 
     80 CA         -4.8104  -23.9570  -49.6415 C.3       14 UNK         0.1400 
     81 CB         -6.1619  -24.4904  -50.1507 C.3       14 UNK        -0.1800 
     82 C          -3.6796  -24.9907  -49.8146 C.2       14 UNK         0.5000 
     83 O          -3.3629  -25.3391  -50.9524 O.2       14 UNK        -0.5000 
     84 N          -3.0677  -25.4401  -48.7117 N.am      15 UNK        -0.5000 
     85 CA         -2.0272  -26.4670  -48.6624 C.3       15 UNK         0.1400 
     86 CB         -1.7241  -26.8002  -47.1934 C.3       15 UNK        -0.1800 
     87 C          -0.7414  -26.0664  -49.4039 C.2       15 UNK         0.5000 
     88 O          -0.1799  -26.8830  -50.1345 O.2       15 UNK        -0.5000 
     89 N          -0.3222  -24.8073  -49.2291 N.am      16 UNK        -0.5000 
     90 CA          0.8469  -24.2259  -49.8941 C.3       16 UNK         0.1400 
     91 CB          1.5364  -23.2606  -48.9210 C.3       16 UNK        -0.1800 
     92 C           0.4897  -23.5172  -51.2165 C.2       16 UNK         0.5000 
     93 O           1.3651  -22.8982  -51.8222 O.2       16 UNK        -0.5000 
     94 N          -0.7771  -23.6050  -51.6413 N.am      17 UNK        -0.5000 
     95 CA         -1.3265  -22.9138  -52.8046 C.3       17 UNK         0.1400 
     96 CB         -2.0907  -21.6695  -52.3289 C.3       17 UNK        -0.1800 
     97 C          -2.1695  -23.8716  -53.6626 C.2       17 UNK         0.5000 
     98 O          -3.2593  -23.5093  -54.1115 O.2       17 UNK        -0.5000 
     99 N          -1.6353  -25.0861  -53.8647 N.am      18 UNK        -0.5000 
    100 CA        -2.0621  -26.1149  -54.8240 C.3       18 UNK         0.1400 
    101 CB        -1.6811  -25.6679  -56.2510 C.3       18 UNK        -0.1800 
    102 C         -3.5432  -26.5447  -54.7290 C.2       18 UNK         0.5000 
    103 O         -4.1269  -26.9389  -55.7399 O.2       18 UNK        -0.5000 
    104 N         -4.1314  -26.4402  -53.5281 N.am      19 UNK        -0.5000 
    105 CA        -5.5473  -26.6638  -53.2105 C.3       19 UNK         0.1400 
    106 CB        -5.9680  -28.1200  -53.5006 C.3       19 UNK        -0.1800 
    107 C         -6.5076  -25.6307  -53.8489 C.2       19 UNK         0.5000 
    108 O         -7.7212  -25.8411  -53.8205 O.2       19 UNK        -0.5000 
    109 N         -5.9661  -24.5306  -54.3906 N.am      20 UNK        -0.5000 
    110 CA        -6.7134  -23.4490  -55.0331 C.3       20 UNK         0.1400 
    111 CB        -5.9965  -23.0602  -56.3357 C.3       20 UNK        -0.1800 
    112 C         -6.8536  -22.2210  -54.1166 C.2       20 UNK         0.5000 
    113 O         -7.8501  -21.5048  -54.2260 O.2       20 UNK        -0.5000 
    114 N         -5.8648  -22.0044  -53.2350 N.am      21 UNK        -0.5000 
    115 CA        -5.7325  -20.8584  -52.3262 C.3       21 UNK         0.1400 
    116 CB        -6.8946  -20.8106  -51.3081 C.3       21 UNK        -0.1800 
    117 C         -5.5143  -19.5252  -53.0773 C.2       21 UNK         0.5000 
    118 O         -5.0785  -19.5319  -54.2311 O.2       21 UNK        -0.5000 
    119 N         -5.7919  -18.4017  -52.4044 N.am      22 UNK        -0.5000 
    120 CA        -5.6849  -17.0392  -52.9590 C.3       22 UNK         0.1400 
    121 C         -6.8525  -16.6333  -53.9093 C.2       22 UNK         0.5000 
    122 N         -7.8845  -17.4479  -54.0950 N.am      22 UNK        -0.7600 
    123 O         -6.8176  -15.5572  -54.4998 O.2       22 UNK        -0.5000 
    124 C124       -5.4789  -15.9749  -51.8476 C.3       23 UNK        -0.0398 
    125 S125       -3.9720  -16.2667  -50.8615 S.3       23 UNK        -0.2404 
    126 C126       -2.7680  -15.2443  -51.7753 C.3       23 UNK        -0.0205 
    127 H127        7.0786  -16.8316  -48.0386 H         1 UNK         0.0600 
    128 H128        8.0035  -16.6359  -46.5467 H         1 UNK         0.0600 
    129 H129        7.0458  -18.0977  -46.8081 H         1 UNK         0.0600 
    130 H130        5.2396  -15.5674  -48.0408 H         1 UNK         0.3000 
    131 H131        3.3932  -15.5566  -45.8049 H         1 UNK         0.0600 
    132 H132        1.9175  -14.2608  -47.3815 H         1 UNK         0.0800 
    133 H133        2.3479  -15.8601  -47.8918 H         1 UNK         0.0800 
    134 H134        1.9843  -13.1275  -50.9574 H         1 UNK         0.0800 
    135 H135        1.2138  -13.0992  -49.3933 H         1 UNK         0.0800 
    136 H136       -0.8311  -13.5690  -50.7897 H         1 UNK         0.1150 
    137 H137       -1.5167  -17.6302  -51.9396 H         1 UNK         0.1150 
    138 H138        2.3042  -16.4856  -50.4056 H         1 UNK         0.1150 
    139 H139        0.3651  -19.1788  -52.0438 H         1 UNK         0.0800 
    140 H140        1.9568  -18.6911  -51.5238 H         1 UNK         0.0800 
    141 H141       -1.6220  -19.1970  -50.3215 H         1 UNK         0.0800 
    142 H142       -1.2514  -18.4128  -48.8072 H         1 UNK         0.0800 
    143 H143       -1.6266  -21.4198  -49.2613 H         1 UNK         0.0600 
    144 H144       -0.8027  -19.9821  -46.8311 H         1 UNK         0.3000 
    145 H145       -1.4402  -21.7131  -44.6096 H         1 UNK         0.0600 
    146 H146        0.3666  -23.2816  -43.8065 H         1 UNK         0.0600 
    147 H147       -0.8586  -24.0687  -44.7879 H         1 UNK         0.0600 
    148 H148        0.7099  -23.7064  -45.4843 H         1 UNK         0.0600 
    149 H149        0.0348  -20.0727  -44.5294 H         1 UNK         0.3000 
    150 H150        3.4074  -19.7097  -45.0640 H         1 UNK         0.0600 
    151 H151        2.7918  -19.2100  -47.4488 H         1 UNK         0.0600 
    152 H152        3.0542  -17.7602  -46.5034 H         1 UNK         0.0600 
    153 H153        1.4106  -18.2719  -46.8891 H         1 UNK         0.0600 
    154 H154        1.3639  -17.7639  -44.5228 H         1 UNK         0.3000 
    155 H155        1.1709  -18.3796  -41.0140 H         1 UNK         0.0600 
    156 H156        2.3722  -16.1195  -42.6994 H         1 UNK         0.0600 
    157 H157        3.1810  -16.9611  -41.3902 H         1 UNK         0.0600 
    158 H158        1.7811  -15.9655  -41.0478 H         1 UNK         0.0600 
    159 H159       -0.0343  -16.6187  -43.0333 H         1 UNK         0.3000 
    160 H160       -2.9836  -18.5473  -43.3701 H         1 UNK         0.0600 
    161 H161       -4.1983  -16.5715  -42.5057 H         1 UNK         0.0600 
    162 H162       -2.7366  -15.9839  -41.7164 H         1 UNK         0.0600 
    163 H163       -3.4911  -17.4784  -41.1773 H         1 UNK         0.0600 
    164 H164       -2.1872  -15.8482  -44.1012 H         1 UNK         0.3000 
    165 H165       -0.5564  -16.7373  -47.0978 H         1 UNK         0.0600 
    166 H166       -2.9454  -16.9755  -47.8577 H         1 UNK         0.0600 
    167 H167       -3.3777  -15.5532  -46.9194 H         1 UNK         0.0600 
    168 H168       -2.2652  -15.4167  -48.2804 H         1 UNK         0.0600 
    169 H169       -1.4316  -14.2087  -46.2172 H         1 UNK         0.3000 
    170 H170        1.5656  -13.2905  -45.0404 H         1 UNK         0.0600 
    171 H171       -0.2185  -12.3499  -46.4694 H         1 UNK         0.0600 
    172 H172       -1.3686  -12.4135  -45.1345 H         1 UNK         0.0600 
    173 H173        0.0320  -11.3544  -45.0498 H         1 UNK         0.0600 
    174 H174        1.4651  -13.2480  -42.8698 H         1 UNK         0.3000 
    175 H175       -0.8217  -12.2730  -40.6849 H         1 UNK         0.0600 
    176 H176       -0.4771  -14.1423  -39.0165 H         1 UNK         0.0600 
    177 H177       -1.7941  -14.4325  -40.1355 H         1 UNK         0.0600 
    178 H178       -0.2659  -15.2663  -40.3592 H         1 UNK         0.0600 
    179 H179        1.7230  -13.6273  -40.2803 H         1 UNK         0.3000 
    180 H180        3.4979  -10.6549  -40.1706 H         1 UNK         0.0600 
    181 H181        3.7153  -13.7103  -39.9483 H         1 UNK         0.0600 
    182 H182        3.2096  -12.6281  -38.6525 H         1 UNK         0.0600 
    183 H183        4.8348  -12.5206  -39.3015 H         1 UNK         0.0600 
    184 H184        4.7633  -10.9377  -41.9671 H         1 UNK         0.3000 
    185 H185        5.0673  -11.6343  -44.3497 H         1 UNK         0.0600 
    186 H186        6.7456  -13.6863  -42.7904 H         1 UNK         0.0600 
    187 H187        7.3389  -12.7005  -44.1254 H         1 UNK         0.0600 
    188 H188        6.8438  -11.9370  -42.6251 H         1 UNK         0.0600 
    189 H189        5.2679  -14.6044  -44.5567 H         1 UNK         0.3000 
    190 H190       -2.9915  -19.3551  -46.6896 H         1 UNK         0.3000 
    191 H191       -5.6158  -19.0655  -47.8572 H         1 UNK         0.0600 
    192 H192       -4.7691  -17.5184  -46.1049 H         1 UNK         0.0600 
    193 H193       -4.6836  -18.8453  -44.9452 H         1 UNK         0.0600 
    194 H194       -6.2383  -18.3066  -45.5622 H         1 UNK         0.0600 
    195 H195       -4.0335  -21.5469  -45.9657 H         1 UNK         0.3000 
    196 H196       -6.4126  -23.1737  -45.4665 H         1 UNK         0.0600 
    197 H197       -4.7373  -24.7849  -44.5896 H         1 UNK         0.0600 
    198 H198       -4.4382  -23.1905  -43.9193 H         1 UNK         0.0600 
    199 H199       -3.4181  -23.8087  -45.2186 H         1 UNK         0.0600 
    200 H200       -4.6373  -22.4501  -48.2081 H         1 UNK         0.3000 
    201 H201       -4.5431  -23.1095  -50.2716 H         1 UNK         0.0600 
    202 H202       -6.9939  -23.8783  -49.8034 H         1 UNK         0.0600 
    203 H203       -6.3463  -25.5142  -49.8230 H         1 UNK         0.0600 
    204 H204       -6.1904  -24.4728  -51.2379 H         1 UNK         0.0600 
    205 H205       -3.3698  -25.0652  -47.8249 H         1 UNK         0.3000 
    206 H206       -2.4230  -27.3636  -49.1440 H         1 UNK         0.0600 
    207 H207       -2.6135  -27.1673  -46.6810 H         1 UNK         0.0600 
    208 H208       -0.9614  -27.5762  -47.1173 H         1 UNK         0.0600 
    209 H209       -1.3609  -25.9269  -46.6495 H         1 UNK         0.0600 
    210 H210       -0.8404  -24.2023  -48.5978 H         1 UNK         0.3000 
    211 H211        1.5620  -25.0145  -50.1369 H         1 UNK         0.0600 
    212 H212        0.9070  -22.4012  -48.6955 H         1 UNK         0.0600 
    213 H213        2.4694  -22.8782  -49.3362 H         1 UNK         0.0600 
    214 H214        1.7797  -23.7548  -47.9804 H         1 UNK         0.0600 
    215 H215       -1.4235  -24.1911  -51.1279 H         1 UNK         0.3000 
    216 H216       -0.5220  -22.5766  -53.4611 H         1 UNK         0.0600 
    217 H217       -2.6073  -21.1696  -53.1493 H         1 UNK         0.0600 
    218 H218       -1.4050  -20.9452  -51.8931 H         1 UNK         0.0600 
    219 H219       -2.8231  -21.9333  -51.5686 H         1 UNK         0.0600 
    220 H220       -0.7696  -25.2868  -53.3839 H         1 UNK         0.3000 
    221 H221       -1.4796  -27.0072  -54.5908 H         1 UNK         0.0600 
    222 H222       -2.2667  -24.8047  -56.5697 H         1 UNK         0.0600 
    223 H223       -0.6267  -25.3985  -56.3123 H         1 UNK         0.0600 
    224 H224       -1.8499  -26.4657  -56.9753 H         1 UNK         0.0600 
    225 H225       -3.5804  -26.0770  -52.7545 H         1 UNK         0.3000 
    226 H226       -5.6273  -26.5272  -52.1330 H         1 UNK         0.0600 
    227 H227       -5.2704  -28.8289  -53.0545 H         1 UNK         0.0600 
    228 H228       -6.0203  -28.3257  -54.5698 H         1 UNK         0.0600 
    229 H229       -6.9530  -28.3312  -53.0831 H         1 UNK         0.0600 
    230 H230       -4.9575  -24.4146  -54.3544 H         1 UNK         0.3000 
    231 H231       -7.7189  -23.7868  -55.2919 H         1 UNK         0.0600 
    232 H232       -5.9224  -23.9112  -57.0130 H         1 UNK         0.0600 
    233 H233       -4.9865  -22.6941  -56.1466 H         1 UNK         0.0600 
    234 H234       -6.5386  -22.2719  -56.8594 H         1 UNK         0.0600 
    235 H235       -5.0512  -22.6034  -53.3020 H         1 UNK         0.3000 
    236 H236       -4.8215  -21.0315  -51.7618 H         1 UNK         0.0600 
    237 H237       -6.6649  -20.1443  -50.4759 H         1 UNK         0.0600 
    238 H238       -7.8242  -20.4667  -51.7622 H         1 UNK         0.0600 
    239 H239       -7.0809  -21.7930  -50.8783 H         1 UNK         0.0600 
    240 H240       -6.1277  -18.4687  -51.4552 H         1 UNK         0.3000 
    241 H241       -4.7922  -17.0152  -53.5869 H         1 UNK         0.0600 
    242 H242       -7.9186  -18.3480  -53.6436 H         1 UNK         0.3800 
    243 H243       -8.6279  -17.1715  -54.7171 H         1 UNK         0.3800 
    244 H244       -5.4238  -14.9705  -52.2715 H         1 UNK         0.0800 
    245 H245       -6.3342  -15.9674  -51.1703 H         1 UNK         0.0800 
    246 H246       -2.9898  -14.1906  -51.5999 H         1 UNK         0.0800 
    247 H247       -2.8814  -15.4152  -52.8467 H         1 UNK         0.0800 
@<TRIPOS>BOND
     1    1    2 1    
     2    1  127 1    
     3    1  128 1    
     4    1  129 1    
     5    2    3 2    
     6    2    4 am   BACKBONE|DICT|INTERRES
     7    4    5 1    
     8    4  130 1    
     9    5    6 1    
    10    5   65 1    
    11    5  131 1    
    12    6    7 1    
    13    6  132 1    
    14    6  133 1    
    15    7    8 1    
    16    8    9 1    
    17    8  134 1    
    18    8  135 1    
    19    9   10 ar   
    20    9   14 ar   
    21   10   11 ar   
    22   10  136 1    
    23   11   12 ar   
    24   11  126 1    
    25   12   13 ar   
    26   12  137 1    
    27   13   14 ar   
    28   13   15 1    
    29   14  138 1    
    30   15   16 1    
    31   15  139 1    
    32   15  140 1    
    33   16   17 1    
    34   17   18 1    
    35   17  141 1    
    36   17  142 1    
    37   18   19 1    
    38   18   67 1    
    39   18  143 1    
    40   19   20 am   BACKBONE|DICT|INTERRES
    41   19  144 1    
    42   20   21 2    
    43   20   22 1    
    44   22   23 1    
    45   22   24 1    
    46   22  145 1    
    47   23  146 1    
    48   23  147 1    
    49   23  148 1    
    50   24   25 am   BACKBONE|DICT|INTERRES
    51   24  149 1    
    52   25   26 2    
    53   25   27 1    
    54   27   28 1    
    55   27   29 1    
    56   27  150 1    
    57   28  151 1    
    58   28  152 1    
    59   28  153 1    
    60   29   30 am   BACKBONE|DICT|INTERRES
    61   29  154 1    
    62   30   31 2    
    63   30   32 1    
    64   32   33 1    
    65   32   34 1    
    66   32  155 1    
    67   33  156 1    
    68   33  157 1    
    69   33  158 1    
    70   34   35 am   BACKBONE|DICT|INTERRES
    71   34  159 1    
    72   35   36 2    
    73   35   37 1    
    74   37   38 1    
    75   37   39 1    
    76   37  160 1    
    77   38  161 1    
    78   38  162 1    
    79   38  163 1    
    80   39   40 am   BACKBONE|DICT|INTERRES
    81   39  164 1    
    82   40   41 2    
    83   40   42 1    
    84   42   43 1    
    85   42   44 1    
    86   42  165 1    
    87   43  166 1    
    88   43  167 1    
    89   43  168 1    
    90   44   45 am   BACKBONE|DICT|INTERRES
    91   44  169 1    
    92   45   46 2    
    93   45   47 1    
    94   47   48 1    
    95   47   49 1    
    96   47  170 1    
    97   48  171 1    
    98   48  172 1    
    99   48  173 1    
   100   49   50 am   BACKBONE|DICT|INTERRES
   101   49  174 1    
   102   50   51 2    
   103   50   52 1    
   104   52   53 1    
   105   52   54 1    
   106   52  175 1    
   107   53  176 1    
   108   53  177 1    
   109   53  178 1    
   110   54   55 am   BACKBONE|DICT|INTERRES
   111   54  179 1    
   112   55   56 2    
   113   55   57 1    
   114   57   58 1    
   115   57   59 1    
   116   57  180 1    
   117   58  181 1    
   118   58  182 1    
   119   58  183 1    
   120   59   60 am   BACKBONE|DICT|INTERRES
   121   59  184 1    
   122   60   61 2    
   123   60   62 1    
   124   62   63 1    
   125   62   64 1    
   126   62  185 1    
   127   63  186 1    
   128   63  187 1    
   129   63  188 1    
   130   64   65 am   BACKBONE|DICT|INTERRES
   131   64  189 1    
   132   65   66 2    
   133   67   68 2    
   134   67   69 am   BACKBONE|DICT|INTERRES
   135   69   70 1    
   136   69  190 1    
   137   70   71 1    
   138   70   72 1    
   139   70  191 1    
   140   71  192 1    
   141   71  193 1    
   142   71  194 1    
   143   72   73 2    
   144   72   74 am   BACKBONE|DICT|INTERRES
   145   74   75 1    
   146   74  195 1    
   147   75   76 1    
   148   75   77 1    
   149   75  196 1    
   150   76  197 1    
   151   76  198 1    
   152   76  199 1    
   153   77   78 2    
   154   77   79 am   BACKBONE|DICT|INTERRES
   155   79   80 1    
   156   79  200 1    
   157   80   81 1    
   158   80   82 1    
   159   80  201 1    
   160   81  202 1    
   161   81  203 1    
   162   81  204 1    
   163   82   83 2    
   164   82   84 am   BACKBONE|DICT|INTERRES
   165   84   85 1    
   166   84  205 1    
   167   85   86 1    
   168   85   87 1    
   169   85  206 1    
   170   86  207 1    
   171   86  208 1    
   172   86  209 1    
   173   87   88 2    
   174   87   89 am   BACKBONE|DICT|INTERRES
   175   89   90 1    
   176   89  210 1    
   177   90   91 1    
   178   90   92 1    
   179   90  211 1    
   180   91  212 1    
   181   91  213 1    
   182   91  214 1    
   183   92   93 2    
   184   92   94 am   BACKBONE|DICT|INTERRES
   185   94   95 1    
   186   94  215 1    
   187   95   96 1    
   188   95   97 1    
   189   95  216 1    
   190   96  217 1    
   191   96  218 1    
   192   96  219 1    
   193   97   98 2    
   194   97   99 am   BACKBONE|DICT|INTERRES
   195   99  100 1    
   196   99  220 1    
   197  100  101 1    
   198  100  102 1    
   199  100  221 1    
   200  101  222 1    
   201  101  223 1    
   202  101  224 1    
   203  102  103 2    
   204  102  104 am   BACKBONE|DICT|INTERRES
   205  104  105 1    
   206  104  225 1    
   207  105  106 1    
   208  105  107 1    
   209  105  226 1    
   210  106  227 1    
   211  106  228 1    
   212  106  229 1    
   213  107  108 2    
   214  107  109 am   BACKBONE|DICT|INTERRES
   215  109  110 1    
   216  109  230 1    
   217  110  111 1    
   218  110  112 1    
   219  110  231 1    
   220  111  232 1    
   221  111  233 1    
   222  111  234 1    
   223  112  113 2    
   224  112  114 am   BACKBONE|DICT|INTERRES
   225  114  115 1    
   226  114  235 1    
   227  115  116 1    
   228  115  117 1    
   229  115  236 1    
   230  116  237 1    
   231  116  238 1    
   232  116  239 1    
   233  117  118 2    
   234  117  119 am   BACKBONE|DICT|INTERRES
   235  119  120 1    
   236  119  240 1    
   237  120  121 1    
   238  120  124 1    
   239  120  241 1    
   240  121  122 am   BACKBONE|DICT|INTERRES
   241  121  123 2    
   242  122  242 1    
   243  122  243 1    
   244  124  125 1    
   245  124  244 1    
   246  124  245 1    
   247  125  126 1    
   248  126  246 1    
   249  126  247 1    
@<TRIPOS>SUBSTRUCTURE
     1 UNK         1 GROUP             0       ****    0 ROOT    
