@<TRIPOS>MOLECULE
3R540
247   249    1
SMALL
USER_CHARGES


@<TRIPOS>ATOM
      1 CA         -0.9887  -12.3118  -45.3072 C.3       0 UNK        -0.1800 
      2 C          -0.0767  -11.4805  -46.1941 C.2       0 UNK         0.5000 
      3 O          -0.4884  -10.4284  -46.6844 O.2       0 UNK        -0.5000 
      4 N           1.1633  -11.9398  -46.3963 N.am      1 UNK        -0.5000 
      5 CA          2.1894  -11.2557  -47.1878 C.3       1 UNK         0.1400 
      6 C6          3.1617  -12.2528  -47.8657 C.3       23 UNK        -0.0398 
      7 S7          2.3263  -13.2436  -49.1483 S.3       23 UNK        -0.2404 
      8 C8          2.0256  -14.7884  -48.2368 C.3       23 UNK        -0.0205 
      9 C9          0.9972  -15.6626  -48.9341 C.ar      23 UNK        -0.0193 
     10 C10        -0.3327  -15.2418  -49.0169 C.ar      23 UNK        -0.1150 
     11 C11        -1.3099  -16.0468  -49.6089 C.ar      23 UNK        -0.0193 
     12 C12        -0.9278  -17.2883  -50.1348 C.ar      23 UNK        -0.1150 
     13 C13         0.4026  -17.7140  -50.0793 C.ar      23 UNK        -0.0193 
     14 C14         1.3612  -16.8983  -49.4731 C.ar      23 UNK        -0.1150 
     15 C15         0.8107  -19.0440  -50.6963 C.3       23 UNK        -0.0205 
     16 S16         1.0154  -20.3498  -49.4470 S.3       23 UNK        -0.2404 
     17 C17        -0.7130  -20.6383  -48.9499 C.3       23 UNK        -0.0398 
     18 CA         -0.8565  -21.9012  -48.0715 C.3       11 UNK         0.1400 
     19 N          -0.2376  -21.7503  -46.7500 N.am      11 UNK        -0.5000 
     20 C          -0.0826  -22.7500  -45.8699 C.2       10 UNK         0.5000 
     21 O          -0.3909  -23.9183  -46.1037 O.2       10 UNK        -0.5000 
     22 CA          0.4620  -22.3826  -44.4780 C.3       10 UNK         0.1400 
     23 CB          1.9911  -22.2406  -44.5046 C.3       10 UNK        -0.1800 
     24 N          -0.1447  -21.1657  -43.9369 N.am      10 UNK        -0.5000 
     25 C          -1.4443  -21.0362  -43.6328 C.2       9 UNK         0.5000 
     26 O          -2.2620  -21.9494  -43.7341 O.2       9 UNK        -0.5000 
     27 CA         -1.9266  -19.6434  -43.1864 C.3       9 UNK         0.1400 
     28 CB         -1.6190  -19.4031  -41.7015 C.3       9 UNK        -0.1800 
     29 N          -1.3562  -18.5638  -43.9916 N.am      9 UNK        -0.5000 
     30 C          -1.5527  -18.4163  -45.3101 C.2       8 UNK         0.5000 
     31 O          -2.2766  -19.1491  -45.9833 O.2       8 UNK        -0.5000 
     32 CA         -0.7626  -17.2929  -46.0000 C.3       8 UNK         0.1400 
     33 CB         -1.4596  -15.9397  -45.8046 C.3       8 UNK        -0.1800 
     34 N           0.6189  -17.2163  -45.5222 N.am      8 UNK        -0.5000 
     35 C           1.5271  -18.1853  -45.7090 C.2       7 UNK         0.5000 
     36 O           1.3006  -19.2262  -46.3232 O.2       7 UNK        -0.5000 
     37 CA          2.8949  -17.9893  -45.0336 C.3       7 UNK         0.1400 
     38 CB          3.7777  -17.0222  -45.8348 C.3       7 UNK        -0.1800 
     39 N           2.7619  -17.5087  -43.6589 N.am      7 UNK        -0.5000 
     40 C           2.2337  -18.2274  -42.6576 C.2       6 UNK         0.5000 
     41 O           1.8497  -19.3891  -42.7807 O.2       6 UNK        -0.5000 
     42 CA          2.0713  -17.5198  -41.3002 C.3       6 UNK         0.1400 
     43 CB          3.3259  -17.7189  -40.4373 C.3       6 UNK        -0.1800 
     44 N           1.7954  -16.0880  -41.4250 N.am      6 UNK        -0.5000 
     45 C           0.7061  -15.5576  -42.0010 C.2       5 UNK         0.5000 
     46 O          -0.2025  -16.2279  -42.4919 O.2       5 UNK        -0.5000 
     47 CA          0.6547  -14.0202  -42.0784 C.3       5 UNK         0.1400 
     48 CB         -0.0212  -13.4348  -40.8307 C.3       5 UNK        -0.1800 
     49 N           1.9881  -13.4337  -42.2269 N.am      5 UNK        -0.5000 
     50 C           2.7435  -13.5170  -43.3287 C.2       4 UNK         0.5000 
     51 O           2.3363  -13.9615  -44.4057 O.2       4 UNK        -0.5000 
     52 CA          4.1962  -13.0297  -43.1717 C.3       4 UNK         0.1400 
     53 CB          5.1021  -13.4284  -44.3478 C.3       4 UNK        -0.1800 
     54 N           4.2542  -11.5822  -42.9734 N.am      4 UNK        -0.5000 
     55 C           4.0762  -10.9683  -41.7941 C.2       3 UNK         0.5000 
     56 O           3.8258  -11.5746  -40.7507 O.2       3 UNK        -0.5000 
     57 CA          4.1899   -9.4309  -41.7607 C.3       3 UNK         0.1400 
     58 CB          5.5965   -9.0081  -41.3103 C.3       3 UNK        -0.1800 
     59 N           3.8934   -8.7982  -43.0458 N.am      3 UNK        -0.5000 
     60 C           2.6725   -8.7179  -43.5890 C.2       2 UNK         0.5000 
     61 O           1.6515   -9.1303  -43.0364 O.2       2 UNK        -0.5000 
     62 CA          2.5635   -8.1063  -45.0002 C.3       2 UNK         0.1400 
     63 CB          3.8123   -7.3177  -45.4571 C.3       2 UNK        -0.1800 
     64 N           2.2078   -9.1403  -45.9740 N.am      2 UNK        -0.5000 
     65 C           2.9047  -10.2468  -46.2707 C.2       1 UNK         0.5000 
     66 O           4.0167  -10.5058  -45.8064 O.2       1 UNK        -0.5000 
     67 C          -2.3322  -22.3332  -47.9629 C.2       11 UNK         0.5000 
     68 O          -2.7341  -23.2702  -48.6542 O.2       11 UNK        -0.5000 
     69 N          -3.0944  -21.6904  -47.0659 N.am      12 UNK        -0.5000 
     70 CA         -4.4862  -22.0266  -46.7651 C.3       12 UNK         0.1400 
     71 CB         -5.0747  -20.9957  -45.7909 C.3       12 UNK        -0.1800 
     72 C          -4.6461  -23.4585  -46.2227 C.2       12 UNK         0.5000 
     73 O          -5.5059  -24.1937  -46.7104 O.2       12 UNK        -0.5000 
     74 N          -3.7816  -23.8423  -45.2707 N.am      13 UNK        -0.5000 
     75 CA         -3.7083  -25.1832  -44.6834 C.3       13 UNK         0.1400 
     76 CB         -2.7022  -25.1839  -43.5233 C.3       13 UNK        -0.1800 
     77 C          -3.3578  -26.2823  -45.7042 C.2       13 UNK         0.5000 
     78 O          -3.8585  -27.4003  -45.5842 O.2       13 UNK        -0.5000 
     79 N          -2.5661  -25.9353  -46.7276 N.am      14 UNK        -0.5000 
     80 CA         -2.2388  -26.7716  -47.8855 C.3       14 UNK         0.1400 
     81 CB         -0.8912  -26.3069  -48.4673 C.3       14 UNK        -0.1800 
     82 C          -3.3600  -26.7895  -48.9518 C.2       14 UNK         0.5000 
     83 O          -3.0671  -26.8729  -50.1457 O.2       14 UNK        -0.5000 
     84 N          -4.6235  -26.6996  -48.5103 N.am      15 UNK        -0.5000 
     85 CA         -5.8560  -26.6821  -49.3034 C.3       15 UNK         0.1400 
     86 CB         -6.1003  -28.0631  -49.9473 C.3       15 UNK        -0.1800 
     87 C          -5.8868  -25.5287  -50.3252 C.2       15 UNK         0.5000 
     88 O          -6.2360  -25.7442  -51.4853 O.2       15 UNK        -0.5000 
     89 N          -5.4811  -24.3316  -49.8789 N.am      16 UNK        -0.5000 
     90 CA         -5.3064  -23.1128  -50.6795 C.3       16 UNK         0.1400 
     91 CB         -6.6694  -22.5812  -51.1631 C.3       16 UNK        -0.1800 
     92 C          -4.2798  -23.3128  -51.8170 C.2       16 UNK         0.5000 
     93 O          -4.5578  -23.0126  -52.9805 O.2       16 UNK        -0.5000 
     94 N          -3.1223  -23.8769  -51.4397 N.am      17 UNK        -0.5000 
     95 CA         -2.0214  -24.3374  -52.2913 C.3       17 UNK         0.1400 
     96 CB         -1.2408  -23.1349  -52.8578 C.3       17 UNK        -0.1800 
     97 C          -2.5003  -25.3183  -53.3825 C.2       17 UNK         0.5000 
     98 O          -2.2408  -25.1032  -54.5665 O.2       17 UNK        -0.5000 
     99 N          -3.2363  -26.3548  -52.9553 N.am      18 UNK        -0.5000 
    100 CA        -3.9245  -27.3527  -53.7841 C.3       18 UNK         0.1400 
    101 CB        -2.9048  -28.2798  -54.4772 C.3       18 UNK        -0.1800 
    102 C         -4.9367  -26.7184  -54.7661 C.2       18 UNK         0.5000 
    103 O         -5.0028  -27.1061  -55.9342 O.2       18 UNK        -0.5000 
    104 N         -5.6969  -25.7394  -54.2567 N.am      19 UNK        -0.5000 
    105 CA        -6.7215  -24.9343  -54.9261 C.3       19 UNK         0.1400 
    106 CB        -7.9423  -25.8085  -55.2797 C.3       19 UNK        -0.1800 
    107 C         -6.2048  -24.1107  -56.1265 C.2       19 UNK         0.5000 
    108 O         -6.9784  -23.8176  -57.0406 O.2       19 UNK        -0.5000 
    109 N         -4.9146  -23.7468  -56.1165 N.am      20 UNK        -0.5000 
    110 CA        -4.2728  -22.9775  -57.1839 C.3       20 UNK         0.1400 
    111 CB        -2.7469  -23.0983  -57.0605 C.3       20 UNK        -0.1800 
    112 C         -4.6943  -21.4976  -57.1931 C.2       20 UNK         0.5000 
    113 O         -4.8879  -20.9307  -58.2694 O.2       20 UNK        -0.5000 
    114 N         -4.8268  -20.9077  -55.9998 N.am      21 UNK        -0.5000 
    115 CA        -5.1858  -19.5127  -55.7539 C.3       21 UNK         0.1400 
    116 CB        -4.1026  -18.5505  -56.3028 C.3       21 UNK        -0.1800 
    117 C         -5.4280  -19.3797  -54.2414 C.2       21 UNK         0.5000 
    118 O         -6.2503  -20.1210  -53.7040 O.2       21 UNK        -0.5000 
    119 N         -4.6946  -18.4790  -53.5754 N.am      22 UNK        -0.5000 
    120 CA        -4.5630  -18.4300  -52.1105 C.3       22 UNK         0.1400 
    121 C         -3.6814  -19.5895  -51.5543 C.2       22 UNK         0.5000 
    122 N         -2.7296  -20.1129  -52.3191 N.am      22 UNK        -0.7600 
    123 O         -3.8718  -20.0347  -50.4280 O.2       22 UNK        -0.5000 
    124 C124       -4.0566  -17.0323  -51.6652 C.3       23 UNK        -0.0398 
    125 S125       -4.0682  -16.7556  -49.8576 S.3       23 UNK        -0.2404 
    126 C126       -2.7436  -15.5113  -49.6708 C.3       23 UNK        -0.0205 
    127 H127       -1.2151  -11.7724  -44.3876 H         1 UNK         0.0600 
    128 H128       -0.5218  -13.2585  -45.0442 H         1 UNK         0.0600 
    129 H129       -1.9248  -12.5269  -45.8225 H         1 UNK         0.0600 
    130 H130        1.4760  -12.7660  -45.8979 H         1 UNK         0.3000 
    131 H131        1.7128  -10.6807  -47.9852 H         1 UNK         0.0600 
    132 H132        3.6193  -12.9184  -47.1350 H         1 UNK         0.0800 
    133 H133        3.9812  -11.7172  -48.3479 H         1 UNK         0.0800 
    134 H134        2.9730  -15.3166  -48.1270 H         1 UNK         0.0800 
    135 H135        1.6703  -14.5699  -47.2293 H         1 UNK         0.0800 
    136 H136       -0.6068  -14.2790  -48.6082 H         1 UNK         0.1150 
    137 H137       -1.6548  -17.9349  -50.5957 H         1 UNK         0.1150 
    138 H138        2.3879  -17.2318  -49.4176 H         1 UNK         0.1150 
    139 H139        0.0842  -19.3629  -51.4451 H         1 UNK         0.0800 
    140 H140        1.7552  -18.9182  -51.2275 H         1 UNK         0.0800 
    141 H141       -1.3036  -20.7398  -49.8606 H         1 UNK         0.0800 
    142 H142       -1.0918  -19.7567  -48.4303 H         1 UNK         0.0800 
    143 H143       -0.3347  -22.7169  -48.5771 H         1 UNK         0.0600 
    144 H144        0.0983  -20.8225  -46.5082 H         1 UNK         0.3000 
    145 H145        0.2145  -23.2027  -43.8010 H         1 UNK         0.0600 
    146 H146        2.4602  -23.1474  -44.8882 H         1 UNK         0.0600 
    147 H147        2.3101  -21.4130  -45.1380 H         1 UNK         0.0600 
    148 H148        2.3876  -22.0677  -43.5041 H         1 UNK         0.0600 
    149 H149        0.4798  -20.3818  -43.7733 H         1 UNK         0.3000 
    150 H150       -3.0103  -19.6102  -43.3156 H         1 UNK         0.0600 
    151 H151       -2.1058  -20.1541  -41.0782 H         1 UNK         0.0600 
    152 H152       -1.9773  -18.4262  -41.3759 H         1 UNK         0.0600 
    153 H153       -0.5502  -19.4534  -41.4976 H         1 UNK         0.0600 
    154 H154       -0.7780  -17.8844  -43.5078 H         1 UNK         0.3000 
    155 H155       -0.7354  -17.5142  -47.0687 H         1 UNK         0.0600 
    156 H156       -0.9164  -15.1455  -46.3123 H         1 UNK         0.0600 
    157 H157       -1.5421  -15.6703  -44.7516 H         1 UNK         0.0600 
    158 H158       -2.4680  -15.9600  -46.2196 H         1 UNK         0.0600 
    159 H159        0.8690  -16.4118  -44.9662 H         1 UNK         0.3000 
    160 H160        3.3942  -18.9604  -45.0083 H         1 UNK         0.0600 
    161 H161        3.3686  -16.0123  -45.8383 H         1 UNK         0.0600 
    162 H162        3.8702  -17.3468  -46.8720 H         1 UNK         0.0600 
    163 H163        4.7842  -16.9732  -45.4192 H         1 UNK         0.0600 
    164 H164        3.0328  -16.5540  -43.4797 H         1 UNK         0.3000 
    165 H165        1.2257  -17.9788  -40.7849 H         1 UNK         0.0600 
    166 H166        3.1930  -17.2922  -39.4429 H         1 UNK         0.0600 
    167 H167        3.5454  -18.7796  -40.3072 H         1 UNK         0.0600 
    168 H168        4.2040  -17.2549  -40.8883 H         1 UNK         0.0600 
    169 H169        2.4864  -15.4603  -41.0421 H         1 UNK         0.3000 
    170 H170        0.0541  -13.7515  -42.9460 H         1 UNK         0.0600 
    171 H171       -1.0256  -13.8413  -40.7042 H         1 UNK         0.0600 
    172 H172        0.5414  -13.6585  -39.9234 H         1 UNK         0.0600 
    173 H173       -0.1167  -12.3515  -40.9078 H         1 UNK         0.0600 
    174 H174        2.3908  -12.9873  -41.4103 H         1 UNK         0.3000 
    175 H175        4.6017  -13.5259  -42.2872 H         1 UNK         0.0600 
    176 H176        6.1414  -13.1707  -44.1445 H         1 UNK         0.0600 
    177 H177        5.0645  -14.5032  -44.5271 H         1 UNK         0.0600 
    178 H178        4.8147  -12.9299  -45.2696 H         1 UNK         0.0600 
    179 H179        4.3831  -11.0211  -43.8087 H         1 UNK         0.3000 
    180 H180        3.4722   -9.0646  -41.0236 H         1 UNK         0.0600 
    181 H181        6.3606   -9.3343  -42.0170 H         1 UNK         0.0600 
    182 H182        5.8421   -9.4398  -40.3389 H         1 UNK         0.0600 
    183 H183        5.6703   -7.9250  -41.2107 H         1 UNK         0.0600 
    184 H184        4.6810   -8.4591  -43.5790 H         1 UNK         0.3000 
    185 H185        1.7269   -7.4069  -44.9674 H         1 UNK         0.0600 
    186 H186        4.0486   -6.5181  -44.7539 H         1 UNK         0.0600 
    187 H187        4.6969   -7.9476  -45.5531 H         1 UNK         0.0600 
    188 H188        3.6393   -6.8492  -46.4260 H         1 UNK         0.0600 
    189 H189        1.2654   -9.0818  -46.3422 H         1 UNK         0.3000 
    190 H190       -2.7011  -20.8985  -46.5627 H         1 UNK         0.3000 
    191 H191       -5.0493  -21.9598  -47.6971 H         1 UNK         0.0600 
    192 H192       -5.0317  -19.9904  -46.2104 H         1 UNK         0.0600 
    193 H193       -6.1212  -21.2147  -45.5761 H         1 UNK         0.0600 
    194 H194       -4.5398  -20.9838  -44.8415 H         1 UNK         0.0600 
    195 H195       -3.1306  -23.1547  -44.8984 H         1 UNK         0.3000 
    196 H196       -4.6945  -25.4171  -44.2775 H         1 UNK         0.0600 
    197 H197       -2.6430  -26.1678  -43.0563 H         1 UNK         0.0600 
    198 H198       -2.9931  -24.4741  -42.7488 H         1 UNK         0.0600 
    199 H199       -1.7000  -24.9192  -43.8609 H         1 UNK         0.0600 
    200 H200       -2.1769  -24.9994  -46.7333 H         1 UNK         0.3000 
    201 H201       -2.1132  -27.8013  -47.5456 H         1 UNK         0.0600 
    202 H202       -0.1097  -26.3179  -47.7074 H         1 UNK         0.0600 
    203 H203       -0.9532  -25.2945  -48.8665 H         1 UNK         0.0600 
    204 H204       -0.5632  -26.9606  -49.2763 H         1 UNK         0.0600 
    205 H205       -4.7532  -26.6212  -47.5102 H         1 UNK         0.3000 
    206 H206       -6.6712  -26.4922  -48.6039 H         1 UNK         0.0600 
    207 H207       -6.1039  -28.8525  -49.1958 H         1 UNK         0.0600 
    208 H208       -7.0660  -28.0937  -50.4533 H         1 UNK         0.0600 
    209 H209       -5.3364  -28.3077  -50.6858 H         1 UNK         0.0600 
    210 H210       -5.1903  -24.2695  -48.9103 H         1 UNK         0.3000 
    211 H211       -4.8850  -22.3657  -50.0098 H         1 UNK         0.0600 
    212 H212       -7.1223  -23.2317  -51.9110 H         1 UNK         0.0600 
    213 H213       -6.5568  -21.5944  -51.6094 H         1 UNK         0.0600 
    214 H214       -7.3704  -22.4812  -50.3346 H         1 UNK         0.0600 
    215 H215       -3.0018  -24.0400  -50.4442 H         1 UNK         0.3000 
    216 H216       -1.3447  -24.8990  -51.6456 H         1 UNK         0.0600 
    217 H217       -0.3704  -23.4688  -53.4237 H         1 UNK         0.0600 
    218 H218       -0.8764  -22.4896  -52.0587 H         1 UNK         0.0600 
    219 H219       -1.8554  -22.5369  -53.5311 H         1 UNK         0.0600 
    220 H220       -3.3581  -26.4603  -51.9497 H         1 UNK         0.3000 
    221 H221       -4.5115  -27.9638  -53.0973 H         1 UNK         0.0600 
    222 H222       -2.3072  -27.7451  -55.2161 H         1 UNK         0.0600 
    223 H223       -2.2230  -28.7257  -53.7530 H         1 UNK         0.0600 
    224 H224       -3.4087  -29.0974  -54.9938 H         1 UNK         0.0600 
    225 H225       -5.5982  -25.5450  -53.2632 H         1 UNK         0.3000 
    226 H226       -7.0475  -24.2015  -54.1871 H         1 UNK         0.0600 
    227 H227       -8.2994  -26.3556  -54.4071 H         1 UNK         0.0600 
    228 H228       -8.7722  -25.1991  -55.6391 H         1 UNK         0.0600 
    229 H229       -7.7068  -26.5342  -56.0586 H         1 UNK         0.0600 
    230 H230       -4.3398  -24.0149  -55.3270 H         1 UNK         0.3000 
    231 H231       -4.5653  -23.4120  -58.1422 H         1 UNK         0.0600 
    232 H232       -2.3889  -22.7202  -56.1021 H         1 UNK         0.0600 
    233 H233       -2.2438  -22.5333  -57.8463 H         1 UNK         0.0600 
    234 H234       -2.4268  -24.1363  -57.1521 H         1 UNK         0.0600 
    235 H235       -4.7202  -21.4737  -55.1656 H         1 UNK         0.3000 
    236 H236       -6.1332  -19.3027  -56.2535 H         1 UNK         0.0600 
    237 H237       -4.0170  -18.6206  -57.3867 H         1 UNK         0.0600 
    238 H238       -4.3470  -17.5103  -56.0839 H         1 UNK         0.0600 
    239 H239       -3.1186  -18.7645  -55.8838 H         1 UNK         0.0600 
    240 H240       -4.0581  -17.8987  -54.1015 H         1 UNK         0.3000 
    241 H241       -5.5590  -18.5663  -51.6844 H         1 UNK         0.0600 
    242 H242       -2.1993  -20.8923  -51.9717 H         1 UNK         0.3800 
    243 H243       -2.5679  -19.7727  -53.2521 H         1 UNK         0.3800 
    244 H244       -3.0567  -16.8499  -52.0608 H         1 UNK         0.0800 
    245 H245       -4.6907  -16.2619  -52.1061 H         1 UNK         0.0800 
    246 H246       -2.9511  -14.9621  -48.7511 H         1 UNK         0.0800 
    247 H247       -2.8152  -14.7838  -50.4804 H         1 UNK         0.0800 
@<TRIPOS>BOND
     1    1    2 1    
     2    1  127 1    
     3    1  128 1    
     4    1  129 1    
     5    2    3 2    
     6    2    4 am   BACKBONE|DICT|INTERRES
     7    4    5 1    
     8    4  130 1    
     9    5    6 1    
    10    5   65 1    
    11    5  131 1    
    12    6    7 1    
    13    6  132 1    
    14    6  133 1    
    15    7    8 1    
    16    8    9 1    
    17    8  134 1    
    18    8  135 1    
    19    9   10 ar   
    20    9   14 ar   
    21   10   11 ar   
    22   10  136 1    
    23   11   12 ar   
    24   11  126 1    
    25   12   13 ar   
    26   12  137 1    
    27   13   14 ar   
    28   13   15 1    
    29   14  138 1    
    30   15   16 1    
    31   15  139 1    
    32   15  140 1    
    33   16   17 1    
    34   17   18 1    
    35   17  141 1    
    36   17  142 1    
    37   18   19 1    
    38   18   67 1    
    39   18  143 1    
    40   19   20 am   BACKBONE|DICT|INTERRES
    41   19  144 1    
    42   20   21 2    
    43   20   22 1    
    44   22   23 1    
    45   22   24 1    
    46   22  145 1    
    47   23  146 1    
    48   23  147 1    
    49   23  148 1    
    50   24   25 am   BACKBONE|DICT|INTERRES
    51   24  149 1    
    52   25   26 2    
    53   25   27 1    
    54   27   28 1    
    55   27   29 1    
    56   27  150 1    
    57   28  151 1    
    58   28  152 1    
    59   28  153 1    
    60   29   30 am   BACKBONE|DICT|INTERRES
    61   29  154 1    
    62   30   31 2    
    63   30   32 1    
    64   32   33 1    
    65   32   34 1    
    66   32  155 1    
    67   33  156 1    
    68   33  157 1    
    69   33  158 1    
    70   34   35 am   BACKBONE|DICT|INTERRES
    71   34  159 1    
    72   35   36 2    
    73   35   37 1    
    74   37   38 1    
    75   37   39 1    
    76   37  160 1    
    77   38  161 1    
    78   38  162 1    
    79   38  163 1    
    80   39   40 am   BACKBONE|DICT|INTERRES
    81   39  164 1    
    82   40   41 2    
    83   40   42 1    
    84   42   43 1    
    85   42   44 1    
    86   42  165 1    
    87   43  166 1    
    88   43  167 1    
    89   43  168 1    
    90   44   45 am   BACKBONE|DICT|INTERRES
    91   44  169 1    
    92   45   46 2    
    93   45   47 1    
    94   47   48 1    
    95   47   49 1    
    96   47  170 1    
    97   48  171 1    
    98   48  172 1    
    99   48  173 1    
   100   49   50 am   BACKBONE|DICT|INTERRES
   101   49  174 1    
   102   50   51 2    
   103   50   52 1    
   104   52   53 1    
   105   52   54 1    
   106   52  175 1    
   107   53  176 1    
   108   53  177 1    
   109   53  178 1    
   110   54   55 am   BACKBONE|DICT|INTERRES
   111   54  179 1    
   112   55   56 2    
   113   55   57 1    
   114   57   58 1    
   115   57   59 1    
   116   57  180 1    
   117   58  181 1    
   118   58  182 1    
   119   58  183 1    
   120   59   60 am   BACKBONE|DICT|INTERRES
   121   59  184 1    
   122   60   61 2    
   123   60   62 1    
   124   62   63 1    
   125   62   64 1    
   126   62  185 1    
   127   63  186 1    
   128   63  187 1    
   129   63  188 1    
   130   64   65 am   BACKBONE|DICT|INTERRES
   131   64  189 1    
   132   65   66 2    
   133   67   68 2    
   134   67   69 am   BACKBONE|DICT|INTERRES
   135   69   70 1    
   136   69  190 1    
   137   70   71 1    
   138   70   72 1    
   139   70  191 1    
   140   71  192 1    
   141   71  193 1    
   142   71  194 1    
   143   72   73 2    
   144   72   74 am   BACKBONE|DICT|INTERRES
   145   74   75 1    
   146   74  195 1    
   147   75   76 1    
   148   75   77 1    
   149   75  196 1    
   150   76  197 1    
   151   76  198 1    
   152   76  199 1    
   153   77   78 2    
   154   77   79 am   BACKBONE|DICT|INTERRES
   155   79   80 1    
   156   79  200 1    
   157   80   81 1    
   158   80   82 1    
   159   80  201 1    
   160   81  202 1    
   161   81  203 1    
   162   81  204 1    
   163   82   83 2    
   164   82   84 am   BACKBONE|DICT|INTERRES
   165   84   85 1    
   166   84  205 1    
   167   85   86 1    
   168   85   87 1    
   169   85  206 1    
   170   86  207 1    
   171   86  208 1    
   172   86  209 1    
   173   87   88 2    
   174   87   89 am   BACKBONE|DICT|INTERRES
   175   89   90 1    
   176   89  210 1    
   177   90   91 1    
   178   90   92 1    
   179   90  211 1    
   180   91  212 1    
   181   91  213 1    
   182   91  214 1    
   183   92   93 2    
   184   92   94 am   BACKBONE|DICT|INTERRES
   185   94   95 1    
   186   94  215 1    
   187   95   96 1    
   188   95   97 1    
   189   95  216 1    
   190   96  217 1    
   191   96  218 1    
   192   96  219 1    
   193   97   98 2    
   194   97   99 am   BACKBONE|DICT|INTERRES
   195   99  100 1    
   196   99  220 1    
   197  100  101 1    
   198  100  102 1    
   199  100  221 1    
   200  101  222 1    
   201  101  223 1    
   202  101  224 1    
   203  102  103 2    
   204  102  104 am   BACKBONE|DICT|INTERRES
   205  104  105 1    
   206  104  225 1    
   207  105  106 1    
   208  105  107 1    
   209  105  226 1    
   210  106  227 1    
   211  106  228 1    
   212  106  229 1    
   213  107  108 2    
   214  107  109 am   BACKBONE|DICT|INTERRES
   215  109  110 1    
   216  109  230 1    
   217  110  111 1    
   218  110  112 1    
   219  110  231 1    
   220  111  232 1    
   221  111  233 1    
   222  111  234 1    
   223  112  113 2    
   224  112  114 am   BACKBONE|DICT|INTERRES
   225  114  115 1    
   226  114  235 1    
   227  115  116 1    
   228  115  117 1    
   229  115  236 1    
   230  116  237 1    
   231  116  238 1    
   232  116  239 1    
   233  117  118 2    
   234  117  119 am   BACKBONE|DICT|INTERRES
   235  119  120 1    
   236  119  240 1    
   237  120  121 1    
   238  120  124 1    
   239  120  241 1    
   240  121  122 am   BACKBONE|DICT|INTERRES
   241  121  123 2    
   242  122  242 1    
   243  122  243 1    
   244  124  125 1    
   245  124  244 1    
   246  124  245 1    
   247  125  126 1    
   248  126  246 1    
   249  126  247 1    
@<TRIPOS>SUBSTRUCTURE
     1 UNK         1 GROUP             0       ****    0 ROOT    
