@<TRIPOS>MOLECULE
3R540
247   249    1
SMALL
USER_CHARGES


@<TRIPOS>ATOM
      1 CA          4.5537  -16.0883  -47.1595 C.3       0 UNK        -0.1800 
      2 C           3.3204  -15.2753  -46.7987 C.2       0 UNK         0.5000 
      3 O           3.1681  -14.8708  -45.6488 O.2       0 UNK        -0.5000 
      4 N           2.4563  -15.0121  -47.7864 N.am      1 UNK        -0.5000 
      5 CA          1.1752  -14.2917  -47.6918 C.3       1 UNK         0.1400 
      6 C6          0.4424  -14.2598  -49.0590 C.3       23 UNK        -0.0398 
      7 S7          1.5037  -13.6773  -50.4355 S.3       23 UNK        -0.2404 
      8 C8          0.7491  -14.4668  -51.8994 C.3       23 UNK        -0.0205 
      9 C9          0.5780  -15.9790  -51.7838 C.ar      23 UNK        -0.0193 
     10 C10        -0.6322  -16.5632  -52.1699 C.ar      23 UNK        -0.1150 
     11 C11        -0.8245  -17.9425  -52.0631 C.ar      23 UNK        -0.0193 
     12 C12         0.2000  -18.7418  -51.5515 C.ar      23 UNK        -0.1150 
     13 C13         1.4103  -18.1711  -51.1477 C.ar      23 UNK        -0.0193 
     14 C14         1.6042  -16.7940  -51.2906 C.ar      23 UNK        -0.1150 
     15 C15         2.4876  -19.0422  -50.5174 C.3       23 UNK        -0.0205 
     16 S16         2.6087  -18.8063  -48.7103 S.3       23 UNK        -0.2404 
     17 C17         0.9026  -19.1263  -48.1478 C.3       23 UNK        -0.0398 
     18 CA          0.6466  -20.6154  -47.8062 C.3       11 UNK         0.1400 
     19 N           1.0432  -20.9425  -46.4312 N.am      11 UNK        -0.5000 
     20 C           0.9890  -22.1630  -45.8774 C.2       10 UNK         0.5000 
     21 O           0.6723  -23.1796  -46.4934 O.2       10 UNK        -0.5000 
     22 CA          1.2710  -22.2581  -44.3657 C.3       10 UNK         0.1400 
     23 CB          2.7794  -22.2373  -44.0788 C.3       10 UNK        -0.1800 
     24 N           0.6032  -21.1997  -43.6057 N.am      10 UNK        -0.5000 
     25 C          -0.7269  -21.0463  -43.5245 C.2       9 UNK         0.5000 
     26 O          -1.5354  -21.8260  -44.0245 O.2       9 UNK        -0.5000 
     27 CA         -1.2426  -19.7754  -42.8275 C.3       9 UNK         0.1400 
     28 CB         -1.3092  -19.9522  -41.3030 C.3       9 UNK        -0.1800 
     29 N          -0.4224  -18.6125  -43.1610 N.am      9 UNK        -0.5000 
     30 C          -0.4002  -18.0323  -44.3696 C.2       8 UNK         0.5000 
     31 O          -1.1172  -18.3786  -45.3085 O.2       8 UNK        -0.5000 
     32 CA          0.6331  -16.9134  -44.5769 C.3       8 UNK         0.1400 
     33 CB          0.0506  -15.5517  -44.1777 C.3       8 UNK        -0.1800 
     34 N           1.8699  -17.1674  -43.8381 N.am      8 UNK        -0.5000 
     35 C           2.7580  -18.1116  -44.1818 C.2       7 UNK         0.5000 
     36 O           2.6208  -18.8429  -45.1614 O.2       7 UNK        -0.5000 
     37 CA          3.9688  -18.3200  -43.2506 C.3       7 UNK         0.1400 
     38 CB          5.1378  -17.4161  -43.6673 C.3       7 UNK        -0.1800 
     39 N           3.6566  -18.0863  -41.8403 N.am      7 UNK        -0.5000 
     40 C           2.7568  -18.7792  -41.1298 C.2       6 UNK         0.5000 
     41 O           2.1277  -19.7357  -41.5828 O.2       6 UNK        -0.5000 
     42 CA          2.4582  -18.2918  -39.6970 C.3       6 UNK         0.1400 
     43 CB          3.6197  -17.4962  -39.0606 C.3       6 UNK        -0.1800 
     44 N           1.2121  -17.5167  -39.6281 N.am      6 UNK        -0.5000 
     45 C           0.9103  -16.4144  -40.3311 C.2       5 UNK         0.5000 
     46 O           1.6485  -15.9381  -41.1953 O.2       5 UNK        -0.5000 
     47 CA         -0.4497  -15.7329  -40.0637 C.3       5 UNK         0.1400 
     48 CB         -1.1141  -16.1339  -38.7275 C.3       5 UNK        -0.1800 
     49 N          -0.3339  -14.2754  -40.1956 N.am      5 UNK        -0.5000 
     50 C           0.4097  -13.4589  -39.4353 C.2       4 UNK         0.5000 
     51 O           0.9994  -13.8082  -38.4105 O.2       4 UNK        -0.5000 
     52 CA          0.5797  -12.0221  -39.9599 C.3       4 UNK         0.1400 
     53 CB          0.8002  -11.0061  -38.8251 C.3       4 UNK        -0.1800 
     54 N           1.7306  -11.9862  -40.8597 N.am      4 UNK        -0.5000 
     55 C           1.6959  -12.3184  -42.1555 C.2       3 UNK         0.5000 
     56 O           0.6549  -12.5767  -42.7641 O.2       3 UNK        -0.5000 
     57 CA          3.0623  -12.4105  -42.8623 C.3       3 UNK         0.1400 
     58 CB          3.7132  -13.7766  -42.5978 C.3       3 UNK        -0.1800 
     59 N           2.9662  -12.2054  -44.3078 N.am      3 UNK        -0.5000 
     60 C           2.7565  -11.0162  -44.8908 C.2       2 UNK         0.5000 
     61 O           2.6375   -9.9652  -44.2585 O.2       2 UNK        -0.5000 
     62 CA          2.7009  -10.9662  -46.4331 C.3       2 UNK         0.1400 
     63 CB          4.0185  -10.4134  -46.9991 C.3       2 UNK        -0.1800 
     64 N           2.4348  -12.2617  -47.0569 N.am      2 UNK        -0.5000 
     65 C           1.2455  -12.8770  -47.0677 C.2       1 UNK         0.5000 
     66 O           0.2200  -12.3747  -46.6064 O.2       1 UNK        -0.5000 
     67 C          -0.8252  -20.9848  -48.0880 C.2       11 UNK         0.5000 
     68 O          -1.1041  -21.6256  -49.1028 O.2       11 UNK        -0.5000 
     69 N          -1.7336  -20.5991  -47.1797 N.am      12 UNK        -0.5000 
     70 CA         -3.1591  -20.9199  -47.2593 C.3       12 UNK         0.1400 
     71 CB         -3.9274  -20.1644  -46.1655 C.3       12 UNK        -0.1800 
     72 C          -3.4323  -22.4320  -47.1801 C.2       12 UNK         0.5000 
     73 O          -4.2313  -22.9394  -47.9662 O.2       12 UNK        -0.5000 
     74 N          -2.7399  -23.1273  -46.2670 N.am      13 UNK        -0.5000 
     75 CA         -2.8039  -24.5790  -46.0973 C.3       13 UNK         0.1400 
     76 CB         -2.0391  -24.9897  -44.8304 C.3       13 UNK        -0.1800 
     77 C          -2.2828  -25.3470  -47.3245 C.2       13 UNK         0.5000 
     78 O          -2.9200  -26.3138  -47.7419 O.2       13 UNK        -0.5000 
     79 N          -1.1708  -24.8813  -47.9120 N.am      14 UNK        -0.5000 
     80 CA         -0.5864  -25.4230  -49.1428 C.3       14 UNK         0.1400 
     81 CB          0.7702  -24.7525  -49.4073 C.3       14 UNK        -0.1800 
     82 C          -1.5141  -25.2754  -50.3642 C.2       14 UNK         0.5000 
     83 O          -1.5709  -26.1788  -51.1986 O.2       14 UNK        -0.5000 
     84 N          -2.2546  -24.1611  -50.4191 N.am      15 UNK        -0.5000 
     85 CA         -3.2916  -23.8894  -51.4152 C.3       15 UNK         0.1400 
     86 CB         -3.4722  -22.3667  -51.5194 C.3       15 UNK        -0.1800 
     87 C          -4.6389  -24.5743  -51.1000 C.2       15 UNK         0.5000 
     88 O          -5.5736  -24.4419  -51.8885 O.2       15 UNK        -0.5000 
     89 N          -4.7480  -25.2493  -49.9441 N.am      16 UNK        -0.5000 
     90 CA         -5.9534  -25.8845  -49.3935 C.3       16 UNK         0.1400 
     91 CB         -6.3358  -27.1242  -50.2278 C.3       16 UNK        -0.1800 
     92 C          -7.1311  -24.8995  -49.2099 C.2       16 UNK         0.5000 
     93 O          -8.2925  -25.2932  -49.3291 O.2       16 UNK        -0.5000 
     94 N          -6.7951  -23.6262  -48.9530 N.am      17 UNK        -0.5000 
     95 CA         -7.6669  -22.4521  -48.8551 C.3       17 UNK         0.1400 
     96 CB         -8.5905  -22.5660  -47.6251 C.3       17 UNK        -0.1800 
     97 C          -8.4452  -22.1097  -50.1484 C.2       17 UNK         0.5000 
     98 O          -9.3742  -21.3016  -50.0902 O.2       17 UNK        -0.5000 
     99 N          -8.0672  -22.7008  -51.2906 N.am      18 UNK        -0.5000 
    100 CA        -8.6894  -22.4579  -52.5899 C.3       18 UNK         0.1400 
    101 CB        -8.6196  -23.7429  -53.4286 C.3       18 UNK        -0.1800 
    102 C         -7.9977  -21.2928  -53.3158 C.2       18 UNK         0.5000 
    103 O         -6.7808  -21.1237  -53.2013 O.2       18 UNK        -0.5000 
    104 N         -8.7853  -20.5207  -54.0734 N.am      19 UNK        -0.5000 
    105 CA        -8.3038  -19.4256  -54.9137 C.3       19 UNK         0.1400 
    106 CB        -9.4974  -18.5641  -55.3534 C.3       19 UNK        -0.1800 
    107 C         -7.5413  -19.9619  -56.1382 C.2       19 UNK         0.5000 
    108 O         -7.9914  -20.9276  -56.7588 O.2       19 UNK        -0.5000 
    109 N         -6.4083  -19.3198  -56.4561 N.am      20 UNK        -0.5000 
    110 CA        -5.4989  -19.6087  -57.5763 C.3       20 UNK         0.1400 
    111 CB        -6.2081  -19.3945  -58.9299 C.3       20 UNK        -0.1800 
    112 C         -4.7862  -20.9795  -57.5012 C.2       20 UNK         0.5000 
    113 O         -4.1448  -21.3829  -58.4722 O.2       20 UNK        -0.5000 
    114 N         -4.8699  -21.6552  -56.3479 N.am      21 UNK        -0.5000 
    115 CA        -4.2258  -22.9414  -56.0653 C.3       21 UNK         0.1400 
    116 CB        -5.1680  -23.7603  -55.1716 C.3       21 UNK        -0.1800 
    117 C         -2.8377  -22.7773  -55.4102 C.2       21 UNK         0.5000 
    118 O         -2.2395  -23.7720  -54.9991 O.2       21 UNK        -0.5000 
    119 N         -2.3710  -21.5275  -55.3033 N.am      22 UNK        -0.5000 
    120 CA        -1.1012  -21.0860  -54.7125 C.3       22 UNK         0.1400 
    121 C          0.1488  -21.8110  -55.2871 C.2       22 UNK         0.5000 
    122 N          1.0820  -22.2242  -54.4401 N.am      22 UNK        -0.7600 
    123 O          0.3006  -21.9564  -56.4981 O.2       22 UNK        -0.5000 
    124 C124       -0.9311  -19.5522  -54.8637 C.3       23 UNK        -0.0398 
    125 S125       -2.3713  -18.5806  -54.2897 S.3       23 UNK        -0.2404 
    126 C126       -2.1454  -18.5682  -52.4825 C.3       23 UNK        -0.0205 
    127 H127        4.4433  -17.1093  -46.7955 H         1 UNK         0.0600 
    128 H128        5.4419  -15.6531  -46.7017 H         1 UNK         0.0600 
    129 H129        4.7095  -16.1270  -48.2378 H         1 UNK         0.0600 
    130 H130        2.6702  -15.3516  -48.7130 H         1 UNK         0.3000 
    131 H131        0.5534  -14.8745  -47.0111 H         1 UNK         0.0600 
    132 H132       -0.4573  -13.6428  -49.0179 H         1 UNK         0.0800 
    133 H133        0.0881  -15.2667  -49.2785 H         1 UNK         0.0800 
    134 H134        1.3692  -14.2531  -52.7706 H         1 UNK         0.0800 
    135 H135       -0.2135  -13.9868  -52.0829 H         1 UNK         0.0800 
    136 H136       -1.4307  -15.9463  -52.5582 H         1 UNK         0.1150 
    137 H137        0.0455  -19.8065  -51.4429 H         1 UNK         0.1150 
    138 H138        2.5425  -16.3542  -50.9841 H         1 UNK         0.1150 
    139 H139        2.3008  -20.0968  -50.7259 H         1 UNK         0.0800 
    140 H140        3.4521  -18.8086  -50.9701 H         1 UNK         0.0800 
    141 H141        0.2031  -18.7492  -48.8920 H         1 UNK         0.0800 
    142 H142        0.7212  -18.5036  -47.2739 H         1 UNK         0.0800 
    143 H143        1.2495  -21.2366  -48.4719 H         1 UNK         0.0600 
    144 H144        1.3990  -20.1720  -45.8725 H         1 UNK         0.3000 
    145 H145        0.8763  -23.2134  -44.0139 H         1 UNK         0.0600 
    146 H146        2.9797  -22.3237  -43.0106 H         1 UNK         0.0600 
    147 H147        3.2791  -23.0711  -44.5732 H         1 UNK         0.0600 
    148 H148        3.2479  -21.3204  -44.4341 H         1 UNK         0.0600 
    149 H149        1.1985  -20.5471  -43.1053 H         1 UNK         0.3000 
    150 H150       -2.2573  -19.5883  -43.1856 H         1 UNK         0.0600 
    151 H151       -1.9682  -20.7804  -41.0395 H         1 UNK         0.0600 
    152 H152       -1.7025  -19.0582  -40.8191 H         1 UNK         0.0600 
    153 H153       -0.3322  -20.1656  -40.8707 H         1 UNK         0.0600 
    154 H154        0.2581  -18.3222  -42.4752 H         1 UNK         0.3000 
    155 H155        0.8756  -16.8715  -45.6394 H         1 UNK         0.0600 
    156 H156       -0.2257  -15.5173  -43.1251 H         1 UNK         0.0600 
    157 H157       -0.8434  -15.3230  -44.7589 H         1 UNK         0.0600 
    158 H158        0.7674  -14.7514  -44.3598 H         1 UNK         0.0600 
    159 H159        2.0232  -16.6213  -42.9951 H         1 UNK         0.3000 
    160 H160        4.2897  -19.3587  -43.3491 H         1 UNK         0.0600 
    161 H161        5.4623  -17.6462  -44.6821 H         1 UNK         0.0600 
    162 H162        5.9997  -17.5551  -43.0147 H         1 UNK         0.0600 
    163 H163        4.8614  -16.3616  -43.6422 H         1 UNK         0.0600 
    164 H164        4.0849  -17.2805  -41.4087 H         1 UNK         0.3000 
    165 H165        2.3046  -19.1889  -39.0954 H         1 UNK         0.0600 
    166 H166        3.4157  -17.2902  -38.0098 H         1 UNK         0.0600 
    167 H167        4.5522  -18.0606  -39.1015 H         1 UNK         0.0600 
    168 H168        3.7882  -16.5376  -39.5526 H         1 UNK         0.0600 
    169 H169        0.5338  -17.8498  -38.9580 H         1 UNK         0.3000 
    170 H170       -1.1123  -16.0574  -40.8669 H         1 UNK         0.0600 
    171 H171       -1.3843  -17.1904  -38.7223 H         1 UNK         0.0600 
    172 H172       -0.4617  -15.9545  -37.8724 H         1 UNK         0.0600 
    173 H173       -2.0337  -15.5716  -38.5654 H         1 UNK         0.0600 
    174 H174       -0.6938  -13.8936  -41.0602 H         1 UNK         0.3000 
    175 H175       -0.3262  -11.7325  -40.4970 H         1 UNK         0.0600 
    176 H176        1.7139  -11.2102  -38.2654 H         1 UNK         0.0600 
    177 H177        0.8687   -9.9907  -39.2160 H         1 UNK         0.0600 
    178 H178       -0.0302  -11.0269  -38.1183 H         1 UNK         0.0600 
    179 H179        2.6264  -11.8266  -40.4217 H         1 UNK         0.3000 
    180 H180        3.7143  -11.6369  -42.4511 H         1 UNK         0.0600 
    181 H181        3.1063  -14.5884  -42.9985 H         1 UNK         0.0600 
    182 H182        3.8347  -13.9585  -41.5293 H         1 UNK         0.0600 
    183 H183        4.7005  -13.8401  -43.0553 H         1 UNK         0.0600 
    184 H184        3.0098  -13.0417  -44.8827 H         1 UNK         0.3000 
    185 H185        1.8981  -10.2791  -46.7087 H         1 UNK         0.0600 
    186 H186        4.2394   -9.4282  -46.5861 H         1 UNK         0.0600 
    187 H187        4.8614  -11.0645  -46.7637 H         1 UNK         0.0600 
    188 H188        3.9684  -10.3058  -48.0828 H         1 UNK         0.0600 
    189 H189        3.2254  -12.7503  -47.4506 H         1 UNK         0.3000 
    190 H190       -1.4378  -20.0321  -46.3912 H         1 UNK         0.3000 
    191 H191       -3.5225  -20.5706  -48.2281 H         1 UNK         0.0600 
    192 H192       -3.6017  -20.4564  -45.1672 H         1 UNK         0.0600 
    193 H193       -4.9978  -20.3633  -46.2329 H         1 UNK         0.0600 
    194 H194       -3.7894  -19.0872  -46.2597 H         1 UNK         0.0600 
    195 H195       -2.1415  -22.6222  -45.6181 H         1 UNK         0.3000 
    196 H196       -3.8531  -24.8488  -45.9604 H         1 UNK         0.0600 
    197 H197       -2.0915  -26.0678  -44.6741 H         1 UNK         0.0600 
    198 H198       -2.4588  -24.5118  -43.9451 H         1 UNK         0.0600 
    199 H199       -0.9854  -24.7167  -44.8894 H         1 UNK         0.0600 
    200 H200       -0.6718  -24.1102  -47.4749 H         1 UNK         0.3000 
    201 H201       -0.4136  -26.4898  -48.9865 H         1 UNK         0.0600 
    202 H202        1.4630  -24.9278  -48.5841 H         1 UNK         0.0600 
    203 H203        0.6689  -23.6744  -49.5344 H         1 UNK         0.0600 
    204 H204        1.2330  -25.1486  -50.3119 H         1 UNK         0.0600 
    205 H205       -2.1083  -23.4477  -49.7134 H         1 UNK         0.3000 
    206 H206       -2.9568  -24.2605  -52.3856 H         1 UNK         0.0600 
    207 H207       -2.5252  -21.8801  -51.7465 H         1 UNK         0.0600 
    208 H208       -4.1731  -22.1034  -52.3125 H         1 UNK         0.0600 
    209 H209       -3.8513  -21.9416  -50.5895 H         1 UNK         0.0600 
    210 H210       -3.9324  -25.2945  -49.3460 H         1 UNK         0.3000 
    211 H211       -5.6872  -26.2268  -48.3927 H         1 UNK         0.0600 
    212 H212       -6.6744  -26.8500  -51.2275 H         1 UNK         0.0600 
    213 H213       -7.1412  -27.6844  -49.7516 H         1 UNK         0.0600 
    214 H214       -5.4894  -27.8027  -50.3343 H         1 UNK         0.0600 
    215 H215       -5.8050  -23.4300  -48.8162 H         1 UNK         0.3000 
    216 H216       -6.9982  -21.6076  -48.6830 H         1 UNK         0.0600 
    217 H217       -9.1281  -21.6336  -47.4490 H         1 UNK         0.0600 
    218 H218       -8.0190  -22.7830  -46.7226 H         1 UNK         0.0600 
    219 H219       -9.3347  -23.3529  -47.7494 H         1 UNK         0.0600 
    220 H220       -7.2548  -23.3081  -51.2935 H         1 UNK         0.3000 
    221 H221       -9.7434  -22.2087  -52.4490 H         1 UNK         0.0600 
    222 H222       -7.5917  -24.0650  -53.5899 H         1 UNK         0.0600 
    223 H223       -9.1499  -24.5600  -52.9393 H         1 UNK         0.0600 
    224 H224       -9.0753  -23.5973  -54.4088 H         1 UNK         0.0600 
    225 H225       -9.7661  -20.7460  -54.1524 H         1 UNK         0.3000 
    226 H226       -7.6327  -18.8040  -54.3167 H         1 UNK         0.0600 
    227 H227      -10.0248  -18.1511  -54.4932 H         1 UNK         0.0600 
    228 H228       -9.1672  -17.7238  -55.9656 H         1 UNK         0.0600 
    229 H229      -10.2135  -19.1379  -55.9433 H         1 UNK         0.0600 
    230 H230       -6.1236  -18.5472  -55.8695 H         1 UNK         0.3000 
    231 H231       -4.7040  -18.8645  -57.5074 H         1 UNK         0.0600 
    232 H232       -6.6867  -18.4162  -58.9744 H         1 UNK         0.0600 
    233 H233       -6.9715  -20.1509  -59.1131 H         1 UNK         0.0600 
    234 H234       -5.4985  -19.4433  -59.7567 H         1 UNK         0.0600 
    235 H235       -5.4142  -21.2551  -55.5959 H         1 UNK         0.3000 
    236 H236       -4.0793  -23.4941  -56.9954 H         1 UNK         0.0600 
    237 H237       -4.7519  -24.7420  -54.9424 H         1 UNK         0.0600 
    238 H238       -5.3516  -23.2518  -54.2257 H         1 UNK         0.0600 
    239 H239       -6.1305  -23.9207  -55.6576 H         1 UNK         0.0600 
    240 H240       -2.9510  -20.7876  -55.6675 H         1 UNK         0.3000 
    241 H241       -1.1615  -21.3163  -53.6482 H         1 UNK         0.0600 
    242 H242        1.9032  -22.6806  -54.8062 H         1 UNK         0.3800 
    243 H243        0.9829  -22.1146  -53.4436 H         1 UNK         0.3800 
    244 H244       -0.0326  -19.2109  -54.3484 H         1 UNK         0.0800 
    245 H245       -0.7772  -19.2981  -55.9142 H         1 UNK         0.0800 
    246 H246       -2.2293  -19.5859  -52.1020 H         1 UNK         0.0800 
    247 H247       -2.9657  -18.0093  -52.0300 H         1 UNK         0.0800 
@<TRIPOS>BOND
     1    1    2 1    
     2    1  127 1    
     3    1  128 1    
     4    1  129 1    
     5    2    3 2    
     6    2    4 am   BACKBONE|DICT|INTERRES
     7    4    5 1    
     8    4  130 1    
     9    5    6 1    
    10    5   65 1    
    11    5  131 1    
    12    6    7 1    
    13    6  132 1    
    14    6  133 1    
    15    7    8 1    
    16    8    9 1    
    17    8  134 1    
    18    8  135 1    
    19    9   10 ar   
    20    9   14 ar   
    21   10   11 ar   
    22   10  136 1    
    23   11   12 ar   
    24   11  126 1    
    25   12   13 ar   
    26   12  137 1    
    27   13   14 ar   
    28   13   15 1    
    29   14  138 1    
    30   15   16 1    
    31   15  139 1    
    32   15  140 1    
    33   16   17 1    
    34   17   18 1    
    35   17  141 1    
    36   17  142 1    
    37   18   19 1    
    38   18   67 1    
    39   18  143 1    
    40   19   20 am   BACKBONE|DICT|INTERRES
    41   19  144 1    
    42   20   21 2    
    43   20   22 1    
    44   22   23 1    
    45   22   24 1    
    46   22  145 1    
    47   23  146 1    
    48   23  147 1    
    49   23  148 1    
    50   24   25 am   BACKBONE|DICT|INTERRES
    51   24  149 1    
    52   25   26 2    
    53   25   27 1    
    54   27   28 1    
    55   27   29 1    
    56   27  150 1    
    57   28  151 1    
    58   28  152 1    
    59   28  153 1    
    60   29   30 am   BACKBONE|DICT|INTERRES
    61   29  154 1    
    62   30   31 2    
    63   30   32 1    
    64   32   33 1    
    65   32   34 1    
    66   32  155 1    
    67   33  156 1    
    68   33  157 1    
    69   33  158 1    
    70   34   35 am   BACKBONE|DICT|INTERRES
    71   34  159 1    
    72   35   36 2    
    73   35   37 1    
    74   37   38 1    
    75   37   39 1    
    76   37  160 1    
    77   38  161 1    
    78   38  162 1    
    79   38  163 1    
    80   39   40 am   BACKBONE|DICT|INTERRES
    81   39  164 1    
    82   40   41 2    
    83   40   42 1    
    84   42   43 1    
    85   42   44 1    
    86   42  165 1    
    87   43  166 1    
    88   43  167 1    
    89   43  168 1    
    90   44   45 am   BACKBONE|DICT|INTERRES
    91   44  169 1    
    92   45   46 2    
    93   45   47 1    
    94   47   48 1    
    95   47   49 1    
    96   47  170 1    
    97   48  171 1    
    98   48  172 1    
    99   48  173 1    
   100   49   50 am   BACKBONE|DICT|INTERRES
   101   49  174 1    
   102   50   51 2    
   103   50   52 1    
   104   52   53 1    
   105   52   54 1    
   106   52  175 1    
   107   53  176 1    
   108   53  177 1    
   109   53  178 1    
   110   54   55 am   BACKBONE|DICT|INTERRES
   111   54  179 1    
   112   55   56 2    
   113   55   57 1    
   114   57   58 1    
   115   57   59 1    
   116   57  180 1    
   117   58  181 1    
   118   58  182 1    
   119   58  183 1    
   120   59   60 am   BACKBONE|DICT|INTERRES
   121   59  184 1    
   122   60   61 2    
   123   60   62 1    
   124   62   63 1    
   125   62   64 1    
   126   62  185 1    
   127   63  186 1    
   128   63  187 1    
   129   63  188 1    
   130   64   65 am   BACKBONE|DICT|INTERRES
   131   64  189 1    
   132   65   66 2    
   133   67   68 2    
   134   67   69 am   BACKBONE|DICT|INTERRES
   135   69   70 1    
   136   69  190 1    
   137   70   71 1    
   138   70   72 1    
   139   70  191 1    
   140   71  192 1    
   141   71  193 1    
   142   71  194 1    
   143   72   73 2    
   144   72   74 am   BACKBONE|DICT|INTERRES
   145   74   75 1    
   146   74  195 1    
   147   75   76 1    
   148   75   77 1    
   149   75  196 1    
   150   76  197 1    
   151   76  198 1    
   152   76  199 1    
   153   77   78 2    
   154   77   79 am   BACKBONE|DICT|INTERRES
   155   79   80 1    
   156   79  200 1    
   157   80   81 1    
   158   80   82 1    
   159   80  201 1    
   160   81  202 1    
   161   81  203 1    
   162   81  204 1    
   163   82   83 2    
   164   82   84 am   BACKBONE|DICT|INTERRES
   165   84   85 1    
   166   84  205 1    
   167   85   86 1    
   168   85   87 1    
   169   85  206 1    
   170   86  207 1    
   171   86  208 1    
   172   86  209 1    
   173   87   88 2    
   174   87   89 am   BACKBONE|DICT|INTERRES
   175   89   90 1    
   176   89  210 1    
   177   90   91 1    
   178   90   92 1    
   179   90  211 1    
   180   91  212 1    
   181   91  213 1    
   182   91  214 1    
   183   92   93 2    
   184   92   94 am   BACKBONE|DICT|INTERRES
   185   94   95 1    
   186   94  215 1    
   187   95   96 1    
   188   95   97 1    
   189   95  216 1    
   190   96  217 1    
   191   96  218 1    
   192   96  219 1    
   193   97   98 2    
   194   97   99 am   BACKBONE|DICT|INTERRES
   195   99  100 1    
   196   99  220 1    
   197  100  101 1    
   198  100  102 1    
   199  100  221 1    
   200  101  222 1    
   201  101  223 1    
   202  101  224 1    
   203  102  103 2    
   204  102  104 am   BACKBONE|DICT|INTERRES
   205  104  105 1    
   206  104  225 1    
   207  105  106 1    
   208  105  107 1    
   209  105  226 1    
   210  106  227 1    
   211  106  228 1    
   212  106  229 1    
   213  107  108 2    
   214  107  109 am   BACKBONE|DICT|INTERRES
   215  109  110 1    
   216  109  230 1    
   217  110  111 1    
   218  110  112 1    
   219  110  231 1    
   220  111  232 1    
   221  111  233 1    
   222  111  234 1    
   223  112  113 2    
   224  112  114 am   BACKBONE|DICT|INTERRES
   225  114  115 1    
   226  114  235 1    
   227  115  116 1    
   228  115  117 1    
   229  115  236 1    
   230  116  237 1    
   231  116  238 1    
   232  116  239 1    
   233  117  118 2    
   234  117  119 am   BACKBONE|DICT|INTERRES
   235  119  120 1    
   236  119  240 1    
   237  120  121 1    
   238  120  124 1    
   239  120  241 1    
   240  121  122 am   BACKBONE|DICT|INTERRES
   241  121  123 2    
   242  122  242 1    
   243  122  243 1    
   244  124  125 1    
   245  124  244 1    
   246  124  245 1    
   247  125  126 1    
   248  126  246 1    
   249  126  247 1    
@<TRIPOS>SUBSTRUCTURE
     1 UNK         1 GROUP             0       ****    0 ROOT    
