@<TRIPOS>MOLECULE
3R540
247   249    1
SMALL
USER_CHARGES


@<TRIPOS>ATOM
      1 CA         -0.9817  -10.5151  -48.0841 C.3       0 UNK        -0.1800 
      2 C          -1.3563  -11.9704  -47.8481 C.2       0 UNK         0.5000 
      3 O          -1.5438  -12.3769  -46.6995 O.2       0 UNK        -0.5000 
      4 N          -1.4773  -12.7575  -48.9270 N.am      1 UNK        -0.5000 
      5 CA         -1.8322  -14.1802  -48.8760 C.3       1 UNK         0.1400 
      6 C6         -1.6219  -14.9029  -50.2309 C.3       23 UNK        -0.0398 
      7 S7         -1.0404  -16.6170  -50.0050 S.3       23 UNK        -0.2404 
      8 C8          0.7361  -16.3821  -50.3196 C.3       23 UNK        -0.0205 
      9 C9          1.5041  -17.6940  -50.3361 C.ar      23 UNK        -0.0193 
     10 C10         1.2731  -18.6237  -51.3517 C.ar      23 UNK        -0.1150 
     11 C11         2.0095  -19.8077  -51.4310 C.ar      23 UNK        -0.0193 
     12 C12         3.0118  -20.0416  -50.4788 C.ar      23 UNK        -0.1150 
     13 C13         3.2553  -19.1205  -49.4548 C.ar      23 UNK        -0.0193 
     14 C14         2.4892  -17.9538  -49.3809 C.ar      23 UNK        -0.1150 
     15 C15         4.3757  -19.3643  -48.4527 C.3       23 UNK        -0.0205 
     16 S16         4.0962  -20.8435  -47.4315 S.3       23 UNK        -0.2404 
     17 C17         2.5533  -20.4019  -46.5647 C.3       23 UNK        -0.0398 
     18 CA          1.3559  -21.2637  -47.0219 C.3       11 UNK         0.1400 
     19 N           1.6044  -22.6956  -46.8412 N.am      11 UNK        -0.5000 
     20 C           0.9061  -23.6776  -47.4219 C.2       10 UNK         0.5000 
     21 O          -0.0145  -23.4838  -48.2133 O.2       10 UNK        -0.5000 
     22 CA          1.2810  -25.1173  -47.0232 C.3       10 UNK         0.1400 
     23 CB          2.4258  -25.6371  -47.9043 C.3       10 UNK        -0.1800 
     24 N           1.6698  -25.2284  -45.6155 N.am      10 UNK        -0.5000 
     25 C           0.8333  -25.0511  -44.5828 C.2       9 UNK         0.5000 
     26 O          -0.3706  -24.8349  -44.7126 O.2       9 UNK        -0.5000 
     27 CA          1.4565  -25.0615  -43.1721 C.3       9 UNK         0.1400 
     28 CB          1.4975  -26.4907  -42.6117 C.3       9 UNK        -0.1800 
     29 N           2.8031  -24.4800  -43.1219 N.am      9 UNK        -0.5000 
     30 C           3.1017  -23.2193  -43.4646 C.2       8 UNK         0.5000 
     31 O           2.2597  -22.4122  -43.8602 O.2       8 UNK        -0.5000 
     32 CA          4.5945  -22.8391  -43.4291 C.3       8 UNK         0.1400 
     33 CB          5.3477  -23.5430  -44.5710 C.3       8 UNK        -0.1800 
     34 N           4.8300  -21.3996  -43.5522 N.am      8 UNK        -0.5000 
     35 C           4.5598  -20.4768  -42.6195 C.2       7 UNK         0.5000 
     36 O           4.0702  -20.7417  -41.5189 O.2       7 UNK        -0.5000 
     37 CA          4.9704  -19.0177  -42.9315 C.3       7 UNK         0.1400 
     38 CB          5.4120  -18.7689  -44.3923 C.3       7 UNK        -0.1800 
     39 N           3.9593  -18.0335  -42.5326 N.am      7 UNK        -0.5000 
     40 C           2.6990  -17.9422  -42.9807 C.2       6 UNK         0.5000 
     41 O           2.1934  -18.7370  -43.7742 O.2       6 UNK        -0.5000 
     42 CA          1.8458  -16.7646  -42.4568 C.3       6 UNK         0.1400 
     43 CB          2.6622  -15.6108  -41.8316 C.3       6 UNK        -0.1800 
     44 N           0.9411  -16.2587  -43.4924 N.am      6 UNK        -0.5000 
     45 C           1.2619  -15.7291  -44.6815 C.2       5 UNK         0.5000 
     46 O           2.4126  -15.4648  -45.0323 O.2       5 UNK        -0.5000 
     47 CA          0.0991  -15.4495  -45.6562 C.3       5 UNK         0.1400 
     48 CB         -0.3181  -16.7551  -46.3608 C.3       5 UNK        -0.1800 
     49 N          -1.0495  -14.7496  -45.0536 N.am      5 UNK        -0.5000 
     50 C          -1.8988  -15.1965  -44.1152 C.2       4 UNK         0.5000 
     51 O          -1.8789  -16.3424  -43.6638 O.2       4 UNK        -0.5000 
     52 CA         -2.8874  -14.1878  -43.5115 C.3       4 UNK         0.1400 
     53 CB         -2.2068  -13.4447  -42.3428 C.3       4 UNK        -0.1800 
     54 N          -3.4271  -13.2374  -44.4878 N.am      4 UNK        -0.5000 
     55 C          -4.4976  -12.4613  -44.2578 C.2       3 UNK         0.5000 
     56 O          -5.1426  -12.4784  -43.2082 O.2       3 UNK        -0.5000 
     57 CA         -4.9410  -11.5101  -45.3833 C.3       3 UNK         0.1400 
     58 CB         -4.0656  -10.2474  -45.4155 C.3       3 UNK        -0.1800 
     59 N          -4.9261  -12.1596  -46.6914 N.am      3 UNK        -0.5000 
     60 C          -5.8539  -13.0317  -47.1131 C.2       2 UNK         0.5000 
     61 O          -6.8591  -13.3250  -46.4650 O.2       2 UNK        -0.5000 
     62 CA         -5.6272  -13.6871  -48.4914 C.3       2 UNK         0.1400 
     63 CB         -6.4845  -13.0056  -49.5688 C.3       2 UNK        -0.1800 
     64 N          -4.2266  -13.6740  -48.9197 N.am      2 UNK        -0.5000 
     65 C          -3.2563  -14.3850  -48.3292 C.2       1 UNK         0.5000 
     66 O          -3.4400  -15.1071  -47.3535 O.2       1 UNK        -0.5000 
     67 C           0.0641  -20.8440  -46.2950 C.2       11 UNK         0.5000 
     68 O          -0.7376  -20.1028  -46.8594 O.2       11 UNK        -0.5000 
     69 N          -0.1471  -21.3761  -45.0826 N.am      12 UNK        -0.5000 
     70 CA         -1.3691  -21.1990  -44.2978 C.3       12 UNK         0.1400 
     71 CB         -1.1585  -21.7700  -42.8884 C.3       12 UNK        -0.1800 
     72 C          -2.6071  -21.8258  -44.9701 C.2       12 UNK         0.5000 
     73 O          -3.6910  -21.2489  -44.8962 O.2       12 UNK        -0.5000 
     74 N          -2.4274  -22.9699  -45.6460 N.am      13 UNK        -0.5000 
     75 CA         -3.4475  -23.5947  -46.4900 C.3       13 UNK         0.1400 
     76 CB         -3.0110  -25.0178  -46.8691 C.3       13 UNK        -0.1800 
     77 C          -3.7459  -22.7564  -47.7467 C.2       13 UNK         0.5000 
     78 O          -4.9137  -22.5615  -48.0873 O.2       13 UNK        -0.5000 
     79 N          -2.6891  -22.2355  -48.3876 N.am      14 UNK        -0.5000 
     80 CA         -2.7762  -21.3522  -49.5506 C.3       14 UNK         0.1400 
     81 CB         -1.3870  -21.1604  -50.1703 C.3       14 UNK        -0.1800 
     82 C          -3.4397  -19.9965  -49.2561 C.2       14 UNK         0.5000 
     83 O          -4.0042  -19.4045  -50.1732 O.2       14 UNK        -0.5000 
     84 N          -3.4145  -19.5439  -47.9958 N.am      15 UNK        -0.5000 
     85 CA         -4.0889  -18.3296  -47.5349 C.3       15 UNK         0.1400 
     86 CB         -3.7941  -18.1052  -46.0438 C.3       15 UNK        -0.1800 
     87 C          -5.6100  -18.3666  -47.7709 C.2       15 UNK         0.5000 
     88 O          -6.1835  -17.3804  -48.2321 O.2       15 UNK        -0.5000 
     89 N          -6.2257  -19.5259  -47.4975 N.am      16 UNK        -0.5000 
     90 CA         -7.6518  -19.7786  -47.7105 C.3       16 UNK         0.1400 
     91 CB         -8.0535  -21.0525  -46.9522 C.3       16 UNK        -0.1800 
     92 C          -8.0246  -19.8940  -49.2010 C.2       16 UNK         0.5000 
     93 O          -9.1506  -19.5628  -49.5731 O.2       16 UNK        -0.5000 
     94 N          -7.0725  -20.3493  -50.0253 N.am      17 UNK        -0.5000 
     95 CA         -7.2118  -20.4783  -51.4768 C.3       17 UNK         0.1400 
     96 CB         -6.2512  -21.5739  -51.9603 C.3       17 UNK        -0.1800 
     97 C          -6.9389  -19.1623  -52.2336 C.2       17 UNK         0.5000 
     98 O          -7.2369  -19.0906  -53.4262 O.2       17 UNK        -0.5000 
     99 N          -6.3714  -18.1650  -51.5378 N.am      18 UNK        -0.5000 
    100 CA        -5.8408  -16.9020  -52.0558 C.3       18 UNK         0.1400 
    101 CB        -6.9522  -16.0257  -52.6708 C.3       18 UNK        -0.1800 
    102 C         -4.6391  -17.1397  -52.9950 C.2       18 UNK         0.5000 
    103 O         -4.6441  -16.6961  -54.1448 O.2       18 UNK        -0.5000 
    104 N         -3.6334  -17.8365  -52.4500 N.am      19 UNK        -0.5000 
    105 CA        -2.3638  -18.2549  -53.0466 C.3       19 UNK         0.1400 
    106 CB        -1.6266  -17.0835  -53.7362 C.3       19 UNK        -0.1800 
    107 C         -2.4972  -19.5089  -53.9338 C.2       19 UNK         0.5000 
    108 O         -3.5384  -20.1684  -53.9323 O.2       19 UNK        -0.5000 
    109 N         -1.4014  -19.8466  -54.6307 N.am      20 UNK        -0.5000 
    110 CA        -1.2006  -20.9382  -55.5979 C.3       20 UNK         0.1400 
    111 CB        -2.1526  -20.7895  -56.7995 C.3       20 UNK        -0.1800 
    112 C         -1.2576  -22.3746  -55.0344 C.2       20 UNK         0.5000 
    113 O         -0.4961  -23.2269  -55.4922 O.2       20 UNK        -0.5000 
    114 N         -2.1372  -22.6330  -54.0605 N.am      21 UNK        -0.5000 
    115 CA        -2.4478  -23.9653  -53.5281 C.3       21 UNK         0.1400 
    116 CB        -3.8228  -23.9175  -52.8451 C.3       21 UNK        -0.1800 
    117 C         -1.3796  -24.5762  -52.5936 C.2       21 UNK         0.5000 
    118 O         -1.6075  -25.6629  -52.0600 O.2       21 UNK        -0.5000 
    119 N         -0.2407  -23.8964  -52.4084 N.am      22 UNK        -0.5000 
    120 CA         0.9118  -24.3924  -51.6364 C.3       22 UNK         0.1400 
    121 C          1.6911  -25.5664  -52.3051 C.2       22 UNK         0.5000 
    122 N          1.5013  -25.8453  -53.5900 N.am      22 UNK        -0.7600 
    123 O          2.4735  -26.2416  -51.6427 O.2       22 UNK        -0.5000 
    124 C124        1.8624  -23.2438  -51.2075 C.3       23 UNK        -0.0398 
    125 S125        2.6127  -22.3403  -52.6094 S.3       23 UNK        -0.2404 
    126 C126        1.6901  -20.7664  -52.5805 C.3       23 UNK        -0.0205 
    127 H127       -0.0862  -10.2631  -47.5163 H         1 UNK         0.0600 
    128 H128       -1.7899   -9.8617  -47.7559 H         1 UNK         0.0600 
    129 H129       -0.7852  -10.3125  -49.1370 H         1 UNK         0.0600 
    130 H130       -1.3141  -12.3668  -49.8441 H         1 UNK         0.3000 
    131 H131       -1.1456  -14.6189  -48.1525 H         1 UNK         0.0600 
    132 H132       -2.5299  -14.9183  -50.8367 H         1 UNK         0.0800 
    133 H133       -0.8883  -14.3688  -50.8359 H         1 UNK         0.0800 
    134 H134        0.8728  -15.8915  -51.2844 H         1 UNK         0.0800 
    135 H135        1.1426  -15.7055  -49.5661 H         1 UNK         0.0800 
    136 H136        0.5223  -18.4127  -52.0964 H         1 UNK         0.1150 
    137 H137        3.6184  -20.9337  -50.5222 H         1 UNK         0.1150 
    138 H138        2.6819  -17.2326  -48.5990 H         1 UNK         0.1150 
    139 H139        5.3142  -19.4851  -48.9954 H         1 UNK         0.0800 
    140 H140        4.5107  -18.5016  -47.7983 H         1 UNK         0.0800 
    141 H141        2.3393  -19.3406  -46.7033 H         1 UNK         0.0800 
    142 H142        2.7313  -20.5321  -45.4990 H         1 UNK         0.0800 
    143 H143        1.2045  -21.0813  -48.0881 H         1 UNK         0.0600 
    144 H144        2.3113  -22.9354  -46.1625 H         1 UNK         0.3000 
    145 H145        0.4056  -25.7490  -47.1881 H         1 UNK         0.0600 
    146 H146        2.6694  -26.6725  -47.6656 H         1 UNK         0.0600 
    147 H147        2.1497  -25.6064  -48.9581 H         1 UNK         0.0600 
    148 H148        3.3318  -25.0415  -47.7846 H         1 UNK         0.0600 
    149 H149        2.6430  -25.4108  -45.4216 H         1 UNK         0.3000 
    150 H150        0.8141  -24.4612  -42.5250 H         1 UNK         0.0600 
    151 H151        2.1533  -27.1355  -43.1982 H         1 UNK         0.0600 
    152 H152        0.5037  -26.9406  -42.6176 H         1 UNK         0.0600 
    153 H153        1.8505  -26.5004  -41.5804 H         1 UNK         0.0600 
    154 H154        3.5446  -25.0931  -42.8148 H         1 UNK         0.3000 
    155 H155        5.0071  -23.1725  -42.4748 H         1 UNK         0.0600 
    156 H156        4.9585  -23.2545  -45.5484 H         1 UNK         0.0600 
    157 H157        5.2677  -24.6278  -44.4934 H         1 UNK         0.0600 
    158 H158        6.4104  -23.3001  -44.5505 H         1 UNK         0.0600 
    159 H159        5.2027  -21.0858  -44.4358 H         1 UNK         0.3000 
    160 H160        5.8381  -18.8229  -42.2997 H         1 UNK         0.0600 
    161 H161        4.6022  -18.9475  -45.0983 H         1 UNK         0.0600 
    162 H162        6.2527  -19.4034  -44.6747 H         1 UNK         0.0600 
    163 H163        5.7376  -17.7374  -44.5274 H         1 UNK         0.0600 
    164 H164        4.2658  -17.3521  -41.8533 H         1 UNK         0.3000 
    165 H165        1.2066  -17.1788  -41.6762 H         1 UNK         0.0600 
    166 H166        2.0102  -14.7898  -41.5330 H         1 UNK         0.0600 
    167 H167        3.1894  -15.9378  -40.9348 H         1 UNK         0.0600 
    168 H168        3.4014  -15.2097  -42.5259 H         1 UNK         0.0600 
    169 H169       -0.0452  -16.4633  -43.3519 H         1 UNK         0.3000 
    170 H170        0.4814  -14.7703  -46.4194 H         1 UNK         0.0600 
    171 H171        0.4719  -17.1087  -47.0240 H         1 UNK         0.0600 
    172 H172       -0.5128  -17.5553  -45.6465 H         1 UNK         0.0600 
    173 H173       -1.2154  -16.6262  -46.9630 H         1 UNK         0.0600 
    174 H174       -1.1463  -13.7868  -45.3599 H         1 UNK         0.3000 
    175 H175       -3.7208  -14.7706  -43.1132 H         1 UNK         0.0600 
    176 H176       -1.4218  -12.7764  -42.6986 H         1 UNK         0.0600 
    177 H177       -2.9182  -12.8497  -41.7710 H         1 UNK         0.0600 
    178 H178       -1.7481  -14.1465  -41.6447 H         1 UNK         0.0600 
    179 H179       -2.9647  -13.1886  -45.3889 H         1 UNK         0.3000 
    180 H180       -5.9647  -11.1943  -45.1698 H         1 UNK         0.0600 
    181 H181       -4.1356   -9.7057  -44.4715 H         1 UNK         0.0600 
    182 H182       -4.3824   -9.5657  -46.2049 H         1 UNK         0.0600 
    183 H183       -3.0139  -10.4826  -45.5751 H         1 UNK         0.0600 
    184 H184       -4.1216  -11.9929  -47.2762 H         1 UNK         0.3000 
    185 H185       -5.9474  -14.7275  -48.4118 H         1 UNK         0.0600 
    186 H186       -6.3910  -13.5153  -50.5280 H         1 UNK         0.0600 
    187 H187       -7.5405  -13.0229  -49.2959 H         1 UNK         0.0600 
    188 H188       -6.1988  -11.9627  -49.7107 H         1 UNK         0.0600 
    189 H189       -3.9925  -13.0648  -49.6899 H         1 UNK         0.3000 
    190 H190        0.5990  -21.9200  -44.6573 H         1 UNK         0.3000 
    191 H191       -1.5490  -20.1255  -44.2065 H         1 UNK         0.0600 
    192 H192       -0.2979  -21.3105  -42.4014 H         1 UNK         0.0600 
    193 H193       -2.0294  -21.5830  -42.2592 H         1 UNK         0.0600 
    194 H194       -0.9958  -22.8473  -42.9109 H         1 UNK         0.0600 
    195 H195       -1.5312  -23.4409  -45.5818 H         1 UNK         0.3000 
    196 H196       -4.3700  -23.6679  -45.9103 H         1 UNK         0.0600 
    197 H197       -3.7745  -25.5116  -47.4712 H         1 UNK         0.0600 
    198 H198       -2.8498  -25.6296  -45.9813 H         1 UNK         0.0600 
    199 H199       -2.0871  -25.0189  -47.4471 H         1 UNK         0.0600 
    200 H200       -1.7548  -22.4830  -48.0781 H         1 UNK         0.3000 
    201 H201       -3.4024  -21.8542  -50.2868 H         1 UNK         0.0600 
    202 H202       -1.4505  -20.6075  -51.1061 H         1 UNK         0.0600 
    203 H203       -0.9307  -22.1218  -50.3944 H         1 UNK         0.0600 
    204 H204       -0.7169  -20.6115  -49.5090 H         1 UNK         0.0600 
    205 H205       -2.8419  -20.0378  -47.3220 H         1 UNK         0.3000 
    206 H206       -3.6710  -17.5043  -48.1112 H         1 UNK         0.0600 
    207 H207       -2.7329  -18.2033  -45.8245 H         1 UNK         0.0600 
    208 H208       -4.1014  -17.1065  -45.7331 H         1 UNK         0.0600 
    209 H209       -4.3286  -18.8134  -45.4119 H         1 UNK         0.0600 
    210 H210       -5.6711  -20.3003  -47.1572 H         1 UNK         0.3000 
    211 H211       -8.2137  -18.9408  -47.2922 H         1 UNK         0.0600 
    212 H212       -7.5181  -21.9275  -47.3228 H         1 UNK         0.0600 
    213 H213       -9.1207  -21.2509  -47.0601 H         1 UNK         0.0600 
    214 H214       -7.8465  -20.9593  -45.8860 H         1 UNK         0.0600 
    215 H215       -6.1736  -20.5925  -49.6332 H         1 UNK         0.3000 
    216 H216       -8.2313  -20.7915  -51.7110 H         1 UNK         0.0600 
    217 H217       -6.3902  -21.7714  -53.0239 H         1 UNK         0.0600 
    218 H218       -6.4139  -22.5121  -51.4295 H         1 UNK         0.0600 
    219 H219       -5.2111  -21.2798  -51.8202 H         1 UNK         0.0600 
    220 H220       -6.1483  -18.3575  -50.5703 H         1 UNK         0.3000 
    221 H221       -5.4506  -16.3636  -51.1902 H         1 UNK         0.0600 
    222 H222       -7.3700  -16.4659  -53.5762 H         1 UNK         0.0600 
    223 H223       -7.7676  -15.8721  -51.9640 H         1 UNK         0.0600 
    224 H224       -6.5644  -15.0421  -52.9378 H         1 UNK         0.0600 
    225 H225       -3.8056  -18.2512  -51.5352 H         1 UNK         0.3000 
    226 H226       -1.7581  -18.5619  -52.1958 H         1 UNK         0.0600 
    227 H227       -0.5832  -17.3266  -53.9356 H         1 UNK         0.0600 
    228 H228       -2.0845  -16.8209  -54.6902 H         1 UNK         0.0600 
    229 H229       -1.6281  -16.1925  -53.1086 H         1 UNK         0.0600 
    230 H230       -0.6008  -19.2389  -54.5338 H         1 UNK         0.3000 
    231 H231       -0.1851  -20.8040  -55.9741 H         1 UNK         0.0600 
    232 H232       -3.1961  -20.9197  -56.5110 H         1 UNK         0.0600 
    233 H233       -1.9325  -21.5338  -57.5659 H         1 UNK         0.0600 
    234 H234       -2.0528  -19.8077  -57.2626 H         1 UNK         0.0600 
    235 H235       -2.7473  -21.8697  -53.7793 H         1 UNK         0.3000 
    236 H236       -2.5321  -24.6462  -54.3777 H         1 UNK         0.0600 
    237 H237       -4.5851  -23.5297  -53.5208 H         1 UNK         0.0600 
    238 H238       -4.1455  -24.9118  -52.5340 H         1 UNK         0.0600 
    239 H239       -3.8045  -23.2891  -51.9576 H         1 UNK         0.0600 
    240 H240       -0.1034  -23.0410  -52.9232 H         1 UNK         0.3000 
    241 H241        0.5050  -24.8106  -50.7135 H         1 UNK         0.0600 
    242 H242        0.8801  -25.2816  -54.1501 H         1 UNK         0.3800 
    243 H243        2.0063  -26.6081  -54.0128 H         1 UNK         0.3800 
    244 H244        1.3303  -22.5420  -50.5658 H         1 UNK         0.0800 
    245 H245        2.6704  -23.6338  -50.5862 H         1 UNK         0.0800 
    246 H246        1.8921  -20.2490  -53.5193 H         1 UNK         0.0800 
    247 H247        0.6223  -20.9864  -52.5748 H         1 UNK         0.0800 
@<TRIPOS>BOND
     1    1    2 1    
     2    1  127 1    
     3    1  128 1    
     4    1  129 1    
     5    2    3 2    
     6    2    4 am   BACKBONE|DICT|INTERRES
     7    4    5 1    
     8    4  130 1    
     9    5    6 1    
    10    5   65 1    
    11    5  131 1    
    12    6    7 1    
    13    6  132 1    
    14    6  133 1    
    15    7    8 1    
    16    8    9 1    
    17    8  134 1    
    18    8  135 1    
    19    9   10 ar   
    20    9   14 ar   
    21   10   11 ar   
    22   10  136 1    
    23   11   12 ar   
    24   11  126 1    
    25   12   13 ar   
    26   12  137 1    
    27   13   14 ar   
    28   13   15 1    
    29   14  138 1    
    30   15   16 1    
    31   15  139 1    
    32   15  140 1    
    33   16   17 1    
    34   17   18 1    
    35   17  141 1    
    36   17  142 1    
    37   18   19 1    
    38   18   67 1    
    39   18  143 1    
    40   19   20 am   BACKBONE|DICT|INTERRES
    41   19  144 1    
    42   20   21 2    
    43   20   22 1    
    44   22   23 1    
    45   22   24 1    
    46   22  145 1    
    47   23  146 1    
    48   23  147 1    
    49   23  148 1    
    50   24   25 am   BACKBONE|DICT|INTERRES
    51   24  149 1    
    52   25   26 2    
    53   25   27 1    
    54   27   28 1    
    55   27   29 1    
    56   27  150 1    
    57   28  151 1    
    58   28  152 1    
    59   28  153 1    
    60   29   30 am   BACKBONE|DICT|INTERRES
    61   29  154 1    
    62   30   31 2    
    63   30   32 1    
    64   32   33 1    
    65   32   34 1    
    66   32  155 1    
    67   33  156 1    
    68   33  157 1    
    69   33  158 1    
    70   34   35 am   BACKBONE|DICT|INTERRES
    71   34  159 1    
    72   35   36 2    
    73   35   37 1    
    74   37   38 1    
    75   37   39 1    
    76   37  160 1    
    77   38  161 1    
    78   38  162 1    
    79   38  163 1    
    80   39   40 am   BACKBONE|DICT|INTERRES
    81   39  164 1    
    82   40   41 2    
    83   40   42 1    
    84   42   43 1    
    85   42   44 1    
    86   42  165 1    
    87   43  166 1    
    88   43  167 1    
    89   43  168 1    
    90   44   45 am   BACKBONE|DICT|INTERRES
    91   44  169 1    
    92   45   46 2    
    93   45   47 1    
    94   47   48 1    
    95   47   49 1    
    96   47  170 1    
    97   48  171 1    
    98   48  172 1    
    99   48  173 1    
   100   49   50 am   BACKBONE|DICT|INTERRES
   101   49  174 1    
   102   50   51 2    
   103   50   52 1    
   104   52   53 1    
   105   52   54 1    
   106   52  175 1    
   107   53  176 1    
   108   53  177 1    
   109   53  178 1    
   110   54   55 am   BACKBONE|DICT|INTERRES
   111   54  179 1    
   112   55   56 2    
   113   55   57 1    
   114   57   58 1    
   115   57   59 1    
   116   57  180 1    
   117   58  181 1    
   118   58  182 1    
   119   58  183 1    
   120   59   60 am   BACKBONE|DICT|INTERRES
   121   59  184 1    
   122   60   61 2    
   123   60   62 1    
   124   62   63 1    
   125   62   64 1    
   126   62  185 1    
   127   63  186 1    
   128   63  187 1    
   129   63  188 1    
   130   64   65 am   BACKBONE|DICT|INTERRES
   131   64  189 1    
   132   65   66 2    
   133   67   68 2    
   134   67   69 am   BACKBONE|DICT|INTERRES
   135   69   70 1    
   136   69  190 1    
   137   70   71 1    
   138   70   72 1    
   139   70  191 1    
   140   71  192 1    
   141   71  193 1    
   142   71  194 1    
   143   72   73 2    
   144   72   74 am   BACKBONE|DICT|INTERRES
   145   74   75 1    
   146   74  195 1    
   147   75   76 1    
   148   75   77 1    
   149   75  196 1    
   150   76  197 1    
   151   76  198 1    
   152   76  199 1    
   153   77   78 2    
   154   77   79 am   BACKBONE|DICT|INTERRES
   155   79   80 1    
   156   79  200 1    
   157   80   81 1    
   158   80   82 1    
   159   80  201 1    
   160   81  202 1    
   161   81  203 1    
   162   81  204 1    
   163   82   83 2    
   164   82   84 am   BACKBONE|DICT|INTERRES
   165   84   85 1    
   166   84  205 1    
   167   85   86 1    
   168   85   87 1    
   169   85  206 1    
   170   86  207 1    
   171   86  208 1    
   172   86  209 1    
   173   87   88 2    
   174   87   89 am   BACKBONE|DICT|INTERRES
   175   89   90 1    
   176   89  210 1    
   177   90   91 1    
   178   90   92 1    
   179   90  211 1    
   180   91  212 1    
   181   91  213 1    
   182   91  214 1    
   183   92   93 2    
   184   92   94 am   BACKBONE|DICT|INTERRES
   185   94   95 1    
   186   94  215 1    
   187   95   96 1    
   188   95   97 1    
   189   95  216 1    
   190   96  217 1    
   191   96  218 1    
   192   96  219 1    
   193   97   98 2    
   194   97   99 am   BACKBONE|DICT|INTERRES
   195   99  100 1    
   196   99  220 1    
   197  100  101 1    
   198  100  102 1    
   199  100  221 1    
   200  101  222 1    
   201  101  223 1    
   202  101  224 1    
   203  102  103 2    
   204  102  104 am   BACKBONE|DICT|INTERRES
   205  104  105 1    
   206  104  225 1    
   207  105  106 1    
   208  105  107 1    
   209  105  226 1    
   210  106  227 1    
   211  106  228 1    
   212  106  229 1    
   213  107  108 2    
   214  107  109 am   BACKBONE|DICT|INTERRES
   215  109  110 1    
   216  109  230 1    
   217  110  111 1    
   218  110  112 1    
   219  110  231 1    
   220  111  232 1    
   221  111  233 1    
   222  111  234 1    
   223  112  113 2    
   224  112  114 am   BACKBONE|DICT|INTERRES
   225  114  115 1    
   226  114  235 1    
   227  115  116 1    
   228  115  117 1    
   229  115  236 1    
   230  116  237 1    
   231  116  238 1    
   232  116  239 1    
   233  117  118 2    
   234  117  119 am   BACKBONE|DICT|INTERRES
   235  119  120 1    
   236  119  240 1    
   237  120  121 1    
   238  120  124 1    
   239  120  241 1    
   240  121  122 am   BACKBONE|DICT|INTERRES
   241  121  123 2    
   242  122  242 1    
   243  122  243 1    
   244  124  125 1    
   245  124  244 1    
   246  124  245 1    
   247  125  126 1    
   248  126  246 1    
   249  126  247 1    
@<TRIPOS>SUBSTRUCTURE
     1 UNK         1 GROUP             0       ****    0 ROOT    
