@<TRIPOS>MOLECULE
3R540
247   249    1
SMALL
USER_CHARGES


@<TRIPOS>ATOM
      1 CA          2.1570  -17.1126  -50.5812 C.3       0 UNK        -0.1800 
      2 C           2.1308  -15.6380  -50.2029 C.2       0 UNK         0.5000 
      3 O           2.9429  -14.8632  -50.7077 O.2       0 UNK        -0.5000 
      4 N           1.2010  -15.2558  -49.3170 N.am      1 UNK        -0.5000 
      5 CA          1.0008  -13.8988  -48.7894 C.3       1 UNK         0.1400 
      6 C6          0.4879  -12.8899  -49.8667 C.3       23 UNK        -0.0398 
      7 S7         -1.1076  -12.1460  -49.3767 S.3       23 UNK        -0.2404 
      8 C8         -2.3038  -13.0607  -50.4097 C.3       23 UNK        -0.0205 
      9 C9         -2.1326  -14.5711  -50.3117 C.ar      23 UNK        -0.0193 
     10 C10        -1.6474  -15.2910  -51.4078 C.ar      23 UNK        -0.1150 
     11 C11        -1.4405  -16.6688  -51.3170 C.ar      23 UNK        -0.0193 
     12 C12        -1.7152  -17.3238  -50.1148 C.ar      23 UNK        -0.1150 
     13 C13        -2.2339  -16.6253  -49.0166 C.ar      23 UNK        -0.0193 
     14 C14        -2.4394  -15.2461  -49.1255 C.ar      23 UNK        -0.1150 
     15 C15        -2.5292  -17.3354  -47.6972 C.3       23 UNK        -0.0205 
     16 S16        -3.2758  -18.9852  -47.9329 S.3       23 UNK        -0.2404 
     17 C17        -2.8805  -19.8462  -46.3724 C.3       23 UNK        -0.0398 
     18 CA         -1.3737  -20.1698  -46.1296 C.3       11 UNK         0.1400 
     19 N          -1.1115  -20.4483  -44.7187 N.am      11 UNK        -0.5000 
     20 C          -1.6143  -21.4536  -43.9891 C.2       10 UNK         0.5000 
     21 O          -2.3452  -22.3397  -44.4344 O.2       10 UNK        -0.5000 
     22 CA         -1.2894  -21.4182  -42.4845 C.3       10 UNK         0.1400 
     23 CB          0.1401  -21.9142  -42.2179 C.3       10 UNK        -0.1800 
     24 N          -1.4628  -20.0769  -41.9201 N.am      10 UNK        -0.5000 
     25 C          -2.6401  -19.4378  -41.8365 C.2       9 UNK         0.5000 
     26 O          -3.7202  -19.9501  -42.1334 O.2       9 UNK        -0.5000 
     27 CA         -2.6104  -17.9751  -41.3596 C.3       9 UNK         0.1400 
     28 CB         -2.5592  -17.9059  -39.8258 C.3       9 UNK        -0.1800 
     29 N          -1.4960  -17.2153  -41.9276 N.am      9 UNK        -0.5000 
     30 C          -1.3747  -16.8855  -43.2223 C.2       8 UNK         0.5000 
     31 O          -2.2183  -17.1467  -44.0795 O.2       8 UNK        -0.5000 
     32 CA         -0.0766  -16.1673  -43.6385 C.3       8 UNK         0.1400 
     33 CB         -0.1666  -14.6624  -43.3502 C.3       8 UNK        -0.1800 
     34 N           1.1092  -16.7204  -42.9838 N.am      8 UNK        -0.5000 
     35 C           1.5632  -17.9677  -43.1698 C.2       7 UNK         0.5000 
     36 O           1.0625  -18.7664  -43.9609 O.2       7 UNK        -0.5000 
     37 CA          2.7415  -18.4153  -42.2894 C.3       7 UNK         0.1400 
     38 CB          4.0813  -17.9546  -42.8794 C.3       7 UNK        -0.1800 
     39 N           2.6139  -17.9269  -40.9171 N.am      7 UNK        -0.5000 
     40 C           1.7039  -18.3743  -40.0408 C.2       6 UNK         0.5000 
     41 O           0.8921  -19.2646  -40.2922 O.2       6 UNK        -0.5000 
     42 CA          1.6712  -17.6785  -38.6682 C.3       6 UNK         0.1400 
     43 CB          2.7513  -18.2550  -37.7407 C.3       6 UNK        -0.1800 
     44 N           1.8398  -16.2278  -38.7697 N.am      6 UNK        -0.5000 
     45 C           0.9537  -15.4052  -39.3483 C.2       5 UNK         0.5000 
     46 O          -0.1077  -15.7827  -39.8406 O.2       5 UNK        -0.5000 
     47 CA          1.3342  -13.9168  -39.4295 C.3       5 UNK         0.1400 
     48 CB          0.9223  -13.1836  -38.1443 C.3       5 UNK        -0.1800 
     49 N           2.7577  -13.6854  -39.6868 N.am      5 UNK        -0.5000 
     50 C           3.4118  -14.0929  -40.7818 C.2       4 UNK         0.5000 
     51 O           2.9082  -14.7878  -41.6679 O.2       4 UNK        -0.5000 
     52 CA          4.8840  -13.6687  -40.8986 C.3       4 UNK         0.1400 
     53 CB          5.8164  -14.8851  -40.7905 C.3       4 UNK        -0.1800 
     54 N           5.1106  -12.9955  -42.1739 N.am      4 UNK        -0.5000 
     55 C           4.7358  -11.7377  -42.4461 C.2       3 UNK         0.5000 
     56 O           4.2464  -10.9746  -41.6121 O.2       3 UNK        -0.5000 
     57 CA          4.9409  -11.2483  -43.8930 C.3       3 UNK         0.1400 
     58 CB          6.2973  -10.5403  -44.0347 C.3       3 UNK        -0.1800 
     59 N           4.8604  -12.3323  -44.8751 N.am      3 UNK        -0.5000 
     60 C           3.7203  -12.9297  -45.2451 C.2       2 UNK         0.5000 
     61 O           2.6076  -12.6073  -44.8233 O.2       2 UNK        -0.5000 
     62 CA          3.8675  -14.1124  -46.2219 C.3       2 UNK         0.1400 
     63 CB          4.1038  -15.4125  -45.4384 C.3       2 UNK        -0.1800 
     64 N           2.7039  -14.3038  -47.0872 N.am      2 UNK        -0.5000 
     65 C           2.2278  -13.4191  -47.9752 C.2       1 UNK         0.5000 
     66 O           2.7359  -12.3139  -48.1757 O.2       1 UNK        -0.5000 
     67 C          -0.7642  -21.2434  -47.0666 C.2       11 UNK         0.5000 
     68 O           0.0231  -22.0890  -46.6306 O.2       11 UNK        -0.5000 
     69 N          -1.0930  -21.1624  -48.3608 N.am      12 UNK        -0.5000 
     70 CA         -0.6431  -22.0621  -49.4184 C.3       12 UNK         0.1400 
     71 CB         -0.8214  -21.3604  -50.7769 C.3       12 UNK        -0.1800 
     72 C          -1.4020  -23.3975  -49.3427 C.2       12 UNK         0.5000 
     73 O          -2.3150  -23.6377  -50.1358 O.2       12 UNK        -0.5000 
     74 N          -1.0372  -24.2311  -48.3608 N.am      13 UNK        -0.5000 
     75 CA         -1.6396  -25.5359  -48.0690 C.3       13 UNK         0.1400 
     76 CB         -0.9661  -26.1349  -46.8263 C.3       13 UNK        -0.1800 
     77 C          -1.5812  -26.5237  -49.2502 C.2       13 UNK         0.5000 
     78 O          -2.5247  -27.2887  -49.4494 O.2       13 UNK        -0.5000 
     79 N          -0.5114  -26.4366  -50.0537 N.am      14 UNK        -0.5000 
     80 CA         -0.3280  -27.1822  -51.3031 C.3       14 UNK         0.1400 
     81 CB          1.1124  -26.9759  -51.7956 C.3       14 UNK        -0.1800 
     82 C          -1.3345  -26.7956  -52.4083 C.2       14 UNK         0.5000 
     83 O          -1.5796  -27.5978  -53.3094 O.2       14 UNK        -0.5000 
     84 N          -1.9125  -25.5919  -52.3048 N.am      15 UNK        -0.5000 
     85 CA         -2.9711  -25.0675  -53.1649 C.3       15 UNK         0.1400 
     86 CB         -2.5806  -23.6475  -53.6099 C.3       15 UNK        -0.1800 
     87 C          -4.3320  -25.0805  -52.4392 C.2       15 UNK         0.5000 
     88 O          -5.2165  -24.3054  -52.8053 O.2       15 UNK        -0.5000 
     89 N          -4.4703  -25.9350  -51.4121 N.am      16 UNK        -0.5000 
     90 CA         -5.6521  -26.1257  -50.5653 C.3       16 UNK         0.1400 
     91 CB         -6.8057  -26.7508  -51.3771 C.3       16 UNK        -0.1800 
     92 C          -6.0525  -24.8430  -49.8075 C.2       16 UNK         0.5000 
     93 O          -7.2246  -24.4676  -49.7960 O.2       16 UNK        -0.5000 
     94 N          -5.0474  -24.1829  -49.2129 N.am      17 UNK        -0.5000 
     95 CA         -5.1169  -22.8875  -48.5256 C.3       17 UNK         0.1400 
     96 CB         -6.0216  -22.9506  -47.2779 C.3       17 UNK        -0.1800 
     97 C          -5.4852  -21.7574  -49.5057 C.2       17 UNK         0.5000 
     98 O          -6.3816  -20.9578  -49.2341 O.2       17 UNK        -0.5000 
     99 N          -4.7850  -21.7548  -50.6500 N.am      18 UNK        -0.5000 
    100 CA        -4.9158  -20.8317  -51.7833 C.3       18 UNK         0.1400 
    101 CB        -4.5742  -19.3878  -51.3669 C.3       18 UNK        -0.1800 
    102 C         -6.2539  -20.9144  -52.5490 C.2       18 UNK         0.5000 
    103 O         -6.5107  -20.0586  -53.3974 O.2       18 UNK        -0.5000 
    104 N         -7.0629  -21.9541  -52.2978 N.am      19 UNK        -0.5000 
    105 CA        -8.3146  -22.2242  -53.0104 C.3       19 UNK         0.1400 
    106 CB        -9.0848  -23.3429  -52.2972 C.3       19 UNK        -0.1800 
    107 C         -8.0934  -22.5731  -54.4949 C.2       19 UNK         0.5000 
    108 O         -8.9291  -22.2265  -55.3296 O.2       19 UNK        -0.5000 
    109 N         -6.9456  -23.1907  -54.8071 N.am      20 UNK        -0.5000 
    110 CA        -6.4663  -23.4624  -56.1638 C.3       20 UNK         0.1400 
    111 CB        -5.6735  -24.7813  -56.1585 C.3       20 UNK        -0.1800 
    112 C         -5.6454  -22.2837  -56.7374 C.2       20 UNK         0.5000 
    113 O         -4.6887  -22.5081  -57.4814 O.2       20 UNK        -0.5000 
    114 N         -6.0146  -21.0472  -56.3664 N.am      21 UNK        -0.5000 
    115 CA        -5.4655  -19.7647  -56.8270 C.3       21 UNK         0.1400 
    116 CB        -5.8814  -19.5074  -58.2901 C.3       21 UNK        -0.1800 
    117 C         -3.9444  -19.6230  -56.6039 C.2       21 UNK         0.5000 
    118 O         -3.2439  -19.0643  -57.4500 O.2       21 UNK        -0.5000 
    119 N         -3.4671  -20.1606  -55.4734 N.am      22 UNK        -0.5000 
    120 CA        -2.0476  -20.2516  -55.0798 C.3       22 UNK         0.1400 
    121 C         -1.1977  -21.2297  -55.9519 C.2       22 UNK         0.5000 
    122 N         -1.7889  -22.0638  -56.8009 N.am      22 UNK        -0.7600 
    123 O          0.0237  -21.2632  -55.8321 O.2       22 UNK        -0.5000 
    124 C124       -1.3590  -18.8648  -54.9100 C.3       23 UNK        -0.0398 
    125 S125       -2.2237  -17.7854  -53.7175 S.3       23 UNK        -0.2404 
    126 C126       -0.9066  -17.4453  -52.5108 C.3       23 UNK        -0.0205 
    127 H127        1.3452  -17.6683  -50.1112 H         1 UNK         0.0600 
    128 H128        3.1002  -17.5617  -50.2703 H         1 UNK         0.0600 
    129 H129        2.0659  -17.2252  -51.6612 H         1 UNK         0.0600 
    130 H130        0.5469  -15.9452  -48.9756 H         1 UNK         0.3000 
    131 H131        0.2186  -14.0263  -48.0393 H         1 UNK         0.0600 
    132 H132        0.3658  -13.3761  -50.8345 H         1 UNK         0.0800 
    133 H133        1.1916  -12.0812  -50.0650 H         1 UNK         0.0800 
    134 H134       -2.2018  -12.7280  -51.4438 H         1 UNK         0.0800 
    135 H135       -3.3155  -12.7932  -50.1021 H         1 UNK         0.0800 
    136 H136       -1.4186  -14.7794  -52.3321 H         1 UNK         0.1150 
    137 H137       -1.5315  -18.3853  -50.0415 H         1 UNK         0.1150 
    138 H138       -2.8159  -14.6883  -48.2794 H         1 UNK         0.1150 
    139 H139       -1.5965  -17.4052  -47.1407 H         1 UNK         0.0800 
    140 H140       -3.2065  -16.7397  -47.0830 H         1 UNK         0.0800 
    141 H141       -3.4747  -20.7602  -46.3322 H         1 UNK         0.0800 
    142 H142       -3.2559  -19.2190  -45.5621 H         1 UNK         0.0800 
    143 H143       -0.7931  -19.2700  -46.3251 H         1 UNK         0.0600 
    144 H144       -0.4535  -19.8128  -44.2743 H         1 UNK         0.3000 
    145 H145       -1.9826  -22.0909  -41.9754 H         1 UNK         0.0600 
    146 H146        0.3478  -21.9598  -41.1487 H         1 UNK         0.0600 
    147 H147        0.2866  -22.9166  -42.6220 H         1 UNK         0.0600 
    148 H148        0.8856  -21.2634  -42.6753 H         1 UNK         0.0600 
    149 H149       -0.6254  -19.6094  -41.5885 H         1 UNK         0.3000 
    150 H150       -3.5384  -17.5018  -41.6870 H         1 UNK         0.0600 
    151 H151       -3.3825  -18.4660  -39.3808 H         1 UNK         0.0600 
    152 H152       -2.6405  -16.8769  -39.4756 H         1 UNK         0.0600 
    153 H153       -1.6296  -18.3202  -39.4344 H         1 UNK         0.0600 
    154 H154       -0.7907  -16.8920  -41.2718 H         1 UNK         0.3000 
    155 H155        0.0465  -16.2988  -44.7156 H         1 UNK         0.0600 
    156 H156       -0.3037  -14.4629  -42.2875 H         1 UNK         0.0600 
    157 H157       -1.0063  -14.2126  -43.8811 H         1 UNK         0.0600 
    158 H158        0.7375  -14.1462  -43.6717 H         1 UNK         0.0600 
    159 H159        1.6134  -16.1052  -42.3517 H         1 UNK         0.3000 
    160 H160        2.7422  -19.5072  -42.2654 H         1 UNK         0.0600 
    161 H161        4.9207  -18.3395  -42.3002 H         1 UNK         0.0600 
    162 H162        4.1578  -16.8686  -42.8980 H         1 UNK         0.0600 
    163 H163        4.2009  -18.3106  -43.9035 H         1 UNK         0.0600 
    164 H164        3.2040  -17.1524  -40.6524 H         1 UNK         0.3000 
    165 H165        0.6954  -17.8759  -38.2191 H         1 UNK         0.0600 
    166 H166        2.6831  -17.8247  -36.7414 H         1 UNK         0.0600 
    167 H167        2.6392  -19.3351  -37.6364 H         1 UNK         0.0600 
    168 H168        3.7555  -18.0641  -38.1211 H         1 UNK         0.0600 
    169 H169        2.6890  -15.8346  -38.3919 H         1 UNK         0.3000 
    170 H170        0.7761  -13.4819  -40.2610 H         1 UNK         0.0600 
    171 H171       -0.1400  -13.3231  -37.9388 H         1 UNK         0.0600 
    172 H172        1.4750  -13.5473  -37.2772 H         1 UNK         0.0600 
    173 H173        1.0967  -12.1108  -38.2288 H         1 UNK         0.0600 
    174 H174        3.2474  -13.1190  -39.0092 H         1 UNK         0.3000 
    175 H175        5.1281  -12.9803  -40.0865 H         1 UNK         0.0600 
    176 H176        5.6633  -15.5888  -41.6084 H         1 UNK         0.0600 
    177 H177        6.8626  -14.5792  -40.8072 H         1 UNK         0.0600 
    178 H178        5.6509  -15.4240  -39.8567 H         1 UNK         0.0600 
    179 H179        5.4664  -13.5633  -42.9273 H         1 UNK         0.3000 
    180 H180        4.1545  -10.5227  -44.1119 H         1 UNK         0.0600 
    181 H181        7.1291  -11.2183  -43.8394 H         1 UNK         0.0600 
    182 H182        6.3790   -9.7099  -43.3321 H         1 UNK         0.0600 
    183 H183        6.4253  -10.1301  -45.0366 H         1 UNK         0.0600 
    184 H184        5.7347  -12.6483  -45.2700 H         1 UNK         0.3000 
    185 H185        4.7297  -13.9269  -46.8656 H         1 UNK         0.0600 
    186 H186        3.2535  -15.6461  -44.7963 H         1 UNK         0.0600 
    187 H187        4.9853  -15.3351  -44.8009 H         1 UNK         0.0600 
    188 H188        4.2626  -16.2581  -46.1079 H         1 UNK         0.0600 
    189 H189        2.2253  -15.1867  -46.9956 H         1 UNK         0.3000 
    190 H190       -1.7632  -20.4540  -48.6310 H         1 UNK         0.3000 
    191 H191        0.4206  -22.2699  -49.2856 H         1 UNK         0.0600 
    192 H192       -0.5009  -22.0062  -51.5953 H         1 UNK         0.0600 
    193 H193       -0.2204  -20.4529  -50.8292 H         1 UNK         0.0600 
    194 H194       -1.8598  -21.0854  -50.9611 H         1 UNK         0.0600 
    195 H195       -0.3394  -23.8984  -47.7046 H         1 UNK         0.3000 
    196 H196       -2.6921  -25.3669  -47.8339 H         1 UNK         0.0600 
    197 H197       -1.4098  -27.0967  -46.5655 H         1 UNK         0.0600 
    198 H198       -1.0816  -25.4797  -45.9623 H         1 UNK         0.0600 
    199 H199        0.1009  -26.2962  -46.9848 H         1 UNK         0.0600 
    200 H200        0.2132  -25.7769  -49.8110 H         1 UNK         0.3000 
    201 H201       -0.4697  -28.2432  -51.0871 H         1 UNK         0.0600 
    202 H202        1.3173  -25.9265  -52.0116 H         1 UNK         0.0600 
    203 H203        1.2980  -27.5413  -52.7099 H         1 UNK         0.0600 
    204 H204        1.8360  -27.3147  -51.0539 H         1 UNK         0.0600 
    205 H205       -1.6914  -25.0130  -51.5031 H         1 UNK         0.3000 
    206 H206       -3.0781  -25.6870  -54.0570 H         1 UNK         0.0600 
    207 H207       -1.6141  -23.6501  -54.1136 H         1 UNK         0.0600 
    208 H208       -3.3077  -23.2337  -54.3090 H         1 UNK         0.0600 
    209 H209       -2.5131  -22.9659  -52.7630 H         1 UNK         0.0600 
    210 H210       -3.6710  -26.5031  -51.1601 H         1 UNK         0.3000 
    211 H211       -5.3675  -26.8474  -49.7983 H         1 UNK         0.0600 
    212 H212       -6.5066  -27.7068  -51.8066 H         1 UNK         0.0600 
    213 H213       -7.1248  -26.1070  -52.1957 H         1 UNK         0.0600 
    214 H214       -7.6756  -26.9383  -50.7466 H         1 UNK         0.0600 
    215 H215       -4.1094  -24.5235  -49.3800 H         1 UNK         0.3000 
    216 H216       -4.1076  -22.6678  -48.1755 H         1 UNK         0.0600 
    217 H217       -5.9616  -22.0214  -46.7101 H         1 UNK         0.0600 
    218 H218       -5.7172  -23.7577  -46.6117 H         1 UNK         0.0600 
    219 H219       -7.0691  -23.1050  -47.5374 H         1 UNK         0.0600 
    220 H220       -4.0874  -22.4812  -50.7601 H         1 UNK         0.3000 
    221 H221       -4.1581  -21.1437  -52.5019 H         1 UNK         0.0600 
    222 H222       -5.2687  -18.9980  -50.6231 H         1 UNK         0.0600 
    223 H223       -3.5704  -19.3308  -50.9514 H         1 UNK         0.0600 
    224 H224       -4.6046  -18.7097  -52.2195 H         1 UNK         0.0600 
    225 H225       -6.7666  -22.6447  -51.6214 H         1 UNK         0.3000 
    226 H226       -8.9222  -21.3177  -52.9717 H         1 UNK         0.0600 
    227 H227      -10.0435  -23.5291  -52.7827 H         1 UNK         0.0600 
    228 H228       -8.5270  -24.2783  -52.3026 H         1 UNK         0.0600 
    229 H229       -9.2901  -23.0812  -51.2590 H         1 UNK         0.0600 
    230 H230       -6.3233  -23.4626  -54.0482 H         1 UNK         0.3000 
    231 H231       -7.3239  -23.6001  -56.8251 H         1 UNK         0.0600 
    232 H232       -6.2533  -25.5902  -55.7137 H         1 UNK         0.0600 
    233 H233       -4.7438  -24.6885  -55.5995 H         1 UNK         0.0600 
    234 H234       -5.4156  -25.0873  -57.1730 H         1 UNK         0.0600 
    235 H235       -6.7804  -20.9708  -55.7102 H         1 UNK         0.3000 
    236 H236       -5.9318  -18.9948  -56.2104 H         1 UNK         0.0600 
    237 H237       -6.9618  -19.5850  -58.4121 H         1 UNK         0.0600 
    238 H238       -5.5921  -18.5060  -58.6110 H         1 UNK         0.0600 
    239 H239       -5.4149  -20.2186  -58.9726 H         1 UNK         0.0600 
    240 H240       -4.1309  -20.5961  -54.8525 H         1 UNK         0.3000 
    241 H241       -2.0576  -20.7164  -54.0937 H         1 UNK         0.0600 
    242 H242       -2.7934  -22.0613  -56.9405 H         1 UNK         0.3800 
    243 H243       -1.2188  -22.6920  -57.3439 H         1 UNK         0.3800 
    244 H244       -0.3277  -18.9934  -54.5778 H         1 UNK         0.0800 
    245 H245       -1.2961  -18.3429  -55.8652 H         1 UNK         0.0800 
    246 H246       -0.4624  -18.3859  -52.1829 H         1 UNK         0.0800 
    247 H247       -0.1113  -16.8764  -52.9946 H         1 UNK         0.0800 
@<TRIPOS>BOND
     1    1    2 1    
     2    1  127 1    
     3    1  128 1    
     4    1  129 1    
     5    2    3 2    
     6    2    4 am   BACKBONE|DICT|INTERRES
     7    4    5 1    
     8    4  130 1    
     9    5    6 1    
    10    5   65 1    
    11    5  131 1    
    12    6    7 1    
    13    6  132 1    
    14    6  133 1    
    15    7    8 1    
    16    8    9 1    
    17    8  134 1    
    18    8  135 1    
    19    9   10 ar   
    20    9   14 ar   
    21   10   11 ar   
    22   10  136 1    
    23   11   12 ar   
    24   11  126 1    
    25   12   13 ar   
    26   12  137 1    
    27   13   14 ar   
    28   13   15 1    
    29   14  138 1    
    30   15   16 1    
    31   15  139 1    
    32   15  140 1    
    33   16   17 1    
    34   17   18 1    
    35   17  141 1    
    36   17  142 1    
    37   18   19 1    
    38   18   67 1    
    39   18  143 1    
    40   19   20 am   BACKBONE|DICT|INTERRES
    41   19  144 1    
    42   20   21 2    
    43   20   22 1    
    44   22   23 1    
    45   22   24 1    
    46   22  145 1    
    47   23  146 1    
    48   23  147 1    
    49   23  148 1    
    50   24   25 am   BACKBONE|DICT|INTERRES
    51   24  149 1    
    52   25   26 2    
    53   25   27 1    
    54   27   28 1    
    55   27   29 1    
    56   27  150 1    
    57   28  151 1    
    58   28  152 1    
    59   28  153 1    
    60   29   30 am   BACKBONE|DICT|INTERRES
    61   29  154 1    
    62   30   31 2    
    63   30   32 1    
    64   32   33 1    
    65   32   34 1    
    66   32  155 1    
    67   33  156 1    
    68   33  157 1    
    69   33  158 1    
    70   34   35 am   BACKBONE|DICT|INTERRES
    71   34  159 1    
    72   35   36 2    
    73   35   37 1    
    74   37   38 1    
    75   37   39 1    
    76   37  160 1    
    77   38  161 1    
    78   38  162 1    
    79   38  163 1    
    80   39   40 am   BACKBONE|DICT|INTERRES
    81   39  164 1    
    82   40   41 2    
    83   40   42 1    
    84   42   43 1    
    85   42   44 1    
    86   42  165 1    
    87   43  166 1    
    88   43  167 1    
    89   43  168 1    
    90   44   45 am   BACKBONE|DICT|INTERRES
    91   44  169 1    
    92   45   46 2    
    93   45   47 1    
    94   47   48 1    
    95   47   49 1    
    96   47  170 1    
    97   48  171 1    
    98   48  172 1    
    99   48  173 1    
   100   49   50 am   BACKBONE|DICT|INTERRES
   101   49  174 1    
   102   50   51 2    
   103   50   52 1    
   104   52   53 1    
   105   52   54 1    
   106   52  175 1    
   107   53  176 1    
   108   53  177 1    
   109   53  178 1    
   110   54   55 am   BACKBONE|DICT|INTERRES
   111   54  179 1    
   112   55   56 2    
   113   55   57 1    
   114   57   58 1    
   115   57   59 1    
   116   57  180 1    
   117   58  181 1    
   118   58  182 1    
   119   58  183 1    
   120   59   60 am   BACKBONE|DICT|INTERRES
   121   59  184 1    
   122   60   61 2    
   123   60   62 1    
   124   62   63 1    
   125   62   64 1    
   126   62  185 1    
   127   63  186 1    
   128   63  187 1    
   129   63  188 1    
   130   64   65 am   BACKBONE|DICT|INTERRES
   131   64  189 1    
   132   65   66 2    
   133   67   68 2    
   134   67   69 am   BACKBONE|DICT|INTERRES
   135   69   70 1    
   136   69  190 1    
   137   70   71 1    
   138   70   72 1    
   139   70  191 1    
   140   71  192 1    
   141   71  193 1    
   142   71  194 1    
   143   72   73 2    
   144   72   74 am   BACKBONE|DICT|INTERRES
   145   74   75 1    
   146   74  195 1    
   147   75   76 1    
   148   75   77 1    
   149   75  196 1    
   150   76  197 1    
   151   76  198 1    
   152   76  199 1    
   153   77   78 2    
   154   77   79 am   BACKBONE|DICT|INTERRES
   155   79   80 1    
   156   79  200 1    
   157   80   81 1    
   158   80   82 1    
   159   80  201 1    
   160   81  202 1    
   161   81  203 1    
   162   81  204 1    
   163   82   83 2    
   164   82   84 am   BACKBONE|DICT|INTERRES
   165   84   85 1    
   166   84  205 1    
   167   85   86 1    
   168   85   87 1    
   169   85  206 1    
   170   86  207 1    
   171   86  208 1    
   172   86  209 1    
   173   87   88 2    
   174   87   89 am   BACKBONE|DICT|INTERRES
   175   89   90 1    
   176   89  210 1    
   177   90   91 1    
   178   90   92 1    
   179   90  211 1    
   180   91  212 1    
   181   91  213 1    
   182   91  214 1    
   183   92   93 2    
   184   92   94 am   BACKBONE|DICT|INTERRES
   185   94   95 1    
   186   94  215 1    
   187   95   96 1    
   188   95   97 1    
   189   95  216 1    
   190   96  217 1    
   191   96  218 1    
   192   96  219 1    
   193   97   98 2    
   194   97   99 am   BACKBONE|DICT|INTERRES
   195   99  100 1    
   196   99  220 1    
   197  100  101 1    
   198  100  102 1    
   199  100  221 1    
   200  101  222 1    
   201  101  223 1    
   202  101  224 1    
   203  102  103 2    
   204  102  104 am   BACKBONE|DICT|INTERRES
   205  104  105 1    
   206  104  225 1    
   207  105  106 1    
   208  105  107 1    
   209  105  226 1    
   210  106  227 1    
   211  106  228 1    
   212  106  229 1    
   213  107  108 2    
   214  107  109 am   BACKBONE|DICT|INTERRES
   215  109  110 1    
   216  109  230 1    
   217  110  111 1    
   218  110  112 1    
   219  110  231 1    
   220  111  232 1    
   221  111  233 1    
   222  111  234 1    
   223  112  113 2    
   224  112  114 am   BACKBONE|DICT|INTERRES
   225  114  115 1    
   226  114  235 1    
   227  115  116 1    
   228  115  117 1    
   229  115  236 1    
   230  116  237 1    
   231  116  238 1    
   232  116  239 1    
   233  117  118 2    
   234  117  119 am   BACKBONE|DICT|INTERRES
   235  119  120 1    
   236  119  240 1    
   237  120  121 1    
   238  120  124 1    
   239  120  241 1    
   240  121  122 am   BACKBONE|DICT|INTERRES
   241  121  123 2    
   242  122  242 1    
   243  122  243 1    
   244  124  125 1    
   245  124  244 1    
   246  124  245 1    
   247  125  126 1    
   248  126  246 1    
   249  126  247 1    
@<TRIPOS>SUBSTRUCTURE
     1 UNK         1 GROUP             0       ****    0 ROOT    
