@<TRIPOS>MOLECULE
3R540
247   249    1
SMALL
USER_CHARGES


@<TRIPOS>ATOM
      1 CA         -3.0799  -10.8080  -48.9758 C.3       0 UNK        -0.1800 
      2 C          -1.6934  -11.2554  -49.4162 C.2       0 UNK         0.5000 
      3 O          -0.9133  -10.4394  -49.9074 O.2       0 UNK        -0.5000 
      4 N          -1.3851  -12.5468  -49.2413 N.am      1 UNK        -0.5000 
      5 CA         -0.0984  -13.1662  -49.5948 C.3       1 UNK         0.1400 
      6 C6         -0.1778  -14.7115  -49.5771 C.3       23 UNK        -0.0398 
      7 S7         -1.4368  -15.3563  -50.7271 S.3       23 UNK        -0.2404 
      8 C8         -1.3886  -17.1344  -50.3190 C.3       23 UNK        -0.0205 
      9 C9         -0.1026  -17.8678  -50.7038 C.ar      23 UNK        -0.0193 
     10 C10         0.7661  -17.4050  -51.7032 C.ar      23 UNK        -0.1150 
     11 C11         1.9149  -18.1266  -52.0422 C.ar      23 UNK        -0.0193 
     12 C12         2.1859  -19.3321  -51.3910 C.ar      23 UNK        -0.1150 
     13 C13         1.3225  -19.8153  -50.4058 C.ar      23 UNK        -0.0193 
     14 C14         0.1888  -19.0753  -50.0619 C.ar      23 UNK        -0.1150 
     15 C15         1.5903  -21.1528  -49.7379 C.3       23 UNK        -0.0205 
     16 S16         2.0891  -20.9506  -48.0001 S.3       23 UNK        -0.2404 
     17 C17         2.2318  -22.6953  -47.4871 C.3       23 UNK        -0.0398 
     18 CA          1.0164  -23.2875  -46.7296 C.3       11 UNK         0.1400 
     19 N           0.8675  -22.8001  -45.3550 N.am      11 UNK        -0.5000 
     20 C           0.1455  -23.4575  -44.4334 C.2       10 UNK         0.5000 
     21 O          -0.4451  -24.5140  -44.6611 O.2       10 UNK        -0.5000 
     22 CA          0.0313  -22.8335  -43.0346 C.3       10 UNK         0.1400 
     23 CB          1.3147  -23.0747  -42.2262 C.3       10 UNK        -0.1800 
     24 N          -0.2854  -21.4073  -43.0659 N.am      10 UNK        -0.5000 
     25 C          -1.4142  -20.8855  -43.5668 C.2       9 UNK         0.5000 
     26 O          -2.3157  -21.5577  -44.0671 O.2       9 UNK        -0.5000 
     27 CA         -1.5416  -19.3511  -43.5388 C.3       9 UNK         0.1400 
     28 CB         -1.9172  -18.8515  -42.1357 C.3       9 UNK        -0.1800 
     29 N          -0.3196  -18.6847  -43.9847 N.am      9 UNK        -0.5000 
     30 C           0.1883  -18.7917  -45.2208 C.2       8 UNK         0.5000 
     31 O          -0.3565  -19.4102  -46.1348 O.2       8 UNK        -0.5000 
     32 CA          1.5590  -18.1351  -45.4533 C.3       8 UNK         0.1400 
     33 CB          1.4126  -16.6262  -45.7057 C.3       8 UNK        -0.1800 
     34 N           2.4716  -18.3667  -44.3323 N.am      8 UNK        -0.5000 
     35 C           2.9710  -19.5658  -43.9952 C.2       7 UNK         0.5000 
     36 O           2.7336  -20.6093  -44.6040 O.2       7 UNK        -0.5000 
     37 CA          3.8529  -19.6103  -42.7343 C.3       7 UNK         0.1400 
     38 CB          5.2828  -19.1489  -43.0537 C.3       7 UNK        -0.1800 
     39 N           3.3132  -18.8015  -41.6400 N.am      7 UNK        -0.5000 
     40 C           2.1617  -19.0603  -41.0039 C.2       6 UNK         0.5000 
     41 O           1.4402  -20.0211  -41.2609 O.2       6 UNK        -0.5000 
     42 CA          1.7172  -18.0537  -39.9291 C.3       6 UNK         0.1400 
     43 CB          2.3283  -18.4130  -38.5666 C.3       6 UNK        -0.1800 
     44 N           2.0513  -16.6681  -40.2630 N.am      6 UNK        -0.5000 
     45 C           1.5642  -16.0020  -41.3173 C.2       5 UNK         0.5000 
     46 O           0.8094  -16.4981  -42.1586 O.2       5 UNK        -0.5000 
     47 CA          2.0458  -14.5509  -41.4820 C.3       5 UNK         0.1400 
     48 CB          3.1633  -14.4777  -42.5333 C.3       5 UNK        -0.1800 
     49 N           0.9547  -13.6591  -41.8698 N.am      5 UNK        -0.5000 
     50 C          -0.0719  -13.3216  -41.0762 C.2       4 UNK         0.5000 
     51 O          -0.1908  -13.7158  -39.9141 O.2       4 UNK        -0.5000 
     52 CA         -1.1275  -12.3733  -41.6874 C.3       4 UNK         0.1400 
     53 CB         -2.0380  -11.7189  -40.6271 C.3       4 UNK        -0.1800 
     54 N          -0.5480  -11.3540  -42.5712 N.am      4 UNK        -0.5000 
     55 C           0.3526  -10.4100  -42.2607 C.2       3 UNK         0.5000 
     56 O           0.8341  -10.2631  -41.1360 O.2       3 UNK        -0.5000 
     57 CA          0.8047   -9.4997  -43.4254 C.3       3 UNK         0.1400 
     58 CB          1.7882   -8.4034  -42.9765 C.3       3 UNK        -0.1800 
     59 N           1.4209  -10.2639  -44.5143 N.am      3 UNK        -0.5000 
     60 C           0.7611  -11.0013  -45.4145 C.2       2 UNK         0.5000 
     61 O          -0.4695  -11.1141  -45.4326 O.2       2 UNK        -0.5000 
     62 CA          1.6144  -11.7722  -46.4314 C.3       2 UNK         0.1400 
     63 CB          2.3681  -12.9324  -45.7564 C.3       2 UNK        -0.1800 
     64 N           0.7215  -12.2938  -47.4554 N.am      2 UNK        -0.5000 
     65 C           1.0568  -12.6923  -48.6859 C.2       1 UNK         0.5000 
     66 O           2.2120  -12.6976  -49.1133 O.2       1 UNK        -0.5000 
     67 C          -0.3073  -23.2142  -47.5197 C.2       11 UNK         0.5000 
     68 O          -0.5942  -24.1355  -48.2830 O.2       11 UNK        -0.5000 
     69 N          -1.1150  -22.1655  -47.2913 N.am      12 UNK        -0.5000 
     70 CA         -2.4579  -22.0327  -47.8595 C.3       12 UNK         0.1400 
     71 CB         -3.0234  -20.6350  -47.5693 C.3       12 UNK        -0.1800 
     72 C          -3.4161  -23.1248  -47.3523 C.2       12 UNK         0.5000 
     73 O          -4.1571  -23.6957  -48.1517 O.2       12 UNK        -0.5000 
     74 N          -3.3595  -23.4297  -46.0480 N.am      13 UNK        -0.5000 
     75 CA         -4.1150  -24.5154  -45.4225 C.3       13 UNK         0.1400 
     76 CB         -3.9632  -24.4483  -43.8955 C.3       13 UNK        -0.1800 
     77 C          -3.7086  -25.8996  -45.9598 C.2       13 UNK         0.5000 
     78 O          -4.5853  -26.6984  -46.2900 O.2       13 UNK        -0.5000 
     79 N          -2.3952  -26.1394  -46.0874 N.am      14 UNK        -0.5000 
     80 CA         -1.8200  -27.3647  -46.6498 C.3       14 UNK         0.1400 
     81 CB         -0.2967  -27.3527  -46.4545 C.3       14 UNK        -0.1800 
     82 C          -2.1751  -27.5774  -48.1344 C.2       14 UNK         0.5000 
     83 O          -2.4220  -28.7123  -48.5434 O.2       14 UNK        -0.5000 
     84 N          -2.2264  -26.4821  -48.9043 N.am      15 UNK        -0.5000 
     85 CA         -2.6421  -26.4600  -50.3082 C.3       15 UNK         0.1400 
     86 CB         -2.1567  -25.1479  -50.9473 C.3       15 UNK        -0.1800 
     87 C          -4.1639  -26.6161  -50.5087 C.2       15 UNK         0.5000 
     88 O          -4.5916  -26.8282  -51.6433 O.2       15 UNK        -0.5000 
     89 N          -4.9481  -26.4892  -49.4262 N.am      16 UNK        -0.5000 
     90 CA         -6.4132  -26.4310  -49.3910 C.3       16 UNK         0.1400 
     91 CB         -7.0421  -27.7632  -49.8495 C.3       16 UNK        -0.1800 
     92 C          -6.9403  -25.2020  -50.1593 C.2       16 UNK         0.5000 
     93 O          -7.7986  -25.3239  -51.0361 O.2       16 UNK        -0.5000 
     94 N          -6.3634  -24.0381  -49.8313 N.am      17 UNK        -0.5000 
     95 CA         -6.5405  -22.7073  -50.4161 C.3       17 UNK         0.1400 
     96 CB         -8.0063  -22.2357  -50.3738 C.3       17 UNK        -0.1800 
     97 C          -5.9405  -22.5790  -51.8251 C.2       17 UNK         0.5000 
     98 O          -5.1588  -21.6579  -52.0565 O.2       17 UNK        -0.5000 
     99 N          -6.3144  -23.4877  -52.7371 N.am      18 UNK        -0.5000 
    100 CA        -5.8484  -23.5975  -54.1265 C.3       18 UNK         0.1400 
    101 CB        -4.3944  -24.1131  -54.1550 C.3       18 UNK        -0.1800 
    102 C         -6.0327  -22.2978  -54.9427 C.2       18 UNK         0.5000 
    103 O         -5.1471  -21.9240  -55.7122 O.2       18 UNK        -0.5000 
    104 N         -7.1681  -21.6152  -54.7217 N.am      19 UNK        -0.5000 
    105 CA        -7.5228  -20.2943  -55.2612 C.3       19 UNK         0.1400 
    106 CB        -7.7257  -20.3571  -56.7900 C.3       19 UNK        -0.1800 
    107 C         -6.5345  -19.1899  -54.8202 C.2       19 UNK         0.5000 
    108 O         -6.1408  -18.3470  -55.6278 O.2       19 UNK        -0.5000 
    109 N         -6.1527  -19.2382  -53.5346 N.am      20 UNK        -0.5000 
    110 CA        -5.1503  -18.4052  -52.8600 C.3       20 UNK         0.1400 
    111 CB        -5.5589  -16.9169  -52.8525 C.3       20 UNK        -0.1800 
    112 C         -3.7225  -18.6459  -53.3928 C.2       20 UNK         0.5000 
    113 O         -2.9393  -17.7005  -53.4923 O.2       20 UNK        -0.5000 
    114 N         -3.4227  -19.9152  -53.7087 N.am      21 UNK        -0.5000 
    115 CA        -2.1567  -20.4733  -54.1926 C.3       21 UNK         0.1400 
    116 CB        -1.1970  -20.6873  -53.0072 C.3       21 UNK        -0.1800 
    117 C         -1.5315  -19.6675  -55.3507 C.2       21 UNK         0.5000 
    118 O         -1.8940  -19.8911  -56.5066 O.2       21 UNK        -0.5000 
    119 N         -0.6128  -18.7495  -55.0231 N.am      22 UNK        -0.5000 
    120 CA         0.0104  -17.8061  -55.9643 C.3       22 UNK         0.1400 
    121 C         -0.9604  -16.7360  -56.5472 C.2       22 UNK         0.5000 
    122 N         -2.0998  -16.4595  -55.9253 N.am      22 UNK        -0.7600 
    123 O         -0.6705  -16.1460  -57.5846 O.2       22 UNK        -0.5000 
    124 C124        1.2496  -17.1063  -55.3516 C.3       23 UNK        -0.0398 
    125 S125        2.5248  -18.2677  -54.7521 S.3       23 UNK        -0.2404 
    126 C126        2.8817  -17.6033  -53.0942 C.3       23 UNK        -0.0205 
    127 H127       -3.6691  -11.6382  -48.5854 H         1 UNK         0.0600 
    128 H128       -3.6198  -10.3743  -49.8175 H         1 UNK         0.0600 
    129 H129       -2.9986  -10.0521  -48.1946 H         1 UNK         0.0600 
    130 H130       -2.0790  -13.1739  -48.8598 H         1 UNK         0.3000 
    131 H131        0.1501  -12.8542  -50.6116 H         1 UNK         0.0600 
    132 H132        0.7856  -15.1451  -49.8519 H         1 UNK         0.0800 
    133 H133       -0.4033  -15.0734  -48.5722 H         1 UNK         0.0800 
    134 H134       -2.2207  -17.6229  -50.8262 H         1 UNK         0.0800 
    135 H135       -1.5727  -17.2486  -49.2494 H         1 UNK         0.0800 
    136 H136        0.5560  -16.4810  -52.2204 H         1 UNK         0.1150 
    137 H137        3.0674  -19.8977  -51.6589 H         1 UNK         0.1150 
    138 H138       -0.4756  -19.4547  -49.2985 H         1 UNK         0.1150 
    139 H139        0.6877  -21.7614  -49.7995 H         1 UNK         0.0800 
    140 H140        2.3681  -21.6996  -50.2732 H         1 UNK         0.0800 
    141 H141        2.4452  -23.3048  -48.3667 H         1 UNK         0.0800 
    142 H142        3.1200  -22.7800  -46.8596 H         1 UNK         0.0800 
    143 H143        1.2398  -24.3530  -46.6399 H         1 UNK         0.0600 
    144 H144        1.3522  -21.9407  -45.1102 H         1 UNK         0.3000 
    145 H145       -0.7878  -23.3380  -42.5179 H         1 UNK         0.0600 
    146 H146        1.1961  -22.7477  -41.1932 H         1 UNK         0.0600 
    147 H147        2.1653  -22.5415  -42.6513 H         1 UNK         0.0600 
    148 H148        1.5692  -24.1350  -42.2025 H         1 UNK         0.0600 
    149 H149        0.3897  -20.7885  -42.6244 H         1 UNK         0.3000 
    150 H150       -2.3437  -19.0712  -44.2249 H         1 UNK         0.0600 
    151 H151       -2.8498  -19.3048  -41.7976 H         1 UNK         0.0600 
    152 H152       -2.0574  -17.7703  -42.1269 H         1 UNK         0.0600 
    153 H153       -1.1493  -19.0935  -41.4010 H         1 UNK         0.0600 
    154 H154        0.1758  -18.1238  -43.2999 H         1 UNK         0.3000 
    155 H155        2.0007  -18.5807  -46.3454 H         1 UNK         0.0600 
    156 H156        0.7702  -16.4380  -46.5668 H         1 UNK         0.0600 
    157 H157        2.3781  -16.1659  -45.9154 H         1 UNK         0.0600 
    158 H158        0.9724  -16.1123  -44.8507 H         1 UNK         0.0600 
    159 H159        2.6770  -17.5744  -43.7430 H         1 UNK         0.3000 
    160 H160        3.8979  -20.6478  -42.3965 H         1 UNK         0.0600 
    161 H161        5.3109  -18.1045  -43.3671 H         1 UNK         0.0600 
    162 H162        5.7136  -19.7452  -43.8592 H         1 UNK         0.0600 
    163 H163        5.9347  -19.2571  -42.1867 H         1 UNK         0.0600 
    164 H164        3.8447  -17.9895  -41.3634 H         1 UNK         0.3000 
    165 H165        0.6308  -18.1222  -39.8437 H         1 UNK         0.0600 
    166 H166        1.9508  -17.7593  -37.7801 H         1 UNK         0.0600 
    167 H167        2.0772  -19.4365  -38.2845 H         1 UNK         0.0600 
    168 H168        3.4160  -18.3330  -38.5778 H         1 UNK         0.0600 
    169 H169        2.6706  -16.1901  -39.6243 H         1 UNK         0.3000 
    170 H170        2.4462  -14.1966  -40.5296 H         1 UNK         0.0600 
    171 H171        2.8294  -14.8430  -43.5045 H         1 UNK         0.0600 
    172 H172        3.5204  -13.4556  -42.6597 H         1 UNK         0.0600 
    173 H173        4.0195  -15.0839  -42.2348 H         1 UNK         0.0600 
    174 H174        0.9660  -13.3098  -42.8151 H         1 UNK         0.3000 
    175 H175       -1.7596  -12.9987  -42.3193 H         1 UNK         0.0600 
    176 H176       -1.4678  -11.1170  -39.9189 H         1 UNK         0.0600 
    177 H177       -2.7832  -11.0734  -41.0920 H         1 UNK         0.0600 
    178 H178       -2.5776  -12.4739  -40.0543 H         1 UNK         0.0600 
    179 H179       -0.8403  -11.3947  -43.5439 H         1 UNK         0.3000 
    180 H180       -0.0890   -9.0020  -43.8083 H         1 UNK         0.0600 
    181 H181        2.7159   -8.8269  -42.5896 H         1 UNK         0.0600 
    182 H182        1.3539   -7.7862  -42.1889 H         1 UNK         0.0600 
    183 H183        2.0418   -7.7393  -43.8030 H         1 UNK         0.0600 
    184 H184        2.4302  -10.2472  -44.5466 H         1 UNK         0.3000 
    185 H185        2.3233  -11.0782  -46.8875 H         1 UNK         0.0600 
    186 H186        1.6776  -13.6270  -45.2776 H         1 UNK         0.0600 
    187 H187        2.9613  -13.4961  -46.4765 H         1 UNK         0.0600 
    188 H188        3.0553  -12.5664  -44.9933 H         1 UNK         0.0600 
    189 H189       -0.2573  -12.2565  -47.1965 H         1 UNK         0.3000 
    190 H190       -0.8004  -21.4189  -46.6804 H         1 UNK         0.3000 
    191 H191       -2.3742  -22.1428  -48.9429 H         1 UNK         0.0600 
    192 H192       -2.3986  -19.8564  -48.0053 H         1 UNK         0.0600 
    193 H193       -3.0947  -20.4433  -46.4983 H         1 UNK         0.0600 
    194 H194       -4.0227  -20.5226  -47.9918 H         1 UNK         0.0600 
    195 H195       -2.7645  -22.8773  -45.4370 H         1 UNK         0.3000 
    196 H196       -5.1699  -24.3651  -45.6616 H         1 UNK         0.0600 
    197 H197       -4.3317  -23.4994  -43.5056 H         1 UNK         0.0600 
    198 H198       -2.9234  -24.5539  -43.5863 H         1 UNK         0.0600 
    199 H199       -4.5327  -25.2423  -43.4110 H         1 UNK         0.0600 
    200 H200       -1.7371  -25.4427  -45.7478 H         1 UNK         0.3000 
    201 H201       -2.2272  -28.2083  -46.0887 H         1 UNK         0.0600 
    202 H202       -0.0341  -27.2628  -45.4003 H         1 UNK         0.0600 
    203 H203        0.1695  -26.5244  -46.9880 H         1 UNK         0.0600 
    204 H204        0.1518  -28.2754  -46.8245 H         1 UNK         0.0600 
    205 H205       -1.9325  -25.5939  -48.5091 H         1 UNK         0.3000 
    206 H206       -2.1571  -27.2906  -50.8249 H         1 UNK         0.0600 
    207 H207       -1.0751  -25.0432  -50.8621 H         1 UNK         0.0600 
    208 H208       -2.6164  -24.2778  -50.4770 H         1 UNK         0.0600 
    209 H209       -2.4003  -25.1136  -52.0093 H         1 UNK         0.0600 
    210 H210       -4.4908  -26.3195  -48.5394 H         1 UNK         0.3000 
    211 H211       -6.6880  -26.2820  -48.3457 H         1 UNK         0.0600 
    212 H212       -6.8611  -27.9612  -50.9062 H         1 UNK         0.0600 
    213 H213       -8.1226  -27.7518  -49.7025 H         1 UNK         0.0600 
    214 H214       -6.6451  -28.6022  -49.2780 H         1 UNK         0.0600 
    215 H215       -5.6112  -24.0735  -49.1437 H         1 UNK         0.3000 
    216 H216       -5.9684  -22.0355  -49.7738 H         1 UNK         0.0600 
    217 H217       -8.0883  -21.1991  -50.7027 H         1 UNK         0.0600 
    218 H218       -8.4060  -22.2870  -49.3610 H         1 UNK         0.0600 
    219 H219       -8.6520  -22.8314  -51.0191 H         1 UNK         0.0600 
    220 H220       -6.9560  -24.2101  -52.4217 H         1 UNK         0.3000 
    221 H221       -6.4759  -24.3494  -54.6066 H         1 UNK         0.0600 
    222 H222       -3.7065  -23.4138  -53.6790 H         1 UNK         0.0600 
    223 H223       -4.3097  -25.0685  -53.6395 H         1 UNK         0.0600 
    224 H224       -4.0496  -24.2710  -55.1775 H         1 UNK         0.0600 
    225 H225       -7.8298  -22.0131  -54.0699 H         1 UNK         0.3000 
    226 H226       -8.4841  -20.0313  -54.8174 H         1 UNK         0.0600 
    227 H227       -8.4361  -21.1377  -57.0618 H         1 UNK         0.0600 
    228 H228       -8.1205  -19.4139  -57.1695 H         1 UNK         0.0600 
    229 H229       -6.7921  -20.5543  -57.3175 H         1 UNK         0.0600 
    230 H230       -6.4900  -20.0142  -52.9821 H         1 UNK         0.3000 
    231 H231       -5.1358  -18.7394  -51.8215 H         1 UNK         0.0600 
    232 H232       -4.8910  -16.3346  -52.2163 H         1 UNK         0.0600 
    233 H233       -6.5696  -16.7864  -52.4664 H         1 UNK         0.0600 
    234 H234       -5.5193  -16.4781  -53.8496 H         1 UNK         0.0600 
    235 H235       -4.1532  -20.6001  -53.5519 H         1 UNK         0.3000 
    236 H236       -2.3939  -21.4568  -54.6007 H         1 UNK         0.0600 
    237 H237       -1.0145  -19.7580  -52.4731 H         1 UNK         0.0600 
    238 H238       -1.6091  -21.4011  -52.2937 H         1 UNK         0.0600 
    239 H239       -0.2335  -21.0770  -53.3383 H         1 UNK         0.0600 
    240 H240       -0.3934  -18.6138  -54.0471 H         1 UNK         0.3000 
    241 H241        0.3572  -18.3939  -56.8163 H         1 UNK         0.0600 
    242 H242       -2.7228  -15.7691  -56.3116 H         1 UNK         0.3800 
    243 H243       -2.3457  -16.9312  -55.0564 H         1 UNK         0.3800 
    244 H244        0.9396  -16.4458  -54.5412 H         1 UNK         0.0800 
    245 H245        1.7256  -16.4634  -56.0942 H         1 UNK         0.0800 
    246 H246        2.8747  -16.5124  -53.1154 H         1 UNK         0.0800 
    247 H247        3.8993  -17.8870  -52.8214 H         1 UNK         0.0800 
@<TRIPOS>BOND
     1    1    2 1    
     2    1  127 1    
     3    1  128 1    
     4    1  129 1    
     5    2    3 2    
     6    2    4 am   BACKBONE|DICT|INTERRES
     7    4    5 1    
     8    4  130 1    
     9    5    6 1    
    10    5   65 1    
    11    5  131 1    
    12    6    7 1    
    13    6  132 1    
    14    6  133 1    
    15    7    8 1    
    16    8    9 1    
    17    8  134 1    
    18    8  135 1    
    19    9   10 ar   
    20    9   14 ar   
    21   10   11 ar   
    22   10  136 1    
    23   11   12 ar   
    24   11  126 1    
    25   12   13 ar   
    26   12  137 1    
    27   13   14 ar   
    28   13   15 1    
    29   14  138 1    
    30   15   16 1    
    31   15  139 1    
    32   15  140 1    
    33   16   17 1    
    34   17   18 1    
    35   17  141 1    
    36   17  142 1    
    37   18   19 1    
    38   18   67 1    
    39   18  143 1    
    40   19   20 am   BACKBONE|DICT|INTERRES
    41   19  144 1    
    42   20   21 2    
    43   20   22 1    
    44   22   23 1    
    45   22   24 1    
    46   22  145 1    
    47   23  146 1    
    48   23  147 1    
    49   23  148 1    
    50   24   25 am   BACKBONE|DICT|INTERRES
    51   24  149 1    
    52   25   26 2    
    53   25   27 1    
    54   27   28 1    
    55   27   29 1    
    56   27  150 1    
    57   28  151 1    
    58   28  152 1    
    59   28  153 1    
    60   29   30 am   BACKBONE|DICT|INTERRES
    61   29  154 1    
    62   30   31 2    
    63   30   32 1    
    64   32   33 1    
    65   32   34 1    
    66   32  155 1    
    67   33  156 1    
    68   33  157 1    
    69   33  158 1    
    70   34   35 am   BACKBONE|DICT|INTERRES
    71   34  159 1    
    72   35   36 2    
    73   35   37 1    
    74   37   38 1    
    75   37   39 1    
    76   37  160 1    
    77   38  161 1    
    78   38  162 1    
    79   38  163 1    
    80   39   40 am   BACKBONE|DICT|INTERRES
    81   39  164 1    
    82   40   41 2    
    83   40   42 1    
    84   42   43 1    
    85   42   44 1    
    86   42  165 1    
    87   43  166 1    
    88   43  167 1    
    89   43  168 1    
    90   44   45 am   BACKBONE|DICT|INTERRES
    91   44  169 1    
    92   45   46 2    
    93   45   47 1    
    94   47   48 1    
    95   47   49 1    
    96   47  170 1    
    97   48  171 1    
    98   48  172 1    
    99   48  173 1    
   100   49   50 am   BACKBONE|DICT|INTERRES
   101   49  174 1    
   102   50   51 2    
   103   50   52 1    
   104   52   53 1    
   105   52   54 1    
   106   52  175 1    
   107   53  176 1    
   108   53  177 1    
   109   53  178 1    
   110   54   55 am   BACKBONE|DICT|INTERRES
   111   54  179 1    
   112   55   56 2    
   113   55   57 1    
   114   57   58 1    
   115   57   59 1    
   116   57  180 1    
   117   58  181 1    
   118   58  182 1    
   119   58  183 1    
   120   59   60 am   BACKBONE|DICT|INTERRES
   121   59  184 1    
   122   60   61 2    
   123   60   62 1    
   124   62   63 1    
   125   62   64 1    
   126   62  185 1    
   127   63  186 1    
   128   63  187 1    
   129   63  188 1    
   130   64   65 am   BACKBONE|DICT|INTERRES
   131   64  189 1    
   132   65   66 2    
   133   67   68 2    
   134   67   69 am   BACKBONE|DICT|INTERRES
   135   69   70 1    
   136   69  190 1    
   137   70   71 1    
   138   70   72 1    
   139   70  191 1    
   140   71  192 1    
   141   71  193 1    
   142   71  194 1    
   143   72   73 2    
   144   72   74 am   BACKBONE|DICT|INTERRES
   145   74   75 1    
   146   74  195 1    
   147   75   76 1    
   148   75   77 1    
   149   75  196 1    
   150   76  197 1    
   151   76  198 1    
   152   76  199 1    
   153   77   78 2    
   154   77   79 am   BACKBONE|DICT|INTERRES
   155   79   80 1    
   156   79  200 1    
   157   80   81 1    
   158   80   82 1    
   159   80  201 1    
   160   81  202 1    
   161   81  203 1    
   162   81  204 1    
   163   82   83 2    
   164   82   84 am   BACKBONE|DICT|INTERRES
   165   84   85 1    
   166   84  205 1    
   167   85   86 1    
   168   85   87 1    
   169   85  206 1    
   170   86  207 1    
   171   86  208 1    
   172   86  209 1    
   173   87   88 2    
   174   87   89 am   BACKBONE|DICT|INTERRES
   175   89   90 1    
   176   89  210 1    
   177   90   91 1    
   178   90   92 1    
   179   90  211 1    
   180   91  212 1    
   181   91  213 1    
   182   91  214 1    
   183   92   93 2    
   184   92   94 am   BACKBONE|DICT|INTERRES
   185   94   95 1    
   186   94  215 1    
   187   95   96 1    
   188   95   97 1    
   189   95  216 1    
   190   96  217 1    
   191   96  218 1    
   192   96  219 1    
   193   97   98 2    
   194   97   99 am   BACKBONE|DICT|INTERRES
   195   99  100 1    
   196   99  220 1    
   197  100  101 1    
   198  100  102 1    
   199  100  221 1    
   200  101  222 1    
   201  101  223 1    
   202  101  224 1    
   203  102  103 2    
   204  102  104 am   BACKBONE|DICT|INTERRES
   205  104  105 1    
   206  104  225 1    
   207  105  106 1    
   208  105  107 1    
   209  105  226 1    
   210  106  227 1    
   211  106  228 1    
   212  106  229 1    
   213  107  108 2    
   214  107  109 am   BACKBONE|DICT|INTERRES
   215  109  110 1    
   216  109  230 1    
   217  110  111 1    
   218  110  112 1    
   219  110  231 1    
   220  111  232 1    
   221  111  233 1    
   222  111  234 1    
   223  112  113 2    
   224  112  114 am   BACKBONE|DICT|INTERRES
   225  114  115 1    
   226  114  235 1    
   227  115  116 1    
   228  115  117 1    
   229  115  236 1    
   230  116  237 1    
   231  116  238 1    
   232  116  239 1    
   233  117  118 2    
   234  117  119 am   BACKBONE|DICT|INTERRES
   235  119  120 1    
   236  119  240 1    
   237  120  121 1    
   238  120  124 1    
   239  120  241 1    
   240  121  122 am   BACKBONE|DICT|INTERRES
   241  121  123 2    
   242  122  242 1    
   243  122  243 1    
   244  124  125 1    
   245  124  244 1    
   246  124  245 1    
   247  125  126 1    
   248  126  246 1    
   249  126  247 1    
@<TRIPOS>SUBSTRUCTURE
     1 UNK         1 GROUP             0       ****    0 ROOT    
