@<TRIPOS>MOLECULE
3R540
247   249    1
SMALL
USER_CHARGES


@<TRIPOS>ATOM
      1 CA          1.2851  -10.9366  -45.5346 C.3       0 UNK        -0.1800 
      2 C           1.8120  -12.0840  -46.3845 C.2       0 UNK         0.5000 
      3 O           2.5428  -12.9347  -45.8805 O.2       0 UNK        -0.5000 
      4 N           1.4431  -12.1139  -47.6722 N.am      1 UNK        -0.5000 
      5 CA          1.8324  -13.1602  -48.6268 C.3       1 UNK         0.1400 
      6 C6          1.5147  -12.7318  -50.0835 C.3       23 UNK        -0.0398 
      7 S7          2.2989  -13.7934  -51.3479 S.3       23 UNK        -0.2404 
      8 C8          0.8764  -14.8108  -51.8531 C.3       23 UNK        -0.0205 
      9 C9          1.3146  -16.1496  -52.4235 C.ar      23 UNK        -0.0193 
     10 C10         1.4127  -16.3303  -53.8038 C.ar      23 UNK        -0.1150 
     11 C11         1.7675  -17.5737  -54.3320 C.ar      23 UNK        -0.0193 
     12 C12         2.0315  -18.6371  -53.4628 C.ar      23 UNK        -0.1150 
     13 C13         1.9319  -18.4801  -52.0761 C.ar      23 UNK        -0.0193 
     14 C14         1.5852  -17.2213  -51.5677 C.ar      23 UNK        -0.1150 
     15 C15         2.1715  -19.7115  -51.1938 C.3       23 UNK        -0.0205 
     16 S16         2.3848  -19.4286  -49.4002 S.3       23 UNK        -0.2404 
     17 C17         0.6741  -19.1201  -48.8426 C.3       23 UNK        -0.0398 
     18 CA         -0.0823  -20.3850  -48.3719 C.3       11 UNK         0.1400 
     19 N           0.6171  -21.1063  -47.3075 N.am      11 UNK        -0.5000 
     20 C           0.4260  -22.4026  -47.0275 C.2       10 UNK         0.5000 
     21 O          -0.3006  -23.1471  -47.6855 O.2       10 UNK        -0.5000 
     22 CA          1.1500  -22.9546  -45.7846 C.3       10 UNK         0.1400 
     23 CB          2.5589  -23.4425  -46.1540 C.3       10 UNK        -0.1800 
     24 N           1.2473  -21.9802  -44.6950 N.am      10 UNK        -0.5000 
     25 C           0.1982  -21.4801  -44.0272 C.2       9 UNK         0.5000 
     26 O          -0.9689  -21.7952  -44.2509 O.2       9 UNK        -0.5000 
     27 CA          0.4953  -20.4085  -42.9646 C.3       9 UNK         0.1400 
     28 CB          0.7779  -21.0600  -41.6031 C.3       9 UNK        -0.1800 
     29 N           1.6025  -19.5168  -43.3131 N.am      9 UNK        -0.5000 
     30 C           1.6628  -18.7240  -44.3930 C.2       8 UNK         0.5000 
     31 O           0.8003  -18.7097  -45.2746 O.2       8 UNK        -0.5000 
     32 CA          2.8882  -17.7949  -44.4795 C.3       8 UNK         0.1400 
     33 CB          2.6922  -16.6528  -45.4871 C.3       8 UNK        -0.1800 
     34 N           3.1852  -17.2264  -43.1640 N.am      8 UNK        -0.5000 
     35 C           4.1806  -17.6181  -42.3571 C.2       7 UNK         0.5000 
     36 O           4.9829  -18.5027  -42.6588 O.2       7 UNK        -0.5000 
     37 CA          4.2626  -16.9621  -40.9622 C.3       7 UNK         0.1400 
     38 CB          5.7071  -16.8613  -40.4280 C.3       7 UNK        -0.1800 
     39 N           3.5636  -15.6766  -40.8673 N.am      7 UNK        -0.5000 
     40 C           3.8870  -14.5134  -41.4559 C.2       6 UNK         0.5000 
     41 O           4.8813  -14.3615  -42.1661 O.2       6 UNK        -0.5000 
     42 CA          2.9383  -13.3174  -41.2222 C.3       6 UNK         0.1400 
     43 CB          2.5282  -12.6654  -42.5519 C.3       6 UNK        -0.1800 
     44 N           1.7228  -13.7096  -40.5074 N.am      6 UNK        -0.5000 
     45 C           1.5381  -13.6266  -39.1827 C.2       5 UNK         0.5000 
     46 O           2.3569  -13.1330  -38.4071 O.2       5 UNK        -0.5000 
     47 CA          0.2278  -14.2215  -38.6249 C.3       5 UNK         0.1400 
     48 CB         -0.8142  -13.1133  -38.4097 C.3       5 UNK        -0.1800 
     49 N          -0.3537  -15.2585  -39.4829 N.am      5 UNK        -0.5000 
     50 C           0.2015  -16.4527  -39.7363 C.2       4 UNK         0.5000 
     51 O           1.2567  -16.8354  -39.2324 O.2       4 UNK        -0.5000 
     52 CA         -0.4981  -17.3317  -40.7899 C.3       4 UNK         0.1400 
     53 CB         -1.4968  -18.2939  -40.1317 C.3       4 UNK        -0.1800 
     54 N          -1.1814  -16.5481  -41.8233 N.am      4 UNK        -0.5000 
     55 C          -0.5496  -15.7805  -42.7195 C.2       3 UNK         0.5000 
     56 O           0.6776  -15.6646  -42.7741 O.2       3 UNK        -0.5000 
     57 CA         -1.4279  -14.9780  -43.6845 C.3       3 UNK         0.1400 
     58 CB         -1.4377  -13.4908  -43.2978 C.3       3 UNK        -0.1800 
     59 N          -0.8811  -15.1291  -45.0265 N.am      3 UNK        -0.5000 
     60 C          -1.5941  -15.4419  -46.1131 C.2       2 UNK         0.5000 
     61 O          -2.8237  -15.5083  -46.1339 O.2       2 UNK        -0.5000 
     62 CA         -0.7815  -15.7111  -47.3847 C.3       2 UNK         0.1400 
     63 CB         -1.6367  -16.1541  -48.5884 C.3       2 UNK        -0.1800 
     64 N          -0.0185  -14.5179  -47.7333 N.am      2 UNK        -0.5000 
     65 C           1.2037  -14.5294  -48.2785 C.2       1 UNK         0.5000 
     66 O           1.8332  -15.5605  -48.5065 O.2       1 UNK        -0.5000 
     67 C          -1.5087  -20.0075  -47.9231 C.2       11 UNK         0.5000 
     68 O          -2.4270  -20.0299  -48.7413 O.2       11 UNK        -0.5000 
     69 N          -1.6610  -19.6498  -46.6389 N.am      12 UNK        -0.5000 
     70 CA         -2.9163  -19.2109  -46.0314 C.3       12 UNK         0.1400 
     71 CB         -2.6366  -18.6410  -44.6309 C.3       12 UNK        -0.1800 
     72 C          -3.9769  -20.3213  -45.9446 C.2       12 UNK         0.5000 
     73 O          -5.1346  -20.0592  -46.2709 O.2       12 UNK        -0.5000 
     74 N          -3.5614  -21.5148  -45.4889 N.am      13 UNK        -0.5000 
     75 CA         -4.3782  -22.6885  -45.1525 C.3       13 UNK         0.1400 
     76 CB         -3.4436  -23.8481  -44.7666 C.3       13 UNK        -0.1800 
     77 C          -5.3599  -23.1137  -46.2603 C.2       13 UNK         0.5000 
     78 O          -4.9919  -23.8876  -47.1463 O.2       13 UNK        -0.5000 
     79 N          -6.5778  -22.5542  -46.2096 N.am      14 UNK        -0.5000 
     80 CA         -7.6531  -22.6771  -47.1995 C.3       14 UNK         0.1400 
     81 CB         -8.2780  -24.0861  -47.1362 C.3       14 UNK        -0.1800 
     82 C          -7.2074  -22.2782  -48.6238 C.2       14 UNK         0.5000 
     83 O          -7.6237  -22.9126  -49.5921 O.2       14 UNK        -0.5000 
     84 N          -6.3302  -21.2658  -48.7200 N.am      15 UNK        -0.5000 
     85 CA         -5.6361  -20.8207  -49.9350 C.3       15 UNK         0.1400 
     86 CB         -6.6248  -20.1858  -50.9345 C.3       15 UNK        -0.1800 
     87 C          -4.7880  -21.9505  -50.5596 C.2       15 UNK         0.5000 
     88 O          -4.8975  -22.2224  -51.7584 O.2       15 UNK        -0.5000 
     89 N          -3.9829  -22.6029  -49.7099 N.am      16 UNK        -0.5000 
     90 CA         -3.1447  -23.7734  -49.9839 C.3       16 UNK         0.1400 
     91 CB         -1.9938  -23.4170  -50.9451 C.3       16 UNK        -0.1800 
     92 C          -3.9775  -24.9843  -50.4501 C.2       16 UNK         0.5000 
     93 O          -3.6527  -25.6098  -51.4594 O.2       16 UNK        -0.5000 
     94 N          -5.0497  -25.2743  -49.6989 N.am      17 UNK        -0.5000 
     95 CA         -6.0468  -26.3211  -49.9468 C.3       17 UNK         0.1400 
     96 CB         -5.4221  -27.7226  -49.7831 C.3       17 UNK        -0.1800 
     97 C          -6.7812  -26.1315  -51.2918 C.2       17 UNK         0.5000 
     98 O          -6.8226  -27.0471  -52.1161 O.2       17 UNK        -0.5000 
     99 N          -7.3502  -24.9312  -51.4729 N.am      18 UNK        -0.5000 
    100 CA        -8.1351  -24.4709  -52.6218 C.3       18 UNK         0.1400 
    101 CB        -9.4565  -25.2600  -52.7334 C.3       18 UNK        -0.1800 
    102 C         -7.3348  -24.4339  -53.9402 C.2       18 UNK         0.5000 
    103 O         -7.8868  -24.7153  -55.0056 O.2       18 UNK        -0.5000 
    104 N         -6.0511  -24.0662  -53.8471 N.am      19 UNK        -0.5000 
    105 CA        -5.1272  -23.9476  -54.9773 C.3       19 UNK         0.1400 
    106 CB        -3.8216  -24.6755  -54.6215 C.3       19 UNK        -0.1800 
    107 C         -4.8552  -22.4772  -55.3495 C.2       19 UNK         0.5000 
    108 O         -3.9532  -22.2176  -56.1471 O.2       19 UNK        -0.5000 
    109 N         -5.6062  -21.5390  -54.7498 N.am      20 UNK        -0.5000 
    110 CA        -5.4667  -20.0823  -54.8760 C.3       20 UNK         0.1400 
    111 CB        -5.8488  -19.6167  -56.2966 C.3       20 UNK        -0.1800 
    112 C         -4.0723  -19.5892  -54.4318 C.2       20 UNK         0.5000 
    113 O         -3.4909  -18.7086  -55.0679 O.2       20 UNK        -0.5000 
    114 N         -3.5508  -20.2135  -53.3658 N.am      21 UNK        -0.5000 
    115 CA        -2.2184  -20.0772  -52.7695 C.3       21 UNK         0.1400 
    116 CB        -1.9297  -18.6326  -52.3193 C.3       21 UNK        -0.1800 
    117 C         -1.0849  -20.6401  -53.6495 C.2       21 UNK         0.5000 
    118 O         -0.2610  -21.4036  -53.1472 O.2       21 UNK        -0.5000 
    119 N         -1.0533  -20.2601  -54.9310 N.am      22 UNK        -0.5000 
    120 CA         0.0099  -20.6183  -55.8818 C.3       22 UNK         0.1400 
    121 C         -0.0245  -22.0847  -56.3953 C.2       22 UNK         0.5000 
    122 N         -1.1537  -22.7792  -56.3755 N.am      22 UNK        -0.7600 
    123 O          1.0029  -22.6065  -56.8201 O.2       22 UNK        -0.5000 
    124 C124        0.0985  -19.6290  -57.0706 C.3       23 UNK        -0.0398 
    125 S125        0.1965  -17.8696  -56.5887 S.3       23 UNK        -0.2404 
    126 C126        1.8548  -17.7542  -55.8409 C.3       23 UNK        -0.0205 
    127 H127        0.7333  -10.2097  -46.1309 H         1 UNK         0.0600 
    128 H128        2.1121  -10.4196  -45.0481 H         1 UNK         0.0600 
    129 H129        0.6193  -11.3187  -44.7613 H         1 UNK         0.0600 
    130 H130        0.8501  -11.3800  -48.0335 H         1 UNK         0.3000 
    131 H131        2.9154  -13.2782  -48.5448 H         1 UNK         0.0600 
    132 H132        0.4376  -12.6775  -50.2512 H         1 UNK         0.0800 
    133 H133        1.8891  -11.7211  -50.2523 H         1 UNK         0.0800 
    134 H134        0.2825  -14.2588  -52.5831 H         1 UNK         0.0800 
    135 H135        0.2189  -14.9899  -51.0024 H         1 UNK         0.0800 
    136 H136        1.1986  -15.5070  -54.4709 H         1 UNK         0.1150 
    137 H137        2.3078  -19.6012  -53.8635 H         1 UNK         0.1150 
    138 H138        1.5084  -17.0614  -50.5045 H         1 UNK         0.1150 
    139 H139        1.3500  -20.4132  -51.3365 H         1 UNK         0.0800 
    140 H140        3.0689  -20.2198  -51.5491 H         1 UNK         0.0800 
    141 H141        0.1168  -18.6334  -49.6424 H         1 UNK         0.0800 
    142 H142        0.7390  -18.3954  -48.0317 H         1 UNK         0.0800 
    143 H143       -0.1760  -21.0478  -49.2342 H         1 UNK         0.0600 
    144 H144        1.2100  -20.5543  -46.7041 H         1 UNK         0.3000 
    145 H145        0.5754  -23.8091  -45.4207 H         1 UNK         0.0600 
    146 H146        3.1902  -22.6245  -46.5036 H         1 UNK         0.0600 
    147 H147        3.0522  -23.9076  -45.3003 H         1 UNK         0.0600 
    148 H148        2.5172  -24.1878  -46.9495 H         1 UNK         0.0600 
    149 H149        2.1721  -21.6597  -44.4487 H         1 UNK         0.3000 
    150 H150       -0.3971  -19.7902  -42.8632 H         1 UNK         0.0600 
    151 H151       -0.0516  -21.6993  -41.2975 H         1 UNK         0.0600 
    152 H152        0.9118  -20.3107  -40.8229 H         1 UNK         0.0600 
    153 H153        1.6760  -21.6782  -41.6312 H         1 UNK         0.0600 
    154 H154        2.3691  -19.4755  -42.6581 H         1 UNK         0.3000 
    155 H155        3.7221  -18.4043  -44.8326 H         1 UNK         0.0600 
    156 H156        2.5266  -17.0503  -46.4884 H         1 UNK         0.0600 
    157 H157        3.5723  -16.0114  -45.5353 H         1 UNK         0.0600 
    158 H158        1.8396  -16.0254  -45.2319 H         1 UNK         0.0600 
    159 H159        2.5265  -16.5277  -42.8342 H         1 UNK         0.3000 
    160 H160        3.7230  -17.6351  -40.2946 H         1 UNK         0.0600 
    161 H161        5.7322  -16.3928  -39.4442 H         1 UNK         0.0600 
    162 H162        6.3485  -16.2830  -41.0932 H         1 UNK         0.0600 
    163 H163        6.1555  -17.8501  -40.3253 H         1 UNK         0.0600 
    164 H164        2.7250  -15.6986  -40.3000 H         1 UNK         0.3000 
    165 H165        3.4895  -12.5764  -40.6399 H         1 UNK         0.0600 
    166 H166        2.0309  -13.3777  -43.2105 H         1 UNK         0.0600 
    167 H167        1.8514  -11.8265  -42.3905 H         1 UNK         0.0600 
    168 H168        3.3971  -12.2810  -43.0874 H         1 UNK         0.0600 
    169 H169        1.0163  -14.1654  -41.0685 H         1 UNK         0.3000 
    170 H170        0.4568  -14.6721  -37.6569 H         1 UNK         0.0600 
    171 H171       -1.0963  -12.6379  -39.3500 H         1 UNK         0.0600 
    172 H172       -1.7191  -13.5067  -37.9463 H         1 UNK         0.0600 
    173 H173       -0.4263  -12.3346  -37.7516 H         1 UNK         0.0600 
    174 H174       -1.2236  -15.0293  -39.9404 H         1 UNK         0.3000 
    175 H175        0.2773  -17.9250  -41.2771 H         1 UNK         0.0600 
    176 H176       -2.3099  -17.7578  -39.6409 H         1 UNK         0.0600 
    177 H177       -1.9346  -18.9708  -40.8656 H         1 UNK         0.0600 
    178 H178       -1.0058  -18.9095  -39.3767 H         1 UNK         0.0600 
    179 H179       -2.1905  -16.5911  -41.8285 H         1 UNK         0.3000 
    180 H180       -2.4480  -15.3653  -43.6363 H         1 UNK         0.0600 
    181 H181       -0.4356  -13.0619  -43.3155 H         1 UNK         0.0600 
    182 H182       -1.8389  -13.3488  -42.2936 H         1 UNK         0.0600 
    183 H183       -2.0591  -12.9123  -43.9815 H         1 UNK         0.0600 
    184 H184        0.1288  -15.1144  -45.0795 H         1 UNK         0.3000 
    185 H185       -0.1005  -16.5235  -47.1281 H         1 UNK         0.0600 
    186 H186       -1.0121  -16.4179  -49.4412 H         1 UNK         0.0600 
    187 H187       -2.2362  -17.0314  -48.3461 H         1 UNK         0.0600 
    188 H188       -2.3203  -15.3661  -48.9060 H         1 UNK         0.0600 
    189 H189       -0.4580  -13.6309  -47.5302 H         1 UNK         0.3000 
    190 H190       -0.8369  -19.6105  -46.0492 H         1 UNK         0.3000 
    191 H191       -3.3185  -18.4067  -46.6505 H         1 UNK         0.0600 
    192 H192       -2.4194  -19.4269  -43.9084 H         1 UNK         0.0600 
    193 H193       -1.7910  -17.9555  -44.6369 H         1 UNK         0.0600 
    194 H194       -3.5017  -18.0904  -44.2599 H         1 UNK         0.0600 
    195 H195       -2.5803  -21.5959  -45.2327 H         1 UNK         0.3000 
    196 H196       -4.9654  -22.4332  -44.2687 H         1 UNK         0.0600 
    197 H197       -2.8866  -23.6199  -43.8582 H         1 UNK         0.0600 
    198 H198       -2.7227  -24.0629  -45.5570 H         1 UNK         0.0600 
    199 H199       -4.0068  -24.7626  -44.5760 H         1 UNK         0.0600 
    200 H200       -6.7485  -21.8795  -45.4763 H         1 UNK         0.3000 
    201 H201       -8.4234  -21.9595  -46.9142 H         1 UNK         0.0600 
    202 H202       -9.1273  -24.1739  -47.8149 H         1 UNK         0.0600 
    203 H203       -8.6433  -24.3074  -46.1335 H         1 UNK         0.0600 
    204 H204       -7.5593  -24.8591  -47.4053 H         1 UNK         0.0600 
    205 H205       -6.0299  -20.8202  -47.8568 H         1 UNK         0.3000 
    206 H206       -4.9395  -20.0412  -49.6249 H         1 UNK         0.0600 
    207 H207       -7.3052  -20.9225  -51.3628 H         1 UNK         0.0600 
    208 H208       -6.0894  -19.7144  -51.7580 H         1 UNK         0.0600 
    209 H209       -7.2258  -19.4126  -50.4564 H         1 UNK         0.0600 
    210 H210       -4.0016  -22.3161  -48.7415 H         1 UNK         0.3000 
    211 H211       -2.6974  -24.0587  -49.0305 H         1 UNK         0.0600 
    212 H212       -1.4007  -22.5904  -50.5568 H         1 UNK         0.0600 
    213 H213       -1.3183  -24.2627  -51.0763 H         1 UNK         0.0600 
    214 H214       -2.3585  -23.1351  -51.9319 H         1 UNK         0.0600 
    215 H215       -5.1960  -24.7116  -48.8638 H         1 UNK         0.3000 
    216 H216       -6.8046  -26.2138  -49.1707 H         1 UNK         0.0600 
    217 H217       -6.1842  -28.4991  -49.8580 H         1 UNK         0.0600 
    218 H218       -4.6722  -27.9274  -50.5476 H         1 UNK         0.0600 
    219 H219       -4.9453  -27.8292  -48.8088 H         1 UNK         0.0600 
    220 H220       -7.2723  -24.2431  -50.7243 H         1 UNK         0.3000 
    221 H221       -8.3949  -23.4340  -52.4040 H         1 UNK         0.0600 
    222 H222       -9.2855  -26.3013  -53.0076 H         1 UNK         0.0600 
    223 H223      -10.0037  -25.2463  -51.7907 H         1 UNK         0.0600 
    224 H224      -10.1092  -24.8256  -53.4914 H         1 UNK         0.0600 
    225 H225       -5.6756  -23.8121  -52.9392 H         1 UNK         0.3000 
    226 H226       -5.5451  -24.4281  -55.8638 H         1 UNK         0.0600 
    227 H227       -4.0149  -25.7005  -54.3045 H         1 UNK         0.0600 
    228 H228       -3.1512  -24.7248  -55.4796 H         1 UNK         0.0600 
    229 H229       -3.2892  -24.1709  -53.8157 H         1 UNK         0.0600 
    230 H230       -6.2892  -21.8604  -54.0793 H         1 UNK         0.3000 
    231 H231       -6.1836  -19.6405  -54.1833 H         1 UNK         0.0600 
    232 H232       -5.8729  -18.5280  -56.3569 H         1 UNK         0.0600 
    233 H233       -6.8379  -19.9784  -56.5770 H         1 UNK         0.0600 
    234 H234       -5.1382  -19.9687  -57.0449 H         1 UNK         0.0600 
    235 H235       -4.1095  -20.9584  -52.9570 H         1 UNK         0.3000 
    236 H236       -2.2447  -20.6843  -51.8646 H         1 UNK         0.0600 
    237 H237       -2.7175  -18.2565  -51.6666 H         1 UNK         0.0600 
    238 H238       -0.9968  -18.5871  -51.7593 H         1 UNK         0.0600 
    239 H239       -1.8302  -17.9488  -53.1626 H         1 UNK         0.0600 
    240 H240       -1.7732  -19.6240  -55.2591 H         1 UNK         0.3000 
    241 H241        0.9519  -20.5395  -55.3417 H         1 UNK         0.0600 
    242 H242       -1.1441  -23.7273  -56.7135 H         1 UNK         0.3800 
    243 H243       -2.0390  -22.3592  -56.1082 H         1 UNK         0.3800 
    244 H244        0.9623  -19.8585  -57.6973 H         1 UNK         0.0800 
    245 H245       -0.7769  -19.7429  -57.7122 H         1 UNK         0.0800 
    246 H246        2.3754  -16.8990  -56.2744 H         1 UNK         0.0800 
    247 H247        2.4531  -18.6306  -56.0938 H         1 UNK         0.0800 
@<TRIPOS>BOND
     1    1    2 1    
     2    1  127 1    
     3    1  128 1    
     4    1  129 1    
     5    2    3 2    
     6    2    4 am   BACKBONE|DICT|INTERRES
     7    4    5 1    
     8    4  130 1    
     9    5    6 1    
    10    5   65 1    
    11    5  131 1    
    12    6    7 1    
    13    6  132 1    
    14    6  133 1    
    15    7    8 1    
    16    8    9 1    
    17    8  134 1    
    18    8  135 1    
    19    9   10 ar   
    20    9   14 ar   
    21   10   11 ar   
    22   10  136 1    
    23   11   12 ar   
    24   11  126 1    
    25   12   13 ar   
    26   12  137 1    
    27   13   14 ar   
    28   13   15 1    
    29   14  138 1    
    30   15   16 1    
    31   15  139 1    
    32   15  140 1    
    33   16   17 1    
    34   17   18 1    
    35   17  141 1    
    36   17  142 1    
    37   18   19 1    
    38   18   67 1    
    39   18  143 1    
    40   19   20 am   BACKBONE|DICT|INTERRES
    41   19  144 1    
    42   20   21 2    
    43   20   22 1    
    44   22   23 1    
    45   22   24 1    
    46   22  145 1    
    47   23  146 1    
    48   23  147 1    
    49   23  148 1    
    50   24   25 am   BACKBONE|DICT|INTERRES
    51   24  149 1    
    52   25   26 2    
    53   25   27 1    
    54   27   28 1    
    55   27   29 1    
    56   27  150 1    
    57   28  151 1    
    58   28  152 1    
    59   28  153 1    
    60   29   30 am   BACKBONE|DICT|INTERRES
    61   29  154 1    
    62   30   31 2    
    63   30   32 1    
    64   32   33 1    
    65   32   34 1    
    66   32  155 1    
    67   33  156 1    
    68   33  157 1    
    69   33  158 1    
    70   34   35 am   BACKBONE|DICT|INTERRES
    71   34  159 1    
    72   35   36 2    
    73   35   37 1    
    74   37   38 1    
    75   37   39 1    
    76   37  160 1    
    77   38  161 1    
    78   38  162 1    
    79   38  163 1    
    80   39   40 am   BACKBONE|DICT|INTERRES
    81   39  164 1    
    82   40   41 2    
    83   40   42 1    
    84   42   43 1    
    85   42   44 1    
    86   42  165 1    
    87   43  166 1    
    88   43  167 1    
    89   43  168 1    
    90   44   45 am   BACKBONE|DICT|INTERRES
    91   44  169 1    
    92   45   46 2    
    93   45   47 1    
    94   47   48 1    
    95   47   49 1    
    96   47  170 1    
    97   48  171 1    
    98   48  172 1    
    99   48  173 1    
   100   49   50 am   BACKBONE|DICT|INTERRES
   101   49  174 1    
   102   50   51 2    
   103   50   52 1    
   104   52   53 1    
   105   52   54 1    
   106   52  175 1    
   107   53  176 1    
   108   53  177 1    
   109   53  178 1    
   110   54   55 am   BACKBONE|DICT|INTERRES
   111   54  179 1    
   112   55   56 2    
   113   55   57 1    
   114   57   58 1    
   115   57   59 1    
   116   57  180 1    
   117   58  181 1    
   118   58  182 1    
   119   58  183 1    
   120   59   60 am   BACKBONE|DICT|INTERRES
   121   59  184 1    
   122   60   61 2    
   123   60   62 1    
   124   62   63 1    
   125   62   64 1    
   126   62  185 1    
   127   63  186 1    
   128   63  187 1    
   129   63  188 1    
   130   64   65 am   BACKBONE|DICT|INTERRES
   131   64  189 1    
   132   65   66 2    
   133   67   68 2    
   134   67   69 am   BACKBONE|DICT|INTERRES
   135   69   70 1    
   136   69  190 1    
   137   70   71 1    
   138   70   72 1    
   139   70  191 1    
   140   71  192 1    
   141   71  193 1    
   142   71  194 1    
   143   72   73 2    
   144   72   74 am   BACKBONE|DICT|INTERRES
   145   74   75 1    
   146   74  195 1    
   147   75   76 1    
   148   75   77 1    
   149   75  196 1    
   150   76  197 1    
   151   76  198 1    
   152   76  199 1    
   153   77   78 2    
   154   77   79 am   BACKBONE|DICT|INTERRES
   155   79   80 1    
   156   79  200 1    
   157   80   81 1    
   158   80   82 1    
   159   80  201 1    
   160   81  202 1    
   161   81  203 1    
   162   81  204 1    
   163   82   83 2    
   164   82   84 am   BACKBONE|DICT|INTERRES
   165   84   85 1    
   166   84  205 1    
   167   85   86 1    
   168   85   87 1    
   169   85  206 1    
   170   86  207 1    
   171   86  208 1    
   172   86  209 1    
   173   87   88 2    
   174   87   89 am   BACKBONE|DICT|INTERRES
   175   89   90 1    
   176   89  210 1    
   177   90   91 1    
   178   90   92 1    
   179   90  211 1    
   180   91  212 1    
   181   91  213 1    
   182   91  214 1    
   183   92   93 2    
   184   92   94 am   BACKBONE|DICT|INTERRES
   185   94   95 1    
   186   94  215 1    
   187   95   96 1    
   188   95   97 1    
   189   95  216 1    
   190   96  217 1    
   191   96  218 1    
   192   96  219 1    
   193   97   98 2    
   194   97   99 am   BACKBONE|DICT|INTERRES
   195   99  100 1    
   196   99  220 1    
   197  100  101 1    
   198  100  102 1    
   199  100  221 1    
   200  101  222 1    
   201  101  223 1    
   202  101  224 1    
   203  102  103 2    
   204  102  104 am   BACKBONE|DICT|INTERRES
   205  104  105 1    
   206  104  225 1    
   207  105  106 1    
   208  105  107 1    
   209  105  226 1    
   210  106  227 1    
   211  106  228 1    
   212  106  229 1    
   213  107  108 2    
   214  107  109 am   BACKBONE|DICT|INTERRES
   215  109  110 1    
   216  109  230 1    
   217  110  111 1    
   218  110  112 1    
   219  110  231 1    
   220  111  232 1    
   221  111  233 1    
   222  111  234 1    
   223  112  113 2    
   224  112  114 am   BACKBONE|DICT|INTERRES
   225  114  115 1    
   226  114  235 1    
   227  115  116 1    
   228  115  117 1    
   229  115  236 1    
   230  116  237 1    
   231  116  238 1    
   232  116  239 1    
   233  117  118 2    
   234  117  119 am   BACKBONE|DICT|INTERRES
   235  119  120 1    
   236  119  240 1    
   237  120  121 1    
   238  120  124 1    
   239  120  241 1    
   240  121  122 am   BACKBONE|DICT|INTERRES
   241  121  123 2    
   242  122  242 1    
   243  122  243 1    
   244  124  125 1    
   245  124  244 1    
   246  124  245 1    
   247  125  126 1    
   248  126  246 1    
   249  126  247 1    
@<TRIPOS>SUBSTRUCTURE
     1 UNK         1 GROUP             0       ****    0 ROOT    
