@<TRIPOS>MOLECULE
3R540
247   249    1
SMALL
USER_CHARGES


@<TRIPOS>ATOM
      1 CA         -3.2261  -15.7498  -45.5017 C.3       0 UNK        -0.1800 
      2 C          -2.1511  -14.7366  -45.8695 C.2       0 UNK         0.5000 
      3 O          -0.9839  -14.9374  -45.5392 O.2       0 UNK        -0.5000 
      4 N          -2.5364  -13.6408  -46.5376 N.am      1 UNK        -0.5000 
      5 CA         -1.6689  -12.5281  -46.9540 C.3       1 UNK         0.1400 
      6 C6         -0.6065  -12.9311  -48.0183 C.3       23 UNK        -0.0398 
      7 S7         -1.3651  -13.6249  -49.5239 S.3       23 UNK        -0.2404 
      8 C8          0.0913  -14.3167  -50.3687 C.3       23 UNK        -0.0205 
      9 C9         -0.2823  -15.5824  -51.1212 C.ar      23 UNK        -0.0193 
     10 C10        -0.7887  -15.5122  -52.4219 C.ar      23 UNK        -0.1150 
     11 C11        -1.1723  -16.6742  -53.0984 C.ar      23 UNK        -0.0193 
     12 C12        -1.0426  -17.9095  -52.4551 C.ar      23 UNK        -0.1150 
     13 C13        -0.5337  -18.0007  -51.1570 C.ar      23 UNK        -0.0193 
     14 C14        -0.1425  -16.8266  -50.5015 C.ar      23 UNK        -0.1150 
     15 C15        -0.4202  -19.3830  -50.5092 C.3       23 UNK        -0.0205 
     16 S16        -0.4176  -19.3956  -48.6830 S.3       23 UNK        -0.2404 
     17 C17        -2.0386  -18.6458  -48.2896 C.3       23 UNK        -0.0398 
     18 CA         -2.9947  -19.6333  -47.5794 C.3       11 UNK         0.1400 
     19 N          -2.4065  -20.1935  -46.3562 N.am      11 UNK        -0.5000 
     20 C          -2.7875  -21.3307  -45.7562 C.2       10 UNK         0.5000 
     21 O          -3.7062  -22.0376  -46.1678 O.2       10 UNK        -0.5000 
     22 CA         -2.0545  -21.7333  -44.4600 C.3       10 UNK         0.1400 
     23 CB         -0.9350  -22.7362  -44.7754 C.3       10 UNK        -0.1800 
     24 N          -1.4868  -20.5999  -43.7265 N.am      10 UNK        -0.5000 
     25 C          -2.1895  -19.5739  -43.2260 C.2       9 UNK         0.5000 
     26 O          -3.4184  -19.5149  -43.2562 O.2       9 UNK        -0.5000 
     27 CA         -1.3904  -18.3863  -42.6512 C.3       9 UNK         0.1400 
     28 CB         -1.3054  -18.4810  -41.1205 C.3       9 UNK        -0.1800 
     29 N          -0.0352  -18.2237  -43.1941 N.am      9 UNK        -0.5000 
     30 C           0.2880  -18.0878  -44.4902 C.2       8 UNK         0.5000 
     31 O          -0.5326  -18.1839  -45.4003 O.2       8 UNK        -0.5000 
     32 CA          1.7644  -17.8166  -44.8338 C.3       8 UNK         0.1400 
     33 CB          1.9088  -16.5205  -45.6488 C.3       8 UNK        -0.1800 
     34 N           2.6046  -17.6994  -43.6426 N.am      8 UNK        -0.5000 
     35 C           3.3703  -18.6644  -43.1180 C.2       7 UNK         0.5000 
     36 O           3.3966  -19.8204  -43.5424 O.2       7 UNK        -0.5000 
     37 CA          4.2487  -18.2477  -41.9146 C.3       7 UNK         0.1400 
     38 CB          5.4382  -19.1992  -41.6711 C.3       7 UNK        -0.1800 
     39 N           4.6948  -16.8504  -42.0049 N.am      7 UNK        -0.5000 
     40 C           5.4475  -16.2970  -42.9698 C.2       6 UNK         0.5000 
     41 O           6.0150  -16.9434  -43.8511 O.2       6 UNK        -0.5000 
     42 CA          5.5518  -14.7595  -42.9876 C.3       6 UNK         0.1400 
     43 CB          5.0033  -14.2037  -44.3116 C.3       6 UNK        -0.1800 
     44 N           4.8064  -14.1385  -41.8891 N.am      6 UNK        -0.5000 
     45 C           5.3549  -13.4410  -40.8850 C.2       5 UNK         0.5000 
     46 O           6.5620  -13.2199  -40.7817 O.2       5 UNK        -0.5000 
     47 CA          4.3979  -12.9038  -39.8009 C.3       5 UNK         0.1400 
     48 CB          4.0054  -11.4505  -40.1065 C.3       5 UNK        -0.1800 
     49 N           3.1832  -13.7079  -39.6453 N.am      5 UNK        -0.5000 
     50 C           3.1576  -14.9654  -39.1798 C.2       4 UNK         0.5000 
     51 O           4.1596  -15.5682  -38.7961 O.2       4 UNK        -0.5000 
     52 CA          1.8016  -15.6986  -39.1791 C.3       4 UNK         0.1400 
     53 CB          1.1871  -15.6906  -37.7715 C.3       4 UNK        -0.1800 
     54 N           0.8153  -15.1759  -40.1282 N.am      4 UNK        -0.5000 
     55 C           0.9609  -15.1039  -41.4575 C.2       3 UNK         0.5000 
     56 O           1.9986  -15.4189  -42.0462 O.2       3 UNK        -0.5000 
     57 CA         -0.2524  -14.6195  -42.2745 C.3       3 UNK         0.1400 
     58 CB         -1.4517  -14.1379  -41.4288 C.3       3 UNK        -0.1800 
     59 N           0.1178  -13.6103  -43.2626 N.am      3 UNK        -0.5000 
     60 C           0.6789  -12.4128  -43.0399 C.2       2 UNK         0.5000 
     61 O           0.9926  -12.0033  -41.9213 O.2       2 UNK        -0.5000 
     62 CA          0.9329  -11.5143  -44.2701 C.3       2 UNK         0.1400 
     63 CB          2.4358  -11.4271  -44.5742 C.3       2 UNK        -0.1800 
     64 N           0.2377  -11.9710  -45.4775 N.am      2 UNK        -0.5000 
     65 C          -1.0760  -11.8293  -45.7069 C.2       1 UNK         0.5000 
     66 O          -1.8298  -11.2029  -44.9595 O.2       1 UNK        -0.5000 
     67 C          -4.3864  -19.0024  -47.3491 C.2       11 UNK         0.5000 
     68 O          -5.0287  -18.6006  -48.3196 O.2       11 UNK        -0.5000 
     69 N          -4.8546  -18.9511  -46.0913 N.am      12 UNK        -0.5000 
     70 CA         -6.2589  -18.7062  -45.7545 C.3       12 UNK         0.1400 
     71 CB         -6.3650  -18.3302  -44.2694 C.3       12 UNK        -0.1800 
     72 C          -7.1516  -19.9265  -46.0747 C.2       12 UNK         0.5000 
     73 O          -8.3600  -19.7621  -46.2472 O.2       12 UNK        -0.5000 
     74 N          -6.5398  -21.1155  -46.1622 N.am      13 UNK        -0.5000 
     75 CA         -7.1265  -22.3561  -46.6563 C.3       13 UNK         0.1400 
     76 CB         -6.8895  -23.4617  -45.6088 C.3       13 UNK        -0.1800 
     77 C          -6.5056  -22.6833  -48.0316 C.2       13 UNK         0.5000 
     78 O          -6.0677  -21.7746  -48.7397 O.2       13 UNK        -0.5000 
     79 N          -6.4881  -23.9689  -48.4077 N.am      14 UNK        -0.5000 
     80 CA         -5.9618  -24.4417  -49.6912 C.3       14 UNK         0.1400 
     81 CB         -6.4949  -25.8571  -49.9614 C.3       14 UNK        -0.1800 
     82 C          -4.4236  -24.4335  -49.7825 C.2       14 UNK         0.5000 
     83 O          -3.8993  -24.4297  -50.8970 O.2       14 UNK        -0.5000 
     84 N          -3.7319  -24.4700  -48.6321 N.am      15 UNK        -0.5000 
     85 CA         -2.2706  -24.5464  -48.4821 C.3       15 UNK         0.1400 
     86 CB         -1.6087  -23.2202  -48.9103 C.3       15 UNK        -0.1800 
     87 C          -1.6607  -25.7659  -49.2063 C.2       15 UNK         0.5000 
     88 O          -0.6808  -25.6246  -49.9370 O.2       15 UNK        -0.5000 
     89 N          -2.2973  -26.9369  -49.0455 N.am      16 UNK        -0.5000 
     90 CA         -1.9919  -28.1940  -49.7482 C.3       16 UNK         0.1400 
     91 CB         -0.6288  -28.7612  -49.2986 C.3       16 UNK        -0.1800 
     92 C          -2.1171  -28.0577  -51.2842 C.2       16 UNK         0.5000 
     93 O          -1.3123  -28.6151  -52.0315 O.2       16 UNK        -0.5000 
     94 N          -3.1291  -27.2852  -51.7035 N.am      17 UNK        -0.5000 
     95 CA         -3.4854  -26.8830  -53.0671 C.3       17 UNK         0.1400 
     96 CB         -3.6784  -28.0963  -53.9993 C.3       17 UNK        -0.1800 
     97 C          -2.5675  -25.8071  -53.6830 C.2       17 UNK         0.5000 
     98 O          -2.7871  -25.4381  -54.8371 O.2       17 UNK        -0.5000 
     99 N          -1.6012  -25.2654  -52.9249 N.am      18 UNK        -0.5000 
    100 CA        -0.7407  -24.1700  -53.3809 C.3       18 UNK         0.1400 
    101 CB         0.4390  -23.9780  -52.4182 C.3       18 UNK        -0.1800 
    102 C         -1.5086  -22.8487  -53.5616 C.2       18 UNK         0.5000 
    103 O         -1.2221  -22.1115  -54.5047 O.2       18 UNK        -0.5000 
    104 N         -2.4987  -22.5855  -52.6950 N.am      19 UNK        -0.5000 
    105 CA        -3.3711  -21.4152  -52.8057 C.3       19 UNK         0.1400 
    106 CB        -4.1018  -21.1662  -51.4793 C.3       19 UNK        -0.1800 
    107 C         -4.3677  -21.5594  -53.9673 C.2       19 UNK         0.5000 
    108 O         -4.6637  -20.5699  -54.6365 O.2       19 UNK        -0.5000 
    109 N         -4.8263  -22.7948  -54.2152 N.am      20 UNK        -0.5000 
    110 CA        -5.6900  -23.1480  -55.3425 C.3       20 UNK         0.1400 
    111 CB        -6.2414  -24.5685  -55.1435 C.3       20 UNK        -0.1800 
    112 C         -4.9681  -23.0162  -56.6973 C.2       20 UNK         0.5000 
    113 O         -5.5734  -22.5471  -57.6615 O.2       20 UNK        -0.5000 
    114 N         -3.6853  -23.4049  -56.7378 N.am      21 UNK        -0.5000 
    115 CA        -2.8006  -23.2367  -57.8909 C.3       21 UNK         0.1400 
    116 CB        -1.5234  -24.0643  -57.6793 C.3       21 UNK        -0.1800 
    117 C         -2.4576  -21.7589  -58.1595 C.2       21 UNK         0.5000 
    118 O         -2.4583  -21.3373  -59.3169 O.2       21 UNK        -0.5000 
    119 N         -2.1787  -21.0043  -57.0885 N.am      22 UNK        -0.5000 
    120 CA        -1.9308  -19.5555  -57.1153 C.3       22 UNK         0.1400 
    121 C         -3.1814  -18.7310  -57.5391 C.2       22 UNK         0.5000 
    122 N         -4.3488  -18.9767  -56.9575 N.am      22 UNK        -0.7600 
    123 O         -3.0956  -17.8717  -58.4124 O.2       22 UNK        -0.5000 
    124 C124       -1.3509  -19.0868  -55.7583 C.3       23 UNK        -0.0398 
    125 S125       -0.6992  -17.3790  -55.7591 S.3       23 UNK        -0.2404 
    126 C126       -1.7572  -16.5833  -54.5045 C.3       23 UNK        -0.0205 
    127 H127       -4.1298  -15.6161  -46.0965 H         1 UNK         0.0600 
    128 H128       -3.4873  -15.6522  -44.4482 H         1 UNK         0.0600 
    129 H129       -2.8601  -16.7625  -45.6650 H         1 UNK         0.0600 
    130 H130       -3.5146  -13.5223  -46.7592 H         1 UNK         0.3000 
    131 H131       -2.3265  -11.7914  -47.4183 H         1 UNK         0.0600 
    132 H132       -0.0116  -12.0651  -48.3138 H         1 UNK         0.0800 
    133 H133        0.0874  -13.6696  -47.6142 H         1 UNK         0.0800 
    134 H134        0.5001  -13.5728  -51.0540 H         1 UNK         0.0800 
    135 H135        0.8813  -14.5385  -49.6496 H         1 UNK         0.0800 
    136 H136       -0.8994  -14.5480  -52.8982 H         1 UNK         0.1150 
    137 H137       -1.3339  -18.8118  -52.9656 H         1 UNK         0.1150 
    138 H138        0.2559  -16.8686  -49.4981 H         1 UNK         0.1150 
    139 H139       -1.2354  -20.0219  -50.8506 H         1 UNK         0.0800 
    140 H140        0.5017  -19.8502  -50.8572 H         1 UNK         0.0800 
    141 H141       -1.8615  -17.7659  -47.6698 H         1 UNK         0.0800 
    142 H142       -2.4947  -18.2760  -49.2092 H         1 UNK         0.0800 
    143 H143       -3.1721  -20.4596  -48.2688 H         1 UNK         0.0600 
    144 H144       -1.6547  -19.6425  -45.9491 H         1 UNK         0.3000 
    145 H145       -2.7829  -22.2211  -43.8091 H         1 UNK         0.0600 
    146 H146       -0.4446  -23.0813  -43.8649 H         1 UNK         0.0600 
    147 H147       -1.3314  -23.6165  -45.2824 H         1 UNK         0.0600 
    148 H148       -0.1742  -22.2986  -45.4234 H         1 UNK         0.0600 
    149 H149       -0.4802  -20.5557  -43.6703 H         1 UNK         0.3000 
    150 H150       -1.9497  -17.4842  -42.9062 H         1 UNK         0.0600 
    151 H151       -2.2983  -18.5780  -40.6788 H         1 UNK         0.0600 
    152 H152       -0.8485  -17.5900  -40.6908 H         1 UNK         0.0600 
    153 H153       -0.7199  -19.3450  -40.8041 H         1 UNK         0.0600 
    154 H154        0.7157  -18.1667  -42.5232 H         1 UNK         0.3000 
    155 H155        2.1075  -18.6472  -45.4537 H         1 UNK         0.0600 
    156 H156        2.9403  -16.3705  -45.9677 H         1 UNK         0.0600 
    157 H157        1.6081  -15.6473  -45.0687 H         1 UNK         0.0600 
    158 H158        1.2913  -16.5464  -46.5480 H         1 UNK         0.0600 
    159 H159        2.5978  -16.7915  -43.1844 H         1 UNK         0.3000 
    160 H160        3.6021  -18.3016  -41.0377 H         1 UNK         0.0600 
    161 H161        6.0946  -19.2617  -42.5393 H         1 UNK         0.0600 
    162 H162        5.0908  -20.2097  -41.4528 H         1 UNK         0.0600 
    163 H163        6.0362  -18.8721  -40.8206 H         1 UNK         0.0600 
    164 H164        4.2930  -16.2232  -41.3235 H         1 UNK         0.3000 
    165 H165        6.6135  -14.5132  -42.9268 H         1 UNK         0.0600 
    166 H166        3.9487  -14.4502  -44.4398 H         1 UNK         0.0600 
    167 H167        5.1070  -13.1195  -44.3537 H         1 UNK         0.0600 
    168 H168        5.5428  -14.6123  -45.1670 H         1 UNK         0.0600 
    169 H169        3.8022  -14.2781  -41.8953 H         1 UNK         0.3000 
    170 H170        4.9350  -12.9188  -38.8502 H         1 UNK         0.0600 
    171 H171        4.8880  -10.8122  -40.1638 H         1 UNK         0.0600 
    172 H172        3.4802  -11.3675  -41.0583 H         1 UNK         0.0600 
    173 H173        3.3595  -11.0424  -39.3290 H         1 UNK         0.0600 
    174 H174        2.3191  -13.2912  -39.9648 H         1 UNK         0.3000 
    175 H175        1.9999  -16.7359  -39.4566 H         1 UNK         0.0600 
    176 H176        0.9323  -14.6798  -37.4505 H         1 UNK         0.0600 
    177 H177        0.2807  -16.2951  -37.7326 H         1 UNK         0.0600 
    178 H178        1.8814  -16.1029  -37.0380 H         1 UNK         0.0600 
    179 H179       -0.0613  -14.8707  -39.7308 H         1 UNK         0.3000 
    180 H180       -0.5865  -15.4817  -42.8494 H         1 UNK         0.0600 
    181 H181       -1.1933  -13.2888  -40.7949 H         1 UNK         0.0600 
    182 H182       -1.8335  -14.9343  -40.7888 H         1 UNK         0.0600 
    183 H183       -2.2761  -13.8279  -42.0714 H         1 UNK         0.0600 
    184 H184       -0.0922  -13.8743  -44.2212 H         1 UNK         0.3000 
    185 H185        0.5782  -10.5131  -44.0168 H         1 UNK         0.0600 
    186 H186        2.6374  -10.6884  -45.3501 H         1 UNK         0.0600 
    187 H187        3.0042  -11.1327  -43.6908 H         1 UNK         0.0600 
    188 H188        2.8270  -12.3845  -44.9155 H         1 UNK         0.0600 
    189 H189        0.7870  -12.5199  -46.1217 H         1 UNK         0.3000 
    190 H190       -4.2595  -19.2628  -45.3334 H         1 UNK         0.3000 
    191 H191       -6.6189  -17.8619  -46.3461 H         1 UNK         0.0600 
    192 H192       -5.7301  -17.4767  -44.0304 H         1 UNK         0.0600 
    193 H193       -7.3887  -18.0587  -44.0093 H         1 UNK         0.0600 
    194 H194       -6.0725  -19.1584  -43.6231 H         1 UNK         0.0600 
    195 H195       -5.5301  -21.1447  -46.0730 H         1 UNK         0.3000 
    196 H196       -8.2019  -22.2402  -46.8032 H         1 UNK         0.0600 
    197 H197       -7.4158  -24.3803  -45.8694 H         1 UNK         0.0600 
    198 H198       -7.2566  -23.1550  -44.6291 H         1 UNK         0.0600 
    199 H199       -5.8302  -23.6998  -45.5043 H         1 UNK         0.0600 
    200 H200       -6.8697  -24.6673  -47.7862 H         1 UNK         0.3000 
    201 H201       -6.3368  -23.7865  -50.4803 H         1 UNK         0.0600 
    202 H202       -7.5849  -25.8715  -49.9727 H         1 UNK         0.0600 
    203 H203       -6.1576  -26.5675  -49.2056 H         1 UNK         0.0600 
    204 H204       -6.1595  -26.2245  -50.9322 H         1 UNK         0.0600 
    205 H205       -4.2578  -24.4395  -47.7703 H         1 UNK         0.3000 
    206 H206       -2.0717  -24.6881  -47.4194 H         1 UNK         0.0600 
    207 H207       -2.0136  -22.3827  -48.3507 H         1 UNK         0.0600 
    208 H208       -0.5342  -23.2369  -48.7247 H         1 UNK         0.0600 
    209 H209       -1.7553  -23.0127  -49.9692 H         1 UNK         0.0600 
    210 H210       -3.0991  -26.9596  -48.4310 H         1 UNK         0.3000 
    211 H211       -2.7585  -28.9090  -49.4461 H         1 UNK         0.0600 
    212 H212        0.2011  -28.1329  -49.6231 H         1 UNK         0.0600 
    213 H213       -0.4647  -29.7565  -49.7131 H         1 UNK         0.0600 
    214 H214       -0.5777  -28.8504  -48.2136 H         1 UNK         0.0600 
    215 H215       -3.6739  -26.8291  -50.9861 H         1 UNK         0.3000 
    216 H216       -4.4595  -26.4017  -52.9712 H         1 UNK         0.0600 
    217 H217       -4.3392  -28.8384  -53.5516 H         1 UNK         0.0600 
    218 H218       -2.7325  -28.5838  -54.2356 H         1 UNK         0.0600 
    219 H219       -4.1282  -27.7922  -54.9452 H         1 UNK         0.0600 
    220 H220       -1.4751  -25.5816  -51.9708 H         1 UNK         0.3000 
    221 H221       -0.3321  -24.4512  -54.3538 H         1 UNK         0.0600 
    222 H222        0.1124  -23.6114  -51.4452 H         1 UNK         0.0600 
    223 H223        0.9804  -24.9112  -52.2624 H         1 UNK         0.0600 
    224 H224        1.1484  -23.2512  -52.8158 H         1 UNK         0.0600 
    225 H225       -2.7348  -23.2694  -51.9817 H         1 UNK         0.3000 
    226 H226       -2.7474  -20.5449  -53.0075 H         1 UNK         0.0600 
    227 H227       -3.4149  -21.1682  -50.6337 H         1 UNK         0.0600 
    228 H228       -4.6022  -20.1973  -51.4889 H         1 UNK         0.0600 
    229 H229       -4.8660  -21.9192  -51.2921 H         1 UNK         0.0600 
    230 H230       -4.5109  -23.5493  -53.6243 H         1 UNK         0.3000 
    231 H231       -6.5345  -22.4555  -55.3471 H         1 UNK         0.0600 
    232 H232       -6.9430  -24.8257  -55.9379 H         1 UNK         0.0600 
    233 H233       -6.7757  -24.6569  -54.1973 H         1 UNK         0.0600 
    234 H234       -5.4501  -25.3177  -55.1544 H         1 UNK         0.0600 
    235 H235       -3.2895  -23.8672  -55.9254 H         1 UNK         0.3000 
    236 H236       -3.3145  -23.6266  -58.7720 H         1 UNK         0.0600 
    237 H237       -1.7560  -25.1222  -57.5558 H         1 UNK         0.0600 
    238 H238       -0.8537  -23.9754  -58.5355 H         1 UNK         0.0600 
    239 H239       -0.9732  -23.7389  -56.7959 H         1 UNK         0.0600 
    240 H240       -2.1387  -21.4489  -56.1779 H         1 UNK         0.3000 
    241 H241       -1.1636  -19.3838  -57.8729 H         1 UNK         0.0600 
    242 H242       -5.1597  -18.4515  -57.2416 H         1 UNK         0.3800 
    243 H243       -4.4335  -19.6509  -56.1994 H         1 UNK         0.3800 
    244 H244       -0.5219  -19.7345  -55.4704 H         1 UNK         0.0800 
    245 H245       -2.1078  -19.2073  -54.9843 H         1 UNK         0.0800 
    246 H246       -1.8849  -15.5380  -54.7899 H         1 UNK         0.0800 
    247 H247       -2.7579  -17.0175  -54.5177 H         1 UNK         0.0800 
@<TRIPOS>BOND
     1    1    2 1    
     2    1  127 1    
     3    1  128 1    
     4    1  129 1    
     5    2    3 2    
     6    2    4 am   BACKBONE|DICT|INTERRES
     7    4    5 1    
     8    4  130 1    
     9    5    6 1    
    10    5   65 1    
    11    5  131 1    
    12    6    7 1    
    13    6  132 1    
    14    6  133 1    
    15    7    8 1    
    16    8    9 1    
    17    8  134 1    
    18    8  135 1    
    19    9   10 ar   
    20    9   14 ar   
    21   10   11 ar   
    22   10  136 1    
    23   11   12 ar   
    24   11  126 1    
    25   12   13 ar   
    26   12  137 1    
    27   13   14 ar   
    28   13   15 1    
    29   14  138 1    
    30   15   16 1    
    31   15  139 1    
    32   15  140 1    
    33   16   17 1    
    34   17   18 1    
    35   17  141 1    
    36   17  142 1    
    37   18   19 1    
    38   18   67 1    
    39   18  143 1    
    40   19   20 am   BACKBONE|DICT|INTERRES
    41   19  144 1    
    42   20   21 2    
    43   20   22 1    
    44   22   23 1    
    45   22   24 1    
    46   22  145 1    
    47   23  146 1    
    48   23  147 1    
    49   23  148 1    
    50   24   25 am   BACKBONE|DICT|INTERRES
    51   24  149 1    
    52   25   26 2    
    53   25   27 1    
    54   27   28 1    
    55   27   29 1    
    56   27  150 1    
    57   28  151 1    
    58   28  152 1    
    59   28  153 1    
    60   29   30 am   BACKBONE|DICT|INTERRES
    61   29  154 1    
    62   30   31 2    
    63   30   32 1    
    64   32   33 1    
    65   32   34 1    
    66   32  155 1    
    67   33  156 1    
    68   33  157 1    
    69   33  158 1    
    70   34   35 am   BACKBONE|DICT|INTERRES
    71   34  159 1    
    72   35   36 2    
    73   35   37 1    
    74   37   38 1    
    75   37   39 1    
    76   37  160 1    
    77   38  161 1    
    78   38  162 1    
    79   38  163 1    
    80   39   40 am   BACKBONE|DICT|INTERRES
    81   39  164 1    
    82   40   41 2    
    83   40   42 1    
    84   42   43 1    
    85   42   44 1    
    86   42  165 1    
    87   43  166 1    
    88   43  167 1    
    89   43  168 1    
    90   44   45 am   BACKBONE|DICT|INTERRES
    91   44  169 1    
    92   45   46 2    
    93   45   47 1    
    94   47   48 1    
    95   47   49 1    
    96   47  170 1    
    97   48  171 1    
    98   48  172 1    
    99   48  173 1    
   100   49   50 am   BACKBONE|DICT|INTERRES
   101   49  174 1    
   102   50   51 2    
   103   50   52 1    
   104   52   53 1    
   105   52   54 1    
   106   52  175 1    
   107   53  176 1    
   108   53  177 1    
   109   53  178 1    
   110   54   55 am   BACKBONE|DICT|INTERRES
   111   54  179 1    
   112   55   56 2    
   113   55   57 1    
   114   57   58 1    
   115   57   59 1    
   116   57  180 1    
   117   58  181 1    
   118   58  182 1    
   119   58  183 1    
   120   59   60 am   BACKBONE|DICT|INTERRES
   121   59  184 1    
   122   60   61 2    
   123   60   62 1    
   124   62   63 1    
   125   62   64 1    
   126   62  185 1    
   127   63  186 1    
   128   63  187 1    
   129   63  188 1    
   130   64   65 am   BACKBONE|DICT|INTERRES
   131   64  189 1    
   132   65   66 2    
   133   67   68 2    
   134   67   69 am   BACKBONE|DICT|INTERRES
   135   69   70 1    
   136   69  190 1    
   137   70   71 1    
   138   70   72 1    
   139   70  191 1    
   140   71  192 1    
   141   71  193 1    
   142   71  194 1    
   143   72   73 2    
   144   72   74 am   BACKBONE|DICT|INTERRES
   145   74   75 1    
   146   74  195 1    
   147   75   76 1    
   148   75   77 1    
   149   75  196 1    
   150   76  197 1    
   151   76  198 1    
   152   76  199 1    
   153   77   78 2    
   154   77   79 am   BACKBONE|DICT|INTERRES
   155   79   80 1    
   156   79  200 1    
   157   80   81 1    
   158   80   82 1    
   159   80  201 1    
   160   81  202 1    
   161   81  203 1    
   162   81  204 1    
   163   82   83 2    
   164   82   84 am   BACKBONE|DICT|INTERRES
   165   84   85 1    
   166   84  205 1    
   167   85   86 1    
   168   85   87 1    
   169   85  206 1    
   170   86  207 1    
   171   86  208 1    
   172   86  209 1    
   173   87   88 2    
   174   87   89 am   BACKBONE|DICT|INTERRES
   175   89   90 1    
   176   89  210 1    
   177   90   91 1    
   178   90   92 1    
   179   90  211 1    
   180   91  212 1    
   181   91  213 1    
   182   91  214 1    
   183   92   93 2    
   184   92   94 am   BACKBONE|DICT|INTERRES
   185   94   95 1    
   186   94  215 1    
   187   95   96 1    
   188   95   97 1    
   189   95  216 1    
   190   96  217 1    
   191   96  218 1    
   192   96  219 1    
   193   97   98 2    
   194   97   99 am   BACKBONE|DICT|INTERRES
   195   99  100 1    
   196   99  220 1    
   197  100  101 1    
   198  100  102 1    
   199  100  221 1    
   200  101  222 1    
   201  101  223 1    
   202  101  224 1    
   203  102  103 2    
   204  102  104 am   BACKBONE|DICT|INTERRES
   205  104  105 1    
   206  104  225 1    
   207  105  106 1    
   208  105  107 1    
   209  105  226 1    
   210  106  227 1    
   211  106  228 1    
   212  106  229 1    
   213  107  108 2    
   214  107  109 am   BACKBONE|DICT|INTERRES
   215  109  110 1    
   216  109  230 1    
   217  110  111 1    
   218  110  112 1    
   219  110  231 1    
   220  111  232 1    
   221  111  233 1    
   222  111  234 1    
   223  112  113 2    
   224  112  114 am   BACKBONE|DICT|INTERRES
   225  114  115 1    
   226  114  235 1    
   227  115  116 1    
   228  115  117 1    
   229  115  236 1    
   230  116  237 1    
   231  116  238 1    
   232  116  239 1    
   233  117  118 2    
   234  117  119 am   BACKBONE|DICT|INTERRES
   235  119  120 1    
   236  119  240 1    
   237  120  121 1    
   238  120  124 1    
   239  120  241 1    
   240  121  122 am   BACKBONE|DICT|INTERRES
   241  121  123 2    
   242  122  242 1    
   243  122  243 1    
   244  124  125 1    
   245  124  244 1    
   246  124  245 1    
   247  125  126 1    
   248  126  246 1    
   249  126  247 1    
@<TRIPOS>SUBSTRUCTURE
     1 UNK         1 GROUP             0       ****    0 ROOT    
