@<TRIPOS>MOLECULE
3R540
247   249    1
SMALL
USER_CHARGES


@<TRIPOS>ATOM
      1 CA         -2.5519  -14.0202  -47.3485 C.3       0 UNK        -0.1800 
      2 C          -1.3024  -13.7961  -48.1869 C.2       0 UNK         0.5000 
      3 O          -1.3109  -12.9403  -49.0719 O.2       0 UNK        -0.5000 
      4 N          -0.2276  -14.5449  -47.9070 N.am      1 UNK        -0.5000 
      5 CA          1.0632  -14.4805  -48.6029 C.3       1 UNK         0.1400 
      6 C6          1.9860  -15.6681  -48.2338 C.3       23 UNK        -0.0398 
      7 S7          1.2520  -17.2862  -48.6375 S.3       23 UNK        -0.2404 
      8 C8          2.0658  -17.6596  -50.2197 C.3       23 UNK        -0.0205 
      9 C9          1.6121  -19.0060  -50.7600 C.ar      23 UNK        -0.0193 
     10 C10         0.6673  -19.0794  -51.7868 C.ar      23 UNK        -0.1150 
     11 C11         0.2525  -20.3182  -52.2809 C.ar      23 UNK        -0.0193 
     12 C12         0.7901  -21.4884  -51.7369 C.ar      23 UNK        -0.1150 
     13 C13         1.7250  -21.4361  -50.6990 C.ar      23 UNK        -0.0193 
     14 C14         2.1419  -20.1842  -50.2274 C.ar      23 UNK        -0.1150 
     15 C15         2.2604  -22.7544  -50.1360 C.3       23 UNK        -0.0205 
     16 S16         3.0257  -22.6617  -48.4820 S.3       23 UNK        -0.2404 
     17 C17         1.6126  -22.1899  -47.4275 C.3       23 UNK        -0.0398 
     18 CA          1.3078  -23.2619  -46.3477 C.3       11 UNK         0.1400 
     19 N           1.0959  -22.6705  -45.0234 N.am      11 UNK        -0.5000 
     20 C           1.1572  -23.3572  -43.8741 C.2       10 UNK         0.5000 
     21 O           1.4467  -24.5513  -43.8108 O.2       10 UNK        -0.5000 
     22 CA          0.8055  -22.5973  -42.5819 C.3       10 UNK         0.1400 
     23 CB          2.0264  -21.8366  -42.0436 C.3       10 UNK        -0.1800 
     24 N          -0.3158  -21.6741  -42.7586 N.am      10 UNK        -0.5000 
     25 C          -1.5707  -22.0570  -43.0353 C.2       9 UNK         0.5000 
     26 O          -1.9240  -23.2343  -43.1096 O.2       9 UNK        -0.5000 
     27 CA         -2.5941  -20.9406  -43.3155 C.3       9 UNK         0.1400 
     28 CB         -3.1583  -20.3786  -42.0024 C.3       9 UNK        -0.1800 
     29 N          -2.0469  -19.8484  -44.1229 N.am      9 UNK        -0.5000 
     30 C          -1.5843  -19.9798  -45.3746 C.2       8 UNK         0.5000 
     31 O          -1.5883  -21.0388  -45.9985 O.2       8 UNK        -0.5000 
     32 CA         -0.9491  -18.7370  -46.0180 C.3       8 UNK         0.1400 
     33 CB         -2.0214  -17.7640  -46.5239 C.3       8 UNK        -0.1800 
     34 N          -0.0340  -18.0475  -45.1084 N.am      8 UNK        -0.5000 
     35 C           1.0885  -18.5952  -44.6196 C.2       7 UNK         0.5000 
     36 O           1.4939  -19.7170  -44.9224 O.2       7 UNK        -0.5000 
     37 CA          1.8520  -17.7766  -43.5669 C.3       7 UNK         0.1400 
     38 CB          2.7456  -16.7225  -44.2345 C.3       7 UNK        -0.1800 
     39 N           0.9417  -17.1318  -42.6204 N.am      7 UNK        -0.5000 
     40 C           0.2168  -17.7946  -41.7071 C.2       6 UNK         0.5000 
     41 O           0.2717  -19.0132  -41.5443 O.2       6 UNK        -0.5000 
     42 CA         -0.7645  -16.9607  -40.8635 C.3       6 UNK         0.1400 
     43 CB         -0.0459  -16.3331  -39.6600 C.3       6 UNK        -0.1800 
     44 N          -1.4231  -15.9083  -41.6388 N.am      6 UNK        -0.5000 
     45 C          -2.2751  -16.1306  -42.6498 C.2       5 UNK         0.5000 
     46 O          -2.6204  -17.2525  -43.0171 O.2       5 UNK        -0.5000 
     47 CA         -2.7900  -14.8939  -43.4083 C.3       5 UNK         0.1400 
     48 CB         -4.0648  -14.3469  -42.7507 C.3       5 UNK        -0.1800 
     49 N          -1.7959  -13.8217  -43.5059 N.am      5 UNK        -0.5000 
     50 C          -0.6195  -13.9218  -44.1370 C.2       4 UNK         0.5000 
     51 O          -0.2604  -14.9278  -44.7562 O.2       4 UNK        -0.5000 
     52 CA          0.2892  -12.6821  -44.0682 C.3       4 UNK         0.1400 
     53 CB          1.7735  -13.0621  -43.9481 C.3       4 UNK        -0.1800 
     54 N           0.0777  -11.8391  -45.2448 N.am      4 UNK        -0.5000 
     55 C          -0.9302  -10.9603  -45.3614 C.2       3 UNK         0.5000 
     56 O          -1.7318  -10.7452  -44.4506 O.2       3 UNK        -0.5000 
     57 CA         -1.1289  -10.2257  -46.7057 C.3       3 UNK         0.1400 
     58 CB         -1.3129   -8.7049  -46.5216 C.3       3 UNK        -0.1800 
     59 N          -0.1290  -10.5370  -47.7326 N.am      3 UNK        -0.5000 
     60 C           1.1478  -10.1320  -47.8172 C.2       2 UNK         0.5000 
     61 O           1.6851   -9.3618  -47.0205 O.2       2 UNK        -0.5000 
     62 CA          1.9572  -10.7441  -48.9856 C.3       2 UNK         0.1400 
     63 CB          3.4808  -10.5426  -48.8441 C.3       2 UNK        -0.1800 
     64 N           1.6279  -12.1620  -49.1954 N.am      2 UNK        -0.5000 
     65 C           1.7431  -13.1370  -48.2817 C.2       1 UNK         0.5000 
     66 O           2.2742  -12.9804  -47.1834 O.2       1 UNK        -0.5000 
     67 C           0.1389  -24.1886  -46.7482 C.2       11 UNK         0.5000 
     68 O           0.3755  -25.2839  -47.2581 O.2       11 UNK        -0.5000 
     69 N          -1.1000  -23.7665  -46.4514 N.am      12 UNK        -0.5000 
     70 CA         -2.3405  -24.5102  -46.6930 C.3       12 UNK         0.1400 
     71 CB         -3.5493  -23.6237  -46.3568 C.3       12 UNK        -0.1800 
     72 C          -2.4374  -25.8497  -45.9421 C.2       12 UNK         0.5000 
     73 O          -3.1565  -26.7385  -46.3991 O.2       12 UNK        -0.5000 
     74 N          -1.6971  -25.9894  -44.8326 N.am      13 UNK        -0.5000 
     75 CA         -1.5471  -27.2407  -44.0874 C.3       13 UNK         0.1400 
     76 CB         -0.8193  -26.9659  -42.7635 C.3       13 UNK        -0.1800 
     77 C          -0.8238  -28.3391  -44.8951 C.2       13 UNK         0.5000 
     78 O          -1.0739  -29.5209  -44.6543 O.2       13 UNK        -0.5000 
     79 N           0.0265  -27.9371  -45.8518 N.am      14 UNK        -0.5000 
     80 CA          0.5685  -28.8100  -46.8886 C.3       14 UNK         0.1400 
     81 CB          1.9821  -28.3470  -47.2837 C.3       14 UNK        -0.1800 
     82 C          -0.4012  -28.8185  -48.0821 C.2       14 UNK         0.5000 
     83 O          -1.0327  -29.8440  -48.3385 O.2       14 UNK        -0.5000 
     84 N          -0.5325  -27.6634  -48.7475 N.am      15 UNK        -0.5000 
     85 CA         -1.4481  -27.3752  -49.8508 C.3       15 UNK         0.1400 
     86 CB         -1.2317  -28.3246  -51.0486 C.3       15 UNK        -0.1800 
     87 C          -1.2151  -25.9266  -50.3002 C.2       15 UNK         0.5000 
     88 O          -0.0633  -25.5325  -50.4891 O.2       15 UNK        -0.5000 
     89 N          -2.2996  -25.1715  -50.4974 N.am      16 UNK        -0.5000 
     90 CA         -2.2962  -23.8031  -51.0078 C.3       16 UNK         0.1400 
     91 CB         -1.8605  -22.8089  -49.9135 C.3       16 UNK        -0.1800 
     92 C          -3.7030  -23.4604  -51.5141 C.2       16 UNK         0.5000 
     93 O          -4.6709  -24.1342  -51.1488 O.2       16 UNK        -0.5000 
     94 N          -3.7883  -22.4047  -52.3293 N.am      17 UNK        -0.5000 
     95 CA         -5.0433  -21.8016  -52.7725 C.3       17 UNK         0.1400 
     96 CB         -4.7728  -20.9678  -54.0336 C.3       17 UNK        -0.1800 
     97 C          -5.6412  -20.9116  -51.6697 C.2       17 UNK         0.5000 
     98 O          -4.8999  -20.3849  -50.8337 O.2       17 UNK        -0.5000 
     99 N          -6.9666  -20.7248  -51.7179 N.am      18 UNK        -0.5000 
    100 CA        -7.7228  -19.8424  -50.8276 C.3       18 UNK         0.1400 
    101 CB        -9.2156  -19.9234  -51.1803 C.3       18 UNK        -0.1800 
    102 C         -7.2209  -18.3897  -50.9125 C.2       18 UNK         0.5000 
    103 O         -7.0586  -17.8670  -52.0173 O.2       18 UNK        -0.5000 
    104 N         -6.9348  -17.7936  -49.7468 N.am      19 UNK        -0.5000 
    105 CA        -6.3608  -16.4533  -49.5628 C.3       19 UNK         0.1400 
    106 CB        -7.3827  -15.3707  -49.9693 C.3       19 UNK        -0.1800 
    107 C         -4.9880  -16.2579  -50.2494 C.2       19 UNK         0.5000 
    108 O         -4.6279  -15.1249  -50.5703 O.2       19 UNK        -0.5000 
    109 N         -4.2571  -17.3645  -50.4707 N.am      20 UNK        -0.5000 
    110 CA        -2.9650  -17.4589  -51.1609 C.3       20 UNK         0.1400 
    111 CB        -1.8857  -16.6542  -50.4087 C.3       20 UNK        -0.1800 
    112 C         -3.0258  -17.0900  -52.6605 C.2       20 UNK         0.5000 
    113 O         -1.9861  -16.8100  -53.2581 O.2       20 UNK        -0.5000 
    114 N         -4.2245  -17.1058  -53.2607 N.am      21 UNK        -0.5000 
    115 CA        -4.4980  -16.6286  -54.6191 C.3       21 UNK         0.1400 
    116 CB        -5.9697  -16.1824  -54.6909 C.3       21 UNK        -0.1800 
    117 C         -4.1306  -17.6386  -55.7306 C.2       21 UNK         0.5000 
    118 O         -4.9081  -17.8230  -56.6695 O.2       21 UNK        -0.5000 
    119 N         -2.9591  -18.2751  -55.6198 N.am      22 UNK        -0.5000 
    120 CA        -2.3673  -19.1146  -56.6727 C.3       22 UNK         0.1400 
    121 C         -1.6056  -18.2808  -57.7436 C.2       22 UNK         0.5000 
    122 N         -1.3462  -18.8539  -58.9116 N.am      22 UNK        -0.7600 
    123 O         -1.2367  -17.1270  -57.5318 O.2       22 UNK        -0.5000 
    124 C124       -1.5085  -20.2709  -56.0953 C.3       23 UNK        -0.0398 
    125 S125       -0.1620  -19.7635  -54.9682 S.3       23 UNK        -0.2404 
    126 C126       -0.7923  -20.3944  -53.3831 C.3       23 UNK        -0.0205 
    127 H127       -2.8327  -13.1024  -46.8329 H         1 UNK         0.0600 
    128 H128       -2.4006  -14.7953  -46.6007 H         1 UNK         0.0600 
    129 H129       -3.3809  -14.3229  -47.9883 H         1 UNK         0.0600 
    130 H130       -0.2544  -15.1694  -47.1119 H         1 UNK         0.3000 
    131 H131        0.8718  -14.5263  -49.6772 H         1 UNK         0.0600 
    132 H132        2.9503  -15.5768  -48.7368 H         1 UNK         0.0800 
    133 H133        2.2039  -15.6645  -47.1651 H         1 UNK         0.0800 
    134 H134        1.8469  -16.8666  -50.9364 H         1 UNK         0.0800 
    135 H135        3.1481  -17.6678  -50.0824 H         1 UNK         0.0800 
    136 H136        0.2588  -18.1752  -52.2146 H         1 UNK         0.1150 
    137 H137        0.4741  -22.4503  -52.1153 H         1 UNK         0.1150 
    138 H138        2.8737  -20.1112  -49.4364 H         1 UNK         0.1150 
    139 H139        1.4558  -23.4878  -50.0924 H         1 UNK         0.0800 
    140 H140        2.9990  -23.1496  -50.8342 H         1 UNK         0.0800 
    141 H141        1.8967  -21.2462  -46.9627 H         1 UNK         0.0800 
    142 H142        0.7361  -21.9508  -48.0325 H         1 UNK         0.0800 
    143 H143        2.1856  -23.9046  -46.2478 H         1 UNK         0.0600 
    144 H144        0.9023  -21.6749  -44.9895 H         1 UNK         0.3000 
    145 H145        0.5133  -23.3373  -41.8338 H         1 UNK         0.0600 
    146 H146        1.8040  -21.3610  -41.0883 H         1 UNK         0.0600 
    147 H147        2.8673  -22.5123  -41.8827 H         1 UNK         0.0600 
    148 H148        2.3563  -21.0608  -42.7343 H         1 UNK         0.0600 
    149 H149       -0.1144  -20.6852  -42.6543 H         1 UNK         0.3000 
    150 H150       -3.4202  -21.3815  -43.8763 H         1 UNK         0.0600 
    151 H151       -3.5925  -21.1715  -41.3923 H         1 UNK         0.0600 
    152 H152       -3.9439  -19.6471  -42.1925 H         1 UNK         0.0600 
    153 H153       -2.3851  -19.8917  -41.4079 H         1 UNK         0.0600 
    154 H154       -2.0501  -18.9252  -43.6968 H         1 UNK         0.3000 
    155 H155       -0.3698  -19.0772  -46.8787 H         1 UNK         0.0600 
    156 H156       -1.5610  -16.9243  -47.0394 H         1 UNK         0.0600 
    157 H157       -2.6321  -17.3694  -45.7124 H         1 UNK         0.0600 
    158 H158       -2.6903  -18.2539  -47.2327 H         1 UNK         0.0600 
    159 H159       -0.2849  -17.1105  -44.8178 H         1 UNK         0.3000 
    160 H160        2.4949  -18.4615  -43.0099 H         1 UNK         0.0600 
    161 H161        2.1609  -16.0192  -44.8249 H         1 UNK         0.0600 
    162 H162        3.4653  -17.1921  -44.9062 H         1 UNK         0.0600 
    163 H163        3.3104  -16.1546  -43.4953 H         1 UNK         0.0600 
    164 H164        0.8023  -16.1384  -42.7271 H         1 UNK         0.3000 
    165 H165       -1.5358  -17.6359  -40.4868 H         1 UNK         0.0600 
    166 H166        0.7223  -15.6244  -39.9720 H         1 UNK         0.0600 
    167 H167       -0.7473  -15.8056  -39.0133 H         1 UNK         0.0600 
    168 H168        0.4402  -17.0987  -39.0538 H         1 UNK         0.0600 
    169 H169       -1.1977  -14.9541  -41.4000 H         1 UNK         0.3000 
    170 H170       -3.0432  -15.2146  -44.4194 H         1 UNK         0.0600 
    171 H171       -4.8317  -15.1198  -42.6830 H         1 UNK         0.0600 
    172 H172       -3.8739  -13.9837  -41.7401 H         1 UNK         0.0600 
    173 H173       -4.4846  -13.5242  -43.3299 H         1 UNK         0.0600 
    174 H174       -2.0382  -12.9402  -43.0743 H         1 UNK         0.3000 
    175 H175        0.0361  -12.1149  -43.1698 H         1 UNK         0.0600 
    176 H176        2.4068  -12.1753  -43.9216 H         1 UNK         0.0600 
    177 H177        1.9572  -13.6218  -43.0304 H         1 UNK         0.0600 
    178 H178        2.1073  -13.6841  -44.7762 H         1 UNK         0.0600 
    179 H179        0.7051  -11.9935  -46.0248 H         1 UNK         0.3000 
    180 H180       -2.0683  -10.6100  -47.1054 H         1 UNK         0.0600 
    181 H181       -1.4559   -8.2043  -47.4792 H         1 UNK         0.0600 
    182 H182       -2.1911   -8.4904  -45.9114 H         1 UNK         0.0600 
    183 H183       -0.4577   -8.2467  -46.0248 H         1 UNK         0.0600 
    184 H184       -0.4447  -11.2106  -48.4245 H         1 UNK         0.3000 
    185 H185        1.6382  -10.2163  -49.8854 H         1 UNK         0.0600 
    186 H186        4.0165  -10.9869  -49.6829 H         1 UNK         0.0600 
    187 H187        3.7327   -9.4818  -48.8244 H         1 UNK         0.0600 
    188 H188        3.8682  -10.9855  -47.9262 H         1 UNK         0.0600 
    189 H189        1.1281  -12.3686  -50.0499 H         1 UNK         0.3000 
    190 H190       -1.2146  -22.8257  -46.0790 H         1 UNK         0.3000 
    191 H191       -2.3771  -24.7443  -47.7560 H         1 UNK         0.0600 
    192 H192       -4.4845  -24.1337  -46.5911 H         1 UNK         0.0600 
    193 H193       -3.5374  -22.6950  -46.9265 H         1 UNK         0.0600 
    194 H194       -3.5736  -23.3665  -45.2984 H         1 UNK         0.0600 
    195 H195       -1.1692  -25.1924  -44.5025 H         1 UNK         0.3000 
    196 H196       -2.5485  -27.6077  -43.8534 H         1 UNK         0.0600 
    197 H197       -0.8095  -27.8572  -42.1351 H         1 UNK         0.0600 
    198 H198       -1.3086  -26.1726  -42.1976 H         1 UNK         0.0600 
    199 H199        0.2175  -26.6736  -42.9272 H         1 UNK         0.0600 
    200 H200        0.1404  -26.9423  -46.0094 H         1 UNK         0.3000 
    201 H201        0.6513  -29.8317  -46.5116 H         1 UNK         0.0600 
    202 H202        2.6625  -28.4064  -46.4341 H         1 UNK         0.0600 
    203 H203        1.9996  -27.3203  -47.6485 H         1 UNK         0.0600 
    204 H204        2.3907  -28.9808  -48.0716 H         1 UNK         0.0600 
    205 H205        0.0067  -26.8580  -48.4370 H         1 UNK         0.3000 
    206 H206       -2.4706  -27.4788  -49.4823 H         1 UNK         0.0600 
    207 H207       -1.5333  -29.3459  -50.8199 H         1 UNK         0.0600 
    208 H208       -1.8236  -28.0089  -51.9088 H         1 UNK         0.0600 
    209 H209       -0.1866  -28.3437  -51.3599 H         1 UNK         0.0600 
    210 H210       -3.2283  -25.5572  -50.3736 H         1 UNK         0.3000 
    211 H211       -1.6050  -23.7474  -51.8511 H         1 UNK         0.0600 
    212 H212       -2.5815  -22.7693  -49.0985 H         1 UNK         0.0600 
    213 H213       -1.7755  -21.7974  -50.3116 H         1 UNK         0.0600 
    214 H214       -0.8912  -23.0713  -49.4927 H         1 UNK         0.0600 
    215 H215       -2.9528  -21.8796  -52.5280 H         1 UNK         0.3000 
    216 H216       -5.7564  -22.5917  -53.0178 H         1 UNK         0.0600 
    217 H217       -4.0476  -20.1776  -53.8410 H         1 UNK         0.0600 
    218 H218       -4.3916  -21.5898  -54.8431 H         1 UNK         0.0600 
    219 H219       -5.6845  -20.4907  -54.3959 H         1 UNK         0.0600 
    220 H220       -7.4940  -21.1640  -52.4581 H         1 UNK         0.3000 
    221 H221       -7.5889  -20.2083  -49.8075 H         1 UNK         0.0600 
    222 H222       -9.4054  -19.5972  -52.2038 H         1 UNK         0.0600 
    223 H223       -9.5923  -20.9411  -51.0761 H         1 UNK         0.0600 
    224 H224       -9.8075  -19.2891  -50.5190 H         1 UNK         0.0600 
    225 H225       -7.0813  -18.3179  -48.8951 H         1 UNK         0.3000 
    226 H226       -6.1760  -16.3456  -48.4931 H         1 UNK         0.0600 
    227 H227       -8.3394  -15.5233  -49.4697 H         1 UNK         0.0600 
    228 H228       -7.0314  -14.3754  -49.6945 H         1 UNK         0.0600 
    229 H229       -7.5624  -15.3678  -51.0449 H         1 UNK         0.0600 
    230 H230       -4.6603  -18.2575  -50.2110 H         1 UNK         0.3000 
    231 H231       -2.6785  -18.5107  -51.1203 H         1 UNK         0.0600 
    232 H232       -0.8950  -16.8289  -50.8231 H         1 UNK         0.0600 
    233 H233       -1.8462  -16.9348  -49.3583 H         1 UNK         0.0600 
    234 H234       -2.0641  -15.5810  -50.4660 H         1 UNK         0.0600 
    235 H235       -5.0362  -17.3759  -52.7170 H         1 UNK         0.3000 
    236 H236       -3.8856  -15.7421  -54.7966 H         1 UNK         0.0600 
    237 H237       -6.2036  -15.4621  -53.9065 H         1 UNK         0.0600 
    238 H238       -6.1903  -15.7032  -55.6455 H         1 UNK         0.0600 
    239 H239       -6.6498  -17.0280  -54.5818 H         1 UNK         0.0600 
    240 H240       -2.3401  -18.0003  -54.8648 H         1 UNK         0.3000 
    241 H241       -3.1899  -19.5933  -57.2079 H         1 UNK         0.0600 
    242 H242       -1.6405  -19.7954  -59.1208 H         1 UNK         0.3800 
    243 H243       -0.8490  -18.3270  -59.6133 H         1 UNK         0.3800 
    244 H244       -2.1636  -20.9707  -55.5777 H         1 UNK         0.0800 
    245 H245       -1.0642  -20.8544  -56.9031 H         1 UNK         0.0800 
    246 H246       -1.1163  -21.4270  -53.5177 H         1 UNK         0.0800 
    247 H247       -1.6723  -19.8221  -53.0902 H         1 UNK         0.0800 
@<TRIPOS>BOND
     1    1    2 1    
     2    1  127 1    
     3    1  128 1    
     4    1  129 1    
     5    2    3 2    
     6    2    4 am   BACKBONE|DICT|INTERRES
     7    4    5 1    
     8    4  130 1    
     9    5    6 1    
    10    5   65 1    
    11    5  131 1    
    12    6    7 1    
    13    6  132 1    
    14    6  133 1    
    15    7    8 1    
    16    8    9 1    
    17    8  134 1    
    18    8  135 1    
    19    9   10 ar   
    20    9   14 ar   
    21   10   11 ar   
    22   10  136 1    
    23   11   12 ar   
    24   11  126 1    
    25   12   13 ar   
    26   12  137 1    
    27   13   14 ar   
    28   13   15 1    
    29   14  138 1    
    30   15   16 1    
    31   15  139 1    
    32   15  140 1    
    33   16   17 1    
    34   17   18 1    
    35   17  141 1    
    36   17  142 1    
    37   18   19 1    
    38   18   67 1    
    39   18  143 1    
    40   19   20 am   BACKBONE|DICT|INTERRES
    41   19  144 1    
    42   20   21 2    
    43   20   22 1    
    44   22   23 1    
    45   22   24 1    
    46   22  145 1    
    47   23  146 1    
    48   23  147 1    
    49   23  148 1    
    50   24   25 am   BACKBONE|DICT|INTERRES
    51   24  149 1    
    52   25   26 2    
    53   25   27 1    
    54   27   28 1    
    55   27   29 1    
    56   27  150 1    
    57   28  151 1    
    58   28  152 1    
    59   28  153 1    
    60   29   30 am   BACKBONE|DICT|INTERRES
    61   29  154 1    
    62   30   31 2    
    63   30   32 1    
    64   32   33 1    
    65   32   34 1    
    66   32  155 1    
    67   33  156 1    
    68   33  157 1    
    69   33  158 1    
    70   34   35 am   BACKBONE|DICT|INTERRES
    71   34  159 1    
    72   35   36 2    
    73   35   37 1    
    74   37   38 1    
    75   37   39 1    
    76   37  160 1    
    77   38  161 1    
    78   38  162 1    
    79   38  163 1    
    80   39   40 am   BACKBONE|DICT|INTERRES
    81   39  164 1    
    82   40   41 2    
    83   40   42 1    
    84   42   43 1    
    85   42   44 1    
    86   42  165 1    
    87   43  166 1    
    88   43  167 1    
    89   43  168 1    
    90   44   45 am   BACKBONE|DICT|INTERRES
    91   44  169 1    
    92   45   46 2    
    93   45   47 1    
    94   47   48 1    
    95   47   49 1    
    96   47  170 1    
    97   48  171 1    
    98   48  172 1    
    99   48  173 1    
   100   49   50 am   BACKBONE|DICT|INTERRES
   101   49  174 1    
   102   50   51 2    
   103   50   52 1    
   104   52   53 1    
   105   52   54 1    
   106   52  175 1    
   107   53  176 1    
   108   53  177 1    
   109   53  178 1    
   110   54   55 am   BACKBONE|DICT|INTERRES
   111   54  179 1    
   112   55   56 2    
   113   55   57 1    
   114   57   58 1    
   115   57   59 1    
   116   57  180 1    
   117   58  181 1    
   118   58  182 1    
   119   58  183 1    
   120   59   60 am   BACKBONE|DICT|INTERRES
   121   59  184 1    
   122   60   61 2    
   123   60   62 1    
   124   62   63 1    
   125   62   64 1    
   126   62  185 1    
   127   63  186 1    
   128   63  187 1    
   129   63  188 1    
   130   64   65 am   BACKBONE|DICT|INTERRES
   131   64  189 1    
   132   65   66 2    
   133   67   68 2    
   134   67   69 am   BACKBONE|DICT|INTERRES
   135   69   70 1    
   136   69  190 1    
   137   70   71 1    
   138   70   72 1    
   139   70  191 1    
   140   71  192 1    
   141   71  193 1    
   142   71  194 1    
   143   72   73 2    
   144   72   74 am   BACKBONE|DICT|INTERRES
   145   74   75 1    
   146   74  195 1    
   147   75   76 1    
   148   75   77 1    
   149   75  196 1    
   150   76  197 1    
   151   76  198 1    
   152   76  199 1    
   153   77   78 2    
   154   77   79 am   BACKBONE|DICT|INTERRES
   155   79   80 1    
   156   79  200 1    
   157   80   81 1    
   158   80   82 1    
   159   80  201 1    
   160   81  202 1    
   161   81  203 1    
   162   81  204 1    
   163   82   83 2    
   164   82   84 am   BACKBONE|DICT|INTERRES
   165   84   85 1    
   166   84  205 1    
   167   85   86 1    
   168   85   87 1    
   169   85  206 1    
   170   86  207 1    
   171   86  208 1    
   172   86  209 1    
   173   87   88 2    
   174   87   89 am   BACKBONE|DICT|INTERRES
   175   89   90 1    
   176   89  210 1    
   177   90   91 1    
   178   90   92 1    
   179   90  211 1    
   180   91  212 1    
   181   91  213 1    
   182   91  214 1    
   183   92   93 2    
   184   92   94 am   BACKBONE|DICT|INTERRES
   185   94   95 1    
   186   94  215 1    
   187   95   96 1    
   188   95   97 1    
   189   95  216 1    
   190   96  217 1    
   191   96  218 1    
   192   96  219 1    
   193   97   98 2    
   194   97   99 am   BACKBONE|DICT|INTERRES
   195   99  100 1    
   196   99  220 1    
   197  100  101 1    
   198  100  102 1    
   199  100  221 1    
   200  101  222 1    
   201  101  223 1    
   202  101  224 1    
   203  102  103 2    
   204  102  104 am   BACKBONE|DICT|INTERRES
   205  104  105 1    
   206  104  225 1    
   207  105  106 1    
   208  105  107 1    
   209  105  226 1    
   210  106  227 1    
   211  106  228 1    
   212  106  229 1    
   213  107  108 2    
   214  107  109 am   BACKBONE|DICT|INTERRES
   215  109  110 1    
   216  109  230 1    
   217  110  111 1    
   218  110  112 1    
   219  110  231 1    
   220  111  232 1    
   221  111  233 1    
   222  111  234 1    
   223  112  113 2    
   224  112  114 am   BACKBONE|DICT|INTERRES
   225  114  115 1    
   226  114  235 1    
   227  115  116 1    
   228  115  117 1    
   229  115  236 1    
   230  116  237 1    
   231  116  238 1    
   232  116  239 1    
   233  117  118 2    
   234  117  119 am   BACKBONE|DICT|INTERRES
   235  119  120 1    
   236  119  240 1    
   237  120  121 1    
   238  120  124 1    
   239  120  241 1    
   240  121  122 am   BACKBONE|DICT|INTERRES
   241  121  123 2    
   242  122  242 1    
   243  122  243 1    
   244  124  125 1    
   245  124  244 1    
   246  124  245 1    
   247  125  126 1    
   248  126  246 1    
   249  126  247 1    
@<TRIPOS>SUBSTRUCTURE
     1 UNK         1 GROUP             0       ****    0 ROOT    
