@<TRIPOS>MOLECULE
3R540
247   249    1
SMALL
USER_CHARGES


@<TRIPOS>ATOM
      1 CA         -1.9961   -9.1012  -49.0950 C.3       0 UNK        -0.1800 
      2 C          -1.7817  -10.6067  -49.0392 C.2       0 UNK         0.5000 
      3 O          -2.7543  -11.3619  -49.0455 O.2       0 UNK        -0.5000 
      4 N          -0.5151  -11.0392  -48.9702 N.am      1 UNK        -0.5000 
      5 CA         -0.0274  -12.4266  -48.9186 C.3       1 UNK         0.1400 
      6 C6         -0.4330  -13.2937  -50.1394 C.3       23 UNK        -0.0398 
      7 S7          0.3961  -12.7418  -51.6678 S.3       23 UNK        -0.2404 
      8 C8          0.5126  -14.3066  -52.6096 C.3       23 UNK        -0.0205 
      9 C9          1.4515  -15.3853  -52.0569 C.ar      23 UNK        -0.0193 
     10 C10         1.4760  -16.6244  -52.7048 C.ar      23 UNK        -0.1150 
     11 C11         2.2927  -17.6624  -52.2466 C.ar      23 UNK        -0.0193 
     12 C12         3.0957  -17.4583  -51.1227 C.ar      23 UNK        -0.1150 
     13 C13         3.0823  -16.2300  -50.4578 C.ar      23 UNK        -0.0193 
     14 C14         2.2766  -15.1940  -50.9399 C.ar      23 UNK        -0.1150 
     15 C15         3.9202  -16.0266  -49.2031 C.3       23 UNK        -0.0205 
     16 S16         3.3255  -17.0323  -47.8025 S.3       23 UNK        -0.2404 
     17 C17         1.5711  -16.5372  -47.6895 C.3       23 UNK        -0.0398 
     18 CA          0.5984  -17.6448  -48.1610 C.3       11 UNK         0.1400 
     19 N           0.8223  -18.9287  -47.4790 N.am      11 UNK        -0.5000 
     20 C           0.3726  -20.1071  -47.9310 C.2       10 UNK         0.5000 
     21 O          -0.3175  -20.2285  -48.9412 O.2       10 UNK        -0.5000 
     22 CA          0.6794  -21.3454  -47.0700 C.3       10 UNK         0.1400 
     23 CB          2.1332  -21.7994  -47.2680 C.3       10 UNK        -0.1800 
     24 N           0.4161  -21.1650  -45.6380 N.am      10 UNK        -0.5000 
     25 C          -0.7569  -20.8002  -45.0989 C.2       9 UNK         0.5000 
     26 O          -1.7185  -20.4295  -45.7718 O.2       9 UNK        -0.5000 
     27 CA         -0.8768  -20.8336  -43.5600 C.3       9 UNK         0.1400 
     28 CB         -2.3010  -21.1829  -43.0797 C.3       9 UNK        -0.1800 
     29 N           0.1249  -21.6749  -42.8950 N.am      9 UNK        -0.5000 
     30 C           0.2666  -23.0089  -42.9716 C.2       8 UNK         0.5000 
     31 O          -0.4465  -23.7327  -43.6666 O.2       8 UNK        -0.5000 
     32 CA          1.4134  -23.6490  -42.1574 C.3       8 UNK         0.1400 
     33 CB          2.5514  -24.0831  -43.0952 C.3       8 UNK        -0.1800 
     34 N           1.9704  -22.7669  -41.1287 N.am      8 UNK        -0.5000 
     35 C           1.3568  -22.4223  -39.9875 C.2       7 UNK         0.5000 
     36 O           0.2838  -22.9017  -39.6199 O.2       7 UNK        -0.5000 
     37 CA          2.0381  -21.3350  -39.1257 C.3       7 UNK         0.1400 
     38 CB          2.7992  -21.9785  -37.9564 C.3       7 UNK        -0.1800 
     39 N           2.9544  -20.4487  -39.8590 N.am      7 UNK        -0.5000 
     40 C           2.6201  -19.6766  -40.9025 C.2       6 UNK         0.5000 
     41 O           1.4845  -19.6501  -41.3835 O.2       6 UNK        -0.5000 
     42 CA          3.7542  -18.8516  -41.5460 C.3       6 UNK         0.1400 
     43 CB          4.8815  -19.7671  -42.0568 C.3       6 UNK        -0.1800 
     44 N           3.2553  -18.0727  -42.6786 N.am      6 UNK        -0.5000 
     45 C           2.5854  -16.9186  -42.5870 C.2       5 UNK         0.5000 
     46 O           2.4321  -16.2852  -41.5395 O.2       5 UNK        -0.5000 
     47 CA          1.9370  -16.4280  -43.8940 C.3       5 UNK         0.1400 
     48 CB          0.4772  -16.9033  -43.9789 C.3       5 UNK        -0.1800 
     49 N           1.9760  -14.9753  -44.0418 N.am      5 UNK        -0.5000 
     50 C           3.0942  -14.2576  -44.2216 C.2       4 UNK         0.5000 
     51 O           4.2199  -14.7573  -44.2562 O.2       4 UNK        -0.5000 
     52 CA          2.9459  -12.7367  -44.4258 C.3       4 UNK         0.1400 
     53 CB          3.5728  -12.3042  -45.7632 C.3       4 UNK        -0.1800 
     54 N           1.5478  -12.3029  -44.4102 N.am      4 UNK        -0.5000 
     55 C           0.9232  -11.7460  -43.3633 C.2       3 UNK         0.5000 
     56 O           1.4667  -11.5384  -42.2781 O.2       3 UNK        -0.5000 
     57 CA         -0.5549  -11.3422  -43.5510 C.3       3 UNK         0.1400 
     58 CB         -0.6712   -9.8254  -43.7684 C.3       3 UNK        -0.1800 
     59 N          -1.2149  -12.0248  -44.6651 N.am      3 UNK        -0.5000 
     60 C          -1.5431  -13.3233  -44.6838 C.2       2 UNK         0.5000 
     61 O          -1.3586  -14.0873  -43.7375 O.2       2 UNK        -0.5000 
     62 CA         -2.1256  -13.8692  -46.0016 C.3       2 UNK         0.1400 
     63 CB         -3.6597  -13.8108  -45.9828 C.3       2 UNK        -0.1800 
     64 N          -1.6317  -13.1844  -47.1999 N.am      2 UNK        -0.5000 
     65 C          -0.3513  -13.1330  -47.5867 C.2       1 UNK         0.5000 
     66 O           0.5707  -13.5925  -46.9138 O.2       1 UNK        -0.5000 
     67 C          -0.8695  -17.1674  -48.0620 C.2       11 UNK         0.5000 
     68 O          -1.2819  -16.3209  -48.8513 O.2       11 UNK        -0.5000 
     69 N          -1.6451  -17.7408  -47.1299 N.am      12 UNK        -0.5000 
     70 CA         -3.0956  -17.5723  -47.0125 C.3       12 UNK         0.1400 
     71 CB         -3.4722  -17.5266  -45.5202 C.3       12 UNK        -0.1800 
     72 C          -3.8585  -18.6884  -47.7632 C.2       12 UNK         0.5000 
     73 O          -5.0422  -18.9021  -47.4971 O.2       12 UNK        -0.5000 
     74 N          -3.1630  -19.3978  -48.6665 N.am      13 UNK        -0.5000 
     75 CA         -3.6237  -20.5099  -49.5006 C.3       13 UNK         0.1400 
     76 CB         -4.7634  -20.0710  -50.4428 C.3       13 UNK        -0.1800 
     77 C          -3.9687  -21.7847  -48.7097 C.2       13 UNK         0.5000 
     78 O          -4.6663  -22.6452  -49.2452 O.2       13 UNK        -0.5000 
     79 N          -3.4789  -21.9028  -47.4661 N.am      14 UNK        -0.5000 
     80 CA         -3.6625  -23.0307  -46.5458 C.3       14 UNK         0.1400 
     81 CB         -2.8464  -24.2472  -47.0271 C.3       14 UNK        -0.1800 
     82 C          -5.1482  -23.3591  -46.2902 C.2       14 UNK         0.5000 
     83 O          -5.5384  -24.5257  -46.3251 O.2       14 UNK        -0.5000 
     84 N          -5.9625  -22.3090  -46.0988 N.am      15 UNK        -0.5000 
     85 CA         -7.4282  -22.3516  -45.9889 C.3       15 UNK         0.1400 
     86 CB         -7.8683  -23.0746  -44.6984 C.3       15 UNK        -0.1800 
     87 C          -8.0949  -22.9163  -47.2648 C.2       15 UNK         0.5000 
     88 O          -9.0476  -23.6927  -47.1851 O.2       15 UNK        -0.5000 
     89 N          -7.5447  -22.5111  -48.4176 N.am      16 UNK        -0.5000 
     90 CA         -7.8878  -22.8874  -49.7922 C.3       16 UNK         0.1400 
     91 CB         -9.3747  -22.6273  -50.1092 C.3       16 UNK        -0.1800 
     92 C          -7.4311  -24.3012  -50.2107 C.2       16 UNK         0.5000 
     93 O          -7.7277  -24.7117  -51.3335 O.2       16 UNK        -0.5000 
     94 N          -6.6779  -25.0110  -49.3571 N.am      17 UNK        -0.5000 
     95 CA         -6.0799  -26.3099  -49.6836 C.3       17 UNK         0.1400 
     96 CB         -5.6570  -27.0245  -48.3922 C.3       17 UNK        -0.1800 
     97 C          -4.8852  -26.1989  -50.6533 C.2       17 UNK         0.5000 
     98 O          -4.5922  -27.1657  -51.3574 O.2       17 UNK        -0.5000 
     99 N          -4.2310  -25.0304  -50.6858 N.am      18 UNK        -0.5000 
    100 CA        -3.1052  -24.7002  -51.5595 C.3       18 UNK         0.1400 
    101 CB        -1.8742  -24.3596  -50.6993 C.3       18 UNK        -0.1800 
    102 C         -3.4736  -23.5548  -52.5215 C.2       18 UNK         0.5000 
    103 O         -2.5877  -22.8276  -52.9746 O.2       18 UNK        -0.5000 
    104 N         -4.7688  -23.4160  -52.8463 N.am      19 UNK        -0.5000 
    105 CA        -5.3066  -22.4010  -53.7607 C.3       19 UNK         0.1400 
    106 CB        -6.8389  -22.4945  -53.7865 C.3       19 UNK        -0.1800 
    107 C         -4.7369  -22.4786  -55.1902 C.2       19 UNK         0.5000 
    108 O         -4.6113  -21.4467  -55.8491 O.2       19 UNK        -0.5000 
    109 N         -4.3545  -23.6860  -55.6255 N.am      20 UNK        -0.5000 
    110 CA        -3.6820  -23.9327  -56.9018 C.3       20 UNK         0.1400 
    111 CB        -3.6803  -25.4447  -57.1753 C.3       20 UNK        -0.1800 
    112 C         -2.2443  -23.3740  -56.9607 C.2       20 UNK         0.5000 
    113 O         -1.7433  -23.1318  -58.0596 O.2       20 UNK        -0.5000 
    114 N         -1.6071  -23.1913  -55.7957 N.am      21 UNK        -0.5000 
    115 CA        -0.2440  -22.6828  -55.6651 C.3       21 UNK         0.1400 
    116 CB         0.5079  -23.5147  -54.6124 C.3       21 UNK        -0.1800 
    117 C         -0.2321  -21.1947  -55.2836 C.2       21 UNK         0.5000 
    118 O          0.4941  -20.4207  -55.9089 O.2       21 UNK        -0.5000 
    119 N         -1.0157  -20.8284  -54.2614 N.am      22 UNK        -0.5000 
    120 CA        -0.9848  -19.5068  -53.6108 C.3       22 UNK         0.1400 
    121 C         -2.3573  -18.7762  -53.5959 C.2       22 UNK         0.5000 
    122 N         -3.3799  -19.2463  -54.2966 N.am      22 UNK        -0.7600 
    123 O         -2.4971  -17.7384  -52.9559 O.2       22 UNK        -0.5000 
    124 C124       -0.3650  -19.5828  -52.1878 C.3       23 UNK        -0.0398 
    125 S125        1.3257  -20.2758  -52.1240 S.3       23 UNK        -0.2404 
    126 C126        2.3156  -19.0005  -52.9702 C.3       23 UNK        -0.0205 
    127 H127       -1.0526   -8.5552  -49.0771 H         1 UNK         0.0600 
    128 H128       -2.5937   -8.7758  -48.2434 H         1 UNK         0.0600 
    129 H129       -2.5271   -8.8324  -50.0081 H         1 UNK         0.0600 
    130 H130        0.2190  -10.3449  -48.9555 H         1 UNK         0.3000 
    131 H131        1.0608  -12.3420  -48.9362 H         1 UNK         0.0600 
    132 H132       -1.5121  -13.2936  -50.2957 H         1 UNK         0.0800 
    133 H133       -0.1613  -14.3341  -49.9681 H         1 UNK         0.0800 
    134 H134        0.8354  -14.0623  -53.6225 H         1 UNK         0.0800 
    135 H135       -0.4911  -14.7255  -52.7009 H         1 UNK         0.0800 
    136 H136        0.8499  -16.7820  -53.5717 H         1 UNK         0.1150 
    137 H137        3.7177  -18.2618  -50.7534 H         1 UNK         0.1150 
    138 H138        2.2873  -14.2468  -50.4224 H         1 UNK         0.1150 
    139 H139        4.9566  -16.2919  -49.4158 H         1 UNK         0.0800 
    140 H140        3.9275  -14.9767  -48.9054 H         1 UNK         0.0800 
    141 H141        1.4222  -15.6340  -48.2803 H         1 UNK         0.0800 
    142 H142        1.3619  -16.2458  -46.6636 H         1 UNK         0.0800 
    143 H143        0.7905  -17.8081  -49.2242 H         1 UNK         0.0600 
    144 H144        1.3923  -18.9098  -46.6473 H         1 UNK         0.3000 
    145 H145        0.0255  -22.1481  -47.4175 H         1 UNK         0.0600 
    146 H146        2.3249  -22.7426  -46.7558 H         1 UNK         0.0600 
    147 H147        2.3527  -21.9548  -48.3254 H         1 UNK         0.0600 
    148 H148        2.8424  -21.0617  -46.8907 H         1 UNK         0.0600 
    149 H149        1.1512  -21.4471  -45.0077 H         1 UNK         0.3000 
    150 H150       -0.6752  -19.8166  -43.2258 H         1 UNK         0.0600 
    151 H151       -3.0382  -20.4895  -43.4857 H         1 UNK         0.0600 
    152 H152       -2.3706  -21.1248  -41.9934 H         1 UNK         0.0600 
    153 H153       -2.5989  -22.1876  -43.3774 H         1 UNK         0.0600 
    154 H154        0.7538  -21.1601  -42.2843 H         1 UNK         0.3000 
    155 H155        1.0110  -24.5389  -41.6690 H         1 UNK         0.0600 
    156 H156        3.0019  -23.2304  -43.6049 H         1 UNK         0.0600 
    157 H157        2.1878  -24.7688  -43.8619 H         1 UNK         0.0600 
    158 H158        3.3384  -24.6012  -42.5469 H         1 UNK         0.0600 
    159 H159        2.8586  -22.3358  -41.3364 H         1 UNK         0.3000 
    160 H160        1.2429  -20.7112  -38.7126 H         1 UNK         0.0600 
    161 H161        3.6310  -22.5908  -38.3070 H         1 UNK         0.0600 
    162 H162        2.1431  -22.6219  -37.3684 H         1 UNK         0.0600 
    163 H163        3.1989  -21.2222  -37.2806 H         1 UNK         0.0600 
    164 H164        3.9077  -20.4274  -39.5263 H         1 UNK         0.3000 
    165 H165        4.1591  -18.1750  -40.7906 H         1 UNK         0.0600 
    166 H166        5.6645  -19.1883  -42.5474 H         1 UNK         0.0600 
    167 H167        5.3558  -20.3125  -41.2404 H         1 UNK         0.0600 
    168 H168        4.5122  -20.5022  -42.7733 H         1 UNK         0.0600 
    169 H169        3.3129  -18.5267  -43.5775 H         1 UNK         0.3000 
    170 H170        2.4902  -16.8561  -44.7319 H         1 UNK         0.0600 
    171 H171       -0.0953  -16.5982  -43.1018 H         1 UNK         0.0600 
    172 H172       -0.0329  -16.5067  -44.8560 H         1 UNK         0.0600 
    173 H173        0.4328  -17.9893  -44.0399 H         1 UNK         0.0600 
    174 H174        1.0930  -14.4883  -43.9831 H         1 UNK         0.3000 
    175 H175        3.5001  -12.2481  -43.6221 H         1 UNK         0.0600 
    176 H176        3.1127  -12.8149  -46.6097 H         1 UNK         0.0600 
    177 H177        3.4667  -11.2308  -45.9204 H         1 UNK         0.0600 
    178 H178        4.6395  -12.5301  -45.7873 H         1 UNK         0.0600 
    179 H179        1.0229  -12.4972  -45.2560 H         1 UNK         0.3000 
    180 H180       -1.0840  -11.5984  -42.6307 H         1 UNK         0.0600 
    181 H181       -1.7141   -9.5141  -43.8307 H         1 UNK         0.0600 
    182 H182       -0.1703   -9.5108  -44.6849 H         1 UNK         0.0600 
    183 H183       -0.2188   -9.2757  -42.9418 H         1 UNK         0.0600 
    184 H184       -1.3963  -11.4752  -45.4920 H         1 UNK         0.3000 
    185 H185       -1.8211  -14.9138  -46.0789 H         1 UNK         0.0600 
    186 H186       -4.0833  -14.2721  -46.8748 H         1 UNK         0.0600 
    187 H187       -4.0614  -14.3433  -45.1197 H         1 UNK         0.0600 
    188 H188       -4.0213  -12.7829  -45.9339 H         1 UNK         0.0600 
    189 H189       -2.3179  -12.7261  -47.7939 H         1 UNK         0.3000 
    190 H190       -1.2552  -18.4867  -46.5671 H         1 UNK         0.3000 
    191 H191       -3.3940  -16.6238  -47.4623 H         1 UNK         0.0600 
    192 H192       -4.5217  -17.2599  -45.3916 H         1 UNK         0.0600 
    193 H193       -2.8828  -16.7860  -44.9803 H         1 UNK         0.0600 
    194 H194       -3.3198  -18.4894  -45.0335 H         1 UNK         0.0600 
    195 H195       -2.1744  -19.1982  -48.7578 H         1 UNK         0.3000 
    196 H196       -2.7763  -20.7854  -50.1281 H         1 UNK         0.0600 
    197 H197       -5.6705  -19.8123  -49.8969 H         1 UNK         0.0600 
    198 H198       -4.4698  -19.2075  -51.0398 H         1 UNK         0.0600 
    199 H199       -5.0241  -20.8688  -51.1367 H         1 UNK         0.0600 
    200 H200       -2.9111  -21.1456  -47.0956 H         1 UNK         0.3000 
    201 H201       -3.2517  -22.7204  -45.5859 H         1 UNK         0.0600 
    202 H202       -3.2202  -24.6365  -47.9736 H         1 UNK         0.0600 
    203 H203       -2.8866  -25.0584  -46.2994 H         1 UNK         0.0600 
    204 H204       -1.7967  -23.9870  -47.1627 H         1 UNK         0.0600 
    205 H205       -5.5510  -21.3853  -46.1168 H         1 UNK         0.3000 
    206 H206       -7.7581  -21.3147  -45.9103 H         1 UNK         0.0600 
    207 H207       -7.3822  -22.6467  -43.8217 H         1 UNK         0.0600 
    208 H208       -8.9446  -22.9831  -44.5489 H         1 UNK         0.0600 
    209 H209       -7.6336  -24.1390  -44.7263 H         1 UNK         0.0600 
    210 H210       -6.7180  -21.9339  -48.3461 H         1 UNK         0.3000 
    211 H211       -7.3070  -22.2061  -50.4147 H         1 UNK         0.0600 
    212 H212       -9.5676  -22.7252  -51.1781 H         1 UNK         0.0600 
    213 H213       -9.6706  -21.6192  -49.8192 H         1 UNK         0.0600 
    214 H214      -10.0299  -23.3325  -49.5978 H         1 UNK         0.0600 
    215 H215       -6.4428  -24.6121  -48.4570 H         1 UNK         0.3000 
    216 H216       -6.8426  -26.9229  -50.1685 H         1 UNK         0.0600 
    217 H217       -4.8278  -26.5147  -47.9022 H         1 UNK         0.0600 
    218 H218       -5.3315  -28.0441  -48.6019 H         1 UNK         0.0600 
    219 H219       -6.4822  -27.0850  -47.6823 H         1 UNK         0.0600 
    220 H220       -4.5486  -24.2713  -50.0846 H         1 UNK         0.3000 
    221 H221       -2.8468  -25.5550  -52.1868 H         1 UNK         0.0600 
    222 H222       -1.6367  -25.1725  -50.0133 H         1 UNK         0.0600 
    223 H223       -2.0281  -23.4575  -50.1083 H         1 UNK         0.0600 
    224 H224       -0.9934  -24.1950  -51.3209 H         1 UNK         0.0600 
    225 H225       -5.4356  -24.0556  -52.4373 H         1 UNK         0.3000 
    226 H226       -5.0336  -21.4214  -53.3665 H         1 UNK         0.0600 
    227 H227       -7.1770  -23.4848  -54.0940 H         1 UNK         0.0600 
    228 H228       -7.2635  -22.2842  -52.8062 H         1 UNK         0.0600 
    229 H229       -7.2651  -21.7701  -54.4819 H         1 UNK         0.0600 
    230 H230       -4.4975  -24.4829  -55.0229 H         1 UNK         0.3000 
    231 H231       -4.2572  -23.4430  -57.6905 H         1 UNK         0.0600 
    232 H232       -3.1309  -25.9918  -56.4080 H         1 UNK         0.0600 
    233 H233       -3.2131  -25.6678  -58.1354 H         1 UNK         0.0600 
    234 H234       -4.6953  -25.8411  -57.2101 H         1 UNK         0.0600 
    235 H235       -2.1070  -23.3573  -54.9314 H         1 UNK         0.3000 
    236 H236        0.2917  -22.7889  -56.6109 H         1 UNK         0.0600 
    237 H237        0.5600  -24.5636  -54.9043 H         1 UNK         0.0600 
    238 H238        1.5318  -23.1581  -54.4934 H         1 UNK         0.0600 
    239 H239        0.0293  -23.4633  -53.6339 H         1 UNK         0.0600 
    240 H240       -1.5858  -21.5320  -53.7973 H         1 UNK         0.3000 
    241 H241       -0.3579  -18.8366  -54.1986 H         1 UNK         0.0600 
    242 H242       -4.2478  -18.7357  -54.2857 H         1 UNK         0.3800 
    243 H243       -3.3011  -20.0698  -54.8774 H         1 UNK         0.3800 
    244 H244       -0.9928  -20.2093  -51.5545 H         1 UNK         0.0800 
    245 H245       -0.3475  -18.6028  -51.7086 H         1 UNK         0.0800 
    246 H246        3.3458  -19.3523  -53.0390 H         1 UNK         0.0800 
    247 H247        1.9721  -18.8900  -53.9993 H         1 UNK         0.0800 
@<TRIPOS>BOND
     1    1    2 1    
     2    1  127 1    
     3    1  128 1    
     4    1  129 1    
     5    2    3 2    
     6    2    4 am   BACKBONE|DICT|INTERRES
     7    4    5 1    
     8    4  130 1    
     9    5    6 1    
    10    5   65 1    
    11    5  131 1    
    12    6    7 1    
    13    6  132 1    
    14    6  133 1    
    15    7    8 1    
    16    8    9 1    
    17    8  134 1    
    18    8  135 1    
    19    9   10 ar   
    20    9   14 ar   
    21   10   11 ar   
    22   10  136 1    
    23   11   12 ar   
    24   11  126 1    
    25   12   13 ar   
    26   12  137 1    
    27   13   14 ar   
    28   13   15 1    
    29   14  138 1    
    30   15   16 1    
    31   15  139 1    
    32   15  140 1    
    33   16   17 1    
    34   17   18 1    
    35   17  141 1    
    36   17  142 1    
    37   18   19 1    
    38   18   67 1    
    39   18  143 1    
    40   19   20 am   BACKBONE|DICT|INTERRES
    41   19  144 1    
    42   20   21 2    
    43   20   22 1    
    44   22   23 1    
    45   22   24 1    
    46   22  145 1    
    47   23  146 1    
    48   23  147 1    
    49   23  148 1    
    50   24   25 am   BACKBONE|DICT|INTERRES
    51   24  149 1    
    52   25   26 2    
    53   25   27 1    
    54   27   28 1    
    55   27   29 1    
    56   27  150 1    
    57   28  151 1    
    58   28  152 1    
    59   28  153 1    
    60   29   30 am   BACKBONE|DICT|INTERRES
    61   29  154 1    
    62   30   31 2    
    63   30   32 1    
    64   32   33 1    
    65   32   34 1    
    66   32  155 1    
    67   33  156 1    
    68   33  157 1    
    69   33  158 1    
    70   34   35 am   BACKBONE|DICT|INTERRES
    71   34  159 1    
    72   35   36 2    
    73   35   37 1    
    74   37   38 1    
    75   37   39 1    
    76   37  160 1    
    77   38  161 1    
    78   38  162 1    
    79   38  163 1    
    80   39   40 am   BACKBONE|DICT|INTERRES
    81   39  164 1    
    82   40   41 2    
    83   40   42 1    
    84   42   43 1    
    85   42   44 1    
    86   42  165 1    
    87   43  166 1    
    88   43  167 1    
    89   43  168 1    
    90   44   45 am   BACKBONE|DICT|INTERRES
    91   44  169 1    
    92   45   46 2    
    93   45   47 1    
    94   47   48 1    
    95   47   49 1    
    96   47  170 1    
    97   48  171 1    
    98   48  172 1    
    99   48  173 1    
   100   49   50 am   BACKBONE|DICT|INTERRES
   101   49  174 1    
   102   50   51 2    
   103   50   52 1    
   104   52   53 1    
   105   52   54 1    
   106   52  175 1    
   107   53  176 1    
   108   53  177 1    
   109   53  178 1    
   110   54   55 am   BACKBONE|DICT|INTERRES
   111   54  179 1    
   112   55   56 2    
   113   55   57 1    
   114   57   58 1    
   115   57   59 1    
   116   57  180 1    
   117   58  181 1    
   118   58  182 1    
   119   58  183 1    
   120   59   60 am   BACKBONE|DICT|INTERRES
   121   59  184 1    
   122   60   61 2    
   123   60   62 1    
   124   62   63 1    
   125   62   64 1    
   126   62  185 1    
   127   63  186 1    
   128   63  187 1    
   129   63  188 1    
   130   64   65 am   BACKBONE|DICT|INTERRES
   131   64  189 1    
   132   65   66 2    
   133   67   68 2    
   134   67   69 am   BACKBONE|DICT|INTERRES
   135   69   70 1    
   136   69  190 1    
   137   70   71 1    
   138   70   72 1    
   139   70  191 1    
   140   71  192 1    
   141   71  193 1    
   142   71  194 1    
   143   72   73 2    
   144   72   74 am   BACKBONE|DICT|INTERRES
   145   74   75 1    
   146   74  195 1    
   147   75   76 1    
   148   75   77 1    
   149   75  196 1    
   150   76  197 1    
   151   76  198 1    
   152   76  199 1    
   153   77   78 2    
   154   77   79 am   BACKBONE|DICT|INTERRES
   155   79   80 1    
   156   79  200 1    
   157   80   81 1    
   158   80   82 1    
   159   80  201 1    
   160   81  202 1    
   161   81  203 1    
   162   81  204 1    
   163   82   83 2    
   164   82   84 am   BACKBONE|DICT|INTERRES
   165   84   85 1    
   166   84  205 1    
   167   85   86 1    
   168   85   87 1    
   169   85  206 1    
   170   86  207 1    
   171   86  208 1    
   172   86  209 1    
   173   87   88 2    
   174   87   89 am   BACKBONE|DICT|INTERRES
   175   89   90 1    
   176   89  210 1    
   177   90   91 1    
   178   90   92 1    
   179   90  211 1    
   180   91  212 1    
   181   91  213 1    
   182   91  214 1    
   183   92   93 2    
   184   92   94 am   BACKBONE|DICT|INTERRES
   185   94   95 1    
   186   94  215 1    
   187   95   96 1    
   188   95   97 1    
   189   95  216 1    
   190   96  217 1    
   191   96  218 1    
   192   96  219 1    
   193   97   98 2    
   194   97   99 am   BACKBONE|DICT|INTERRES
   195   99  100 1    
   196   99  220 1    
   197  100  101 1    
   198  100  102 1    
   199  100  221 1    
   200  101  222 1    
   201  101  223 1    
   202  101  224 1    
   203  102  103 2    
   204  102  104 am   BACKBONE|DICT|INTERRES
   205  104  105 1    
   206  104  225 1    
   207  105  106 1    
   208  105  107 1    
   209  105  226 1    
   210  106  227 1    
   211  106  228 1    
   212  106  229 1    
   213  107  108 2    
   214  107  109 am   BACKBONE|DICT|INTERRES
   215  109  110 1    
   216  109  230 1    
   217  110  111 1    
   218  110  112 1    
   219  110  231 1    
   220  111  232 1    
   221  111  233 1    
   222  111  234 1    
   223  112  113 2    
   224  112  114 am   BACKBONE|DICT|INTERRES
   225  114  115 1    
   226  114  235 1    
   227  115  116 1    
   228  115  117 1    
   229  115  236 1    
   230  116  237 1    
   231  116  238 1    
   232  116  239 1    
   233  117  118 2    
   234  117  119 am   BACKBONE|DICT|INTERRES
   235  119  120 1    
   236  119  240 1    
   237  120  121 1    
   238  120  124 1    
   239  120  241 1    
   240  121  122 am   BACKBONE|DICT|INTERRES
   241  121  123 2    
   242  122  242 1    
   243  122  243 1    
   244  124  125 1    
   245  124  244 1    
   246  124  245 1    
   247  125  126 1    
   248  126  246 1    
   249  126  247 1    
@<TRIPOS>SUBSTRUCTURE
     1 UNK         1 GROUP             0       ****    0 ROOT    
