@<TRIPOS>MOLECULE
3R540
247   249    1
SMALL
USER_CHARGES


@<TRIPOS>ATOM
      1 CA         -3.3724  -12.3924  -50.7372 C.3       0 UNK        -0.1800 
      2 C          -2.0193  -11.7073  -50.8709 C.2       0 UNK         0.5000 
      3 O          -1.9521  -10.5577  -51.3073 O.2       0 UNK        -0.5000 
      4 N          -0.9437  -12.4128  -50.5059 N.am      1 UNK        -0.5000 
      5 CA          0.4320  -11.9095  -50.4824 C.3       1 UNK         0.1400 
      6 C6          1.4680  -13.0642  -50.5292 C.3       23 UNK        -0.0398 
      7 S7          1.2106  -14.3640  -49.2685 S.3       23 UNK        -0.2404 
      8 C8          0.5366  -15.6982  -50.3045 C.3       23 UNK        -0.0205 
      9 C9          0.0134  -16.8566  -49.4710 C.ar      23 UNK        -0.0193 
     10 C10        -1.3392  -16.9167  -49.1220 C.ar      23 UNK        -0.1150 
     11 C11        -1.8433  -18.0152  -48.4194 C.ar      23 UNK        -0.0193 
     12 C12        -0.9806  -19.0549  -48.0622 C.ar      23 UNK        -0.1150 
     13 C13         0.3730  -19.0070  -48.4061 C.ar      23 UNK        -0.0193 
     14 C14         0.8675  -17.8987  -49.0995 C.ar      23 UNK        -0.1150 
     15 C15         1.2754  -20.1935  -48.1102 C.3       23 UNK        -0.0205 
     16 S16         1.3702  -20.5775  -46.3334 S.3       23 UNK        -0.2404 
     17 C17         2.0586  -22.2669  -46.4136 C.3       23 UNK        -0.0398 
     18 CA          1.0497  -23.4299  -46.2163 C.3       11 UNK         0.1400 
     19 N           0.7249  -23.6909  -44.8103 N.am      11 UNK        -0.5000 
     20 C           0.2778  -24.8821  -44.3826 C.2       10 UNK         0.5000 
     21 O           0.0906  -25.8432  -45.1296 O.2       10 UNK        -0.5000 
     22 CA         -0.0424  -25.0320  -42.8851 C.3       10 UNK         0.1400 
     23 CB          1.2230  -25.4081  -42.1001 C.3       10 UNK        -0.1800 
     24 N          -0.6532  -23.8501  -42.2780 N.am      10 UNK        -0.5000 
     25 C          -1.8105  -23.2917  -42.6560 C.2       9 UNK         0.5000 
     26 O          -2.4687  -23.6787  -43.6236 O.2       9 UNK        -0.5000 
     27 CA         -2.3303  -22.1023  -41.8190 C.3       9 UNK         0.1400 
     28 CB         -1.4900  -21.7947  -40.5582 C.3       9 UNK        -0.1800 
     29 N          -2.4978  -20.8882  -42.6227 N.am      9 UNK        -0.5000 
     30 C          -1.5570  -20.2644  -43.3462 C.2       8 UNK         0.5000 
     31 O          -0.4032  -20.6818  -43.4656 O.2       8 UNK        -0.5000 
     32 CA         -2.0149  -18.9901  -44.0886 C.3       8 UNK         0.1400 
     33 CB         -2.8558  -18.0433  -43.2033 C.3       8 UNK        -0.1800 
     34 N          -0.9186  -18.2681  -44.7411 N.am      8 UNK        -0.5000 
     35 C           0.0777  -17.5861  -44.1597 C.2       7 UNK         0.5000 
     36 O           0.2043  -17.4372  -42.9411 O.2       7 UNK        -0.5000 
     37 CA          1.0477  -16.8976  -45.1418 C.3       7 UNK         0.1400 
     38 CB          0.3513  -15.7066  -45.8187 C.3       7 UNK        -0.1800 
     39 N           2.2708  -16.4053  -44.5130 N.am      7 UNK        -0.5000 
     40 C           3.2371  -17.1550  -43.9681 C.2       6 UNK         0.5000 
     41 O           3.2326  -18.3859  -43.9523 O.2       6 UNK        -0.5000 
     42 CA          4.4233  -16.3976  -43.3465 C.3       6 UNK         0.1400 
     43 CB          5.5128  -16.1512  -44.4023 C.3       6 UNK        -0.1800 
     44 N           4.0095  -15.1125  -42.7803 N.am      6 UNK        -0.5000 
     45 C           3.6733  -14.9196  -41.4974 C.2       5 UNK         0.5000 
     46 O           3.7129  -15.8036  -40.6406 O.2       5 UNK        -0.5000 
     47 CA          3.2340  -13.4988  -41.0884 C.3       5 UNK         0.1400 
     48 CB          4.4275  -12.7110  -40.5265 C.3       5 UNK        -0.1800 
     49 N           2.6418  -12.7383  -42.1893 N.am      5 UNK        -0.5000 
     50 C           1.4136  -12.9454  -42.6829 C.2       4 UNK         0.5000 
     51 O           0.6182  -13.7597  -42.2154 O.2       4 UNK        -0.5000 
     52 CA          1.0061  -12.1139  -43.9160 C.3       4 UNK         0.1400 
     53 CB          0.1970  -10.8801  -43.4890 C.3       4 UNK        -0.1800 
     54 N           2.1209  -11.6768  -44.7618 N.am      4 UNK        -0.5000 
     55 C           3.0093  -12.4685  -45.3751 C.2       3 UNK         0.5000 
     56 O           3.0581  -13.6869  -45.2012 O.2       3 UNK        -0.5000 
     57 CA          4.0042  -11.7763  -46.3323 C.3       3 UNK         0.1400 
     58 CB          4.9326  -12.7795  -47.0402 C.3       3 UNK        -0.1800 
     59 N           3.3249  -10.9731  -47.3513 N.am      3 UNK        -0.5000 
     60 C           2.7676   -9.7678  -47.1688 C.2       2 UNK         0.5000 
     61 O           2.7764   -9.1749  -46.0889 O.2       2 UNK        -0.5000 
     62 CA          2.0697   -9.1218  -48.3825 C.3       2 UNK         0.1400 
     63 CB          2.9802   -8.0617  -49.0210 C.3       2 UNK        -0.1800 
     64 N           1.6675  -10.0853  -49.4122 N.am      2 UNK        -0.5000 
     65 C           0.6683  -10.9688  -49.2799 C.2       1 UNK         0.5000 
     66 O          -0.0263  -11.0644  -48.2644 O.2       1 UNK        -0.5000 
     67 C          -0.2238  -23.3224  -47.0832 C.2       11 UNK         0.5000 
     68 O          -0.2163  -23.7906  -48.2209 O.2       11 UNK        -0.5000 
     69 N          -1.3073  -22.7653  -46.5179 N.am      12 UNK        -0.5000 
     70 CA         -2.6247  -22.7171  -47.1539 C.3       12 UNK         0.1400 
     71 CB         -3.5635  -21.7741  -46.3906 C.3       12 UNK        -0.1800 
     72 C          -3.2491  -24.1130  -47.2749 C.2       12 UNK         0.5000 
     73 O          -3.8205  -24.4240  -48.3179 O.2       12 UNK        -0.5000 
     74 N          -3.0936  -24.9386  -46.2302 N.am      13 UNK        -0.5000 
     75 CA         -3.5181  -26.3382  -46.2121 C.3       13 UNK         0.1400 
     76 CB         -3.3370  -26.9178  -44.8014 C.3       13 UNK        -0.1800 
     77 C          -2.7805  -27.1881  -47.2637 C.2       13 UNK         0.5000 
     78 O          -3.4267  -27.9478  -47.9853 O.2       13 UNK        -0.5000 
     79 N          -1.4560  -27.0044  -47.3717 N.am      14 UNK        -0.5000 
     80 CA         -0.6044  -27.6446  -48.3785 C.3       14 UNK         0.1400 
     81 CB          0.8698  -27.3531  -48.0603 C.3       14 UNK        -0.1800 
     82 C          -0.9448  -27.2154  -49.8196 C.2       14 UNK         0.5000 
     83 O          -0.9344  -28.0516  -50.7233 O.2       14 UNK        -0.5000 
     84 N          -1.2709  -25.9291  -50.0003 N.am      15 UNK        -0.5000 
     85 CA         -1.7133  -25.3374  -51.2650 C.3       15 UNK         0.1400 
     86 CB         -1.5153  -23.8161  -51.1771 C.3       15 UNK        -0.1800 
     87 C          -3.1792  -25.6569  -51.6267 C.2       15 UNK         0.5000 
     88 O          -3.6136  -25.3078  -52.7266 O.2       15 UNK        -0.5000 
     89 N          -3.9273  -26.2544  -50.6850 N.am      16 UNK        -0.5000 
     90 CA         -5.3716  -26.5131  -50.7197 C.3       16 UNK         0.1400 
     91 CB         -5.6960  -27.6186  -51.7449 C.3       16 UNK        -0.1800 
     92 C          -6.1944  -25.2247  -50.9429 C.2       16 UNK         0.5000 
     93 O          -7.2040  -25.2485  -51.6497 O.2       16 UNK        -0.5000 
     94 N          -5.7008  -24.1104  -50.3804 N.am      17 UNK        -0.5000 
     95 CA         -6.1038  -22.7081  -50.5426 C.3       17 UNK         0.1400 
     96 CB         -7.5347  -22.4756  -50.0236 C.3       17 UNK        -0.1800 
     97 C          -5.9367  -22.1499  -51.9717 C.2       17 UNK         0.5000 
     98 O          -5.4478  -21.0313  -52.1314 O.2       17 UNK        -0.5000 
     99 N          -6.3527  -22.9264  -52.9775 N.am      18 UNK        -0.5000 
    100 CA        -6.4417  -22.5575  -54.3865 C.3       18 UNK         0.1400 
    101 CB        -7.1261  -23.6953  -55.1588 C.3       18 UNK        -0.1800 
    102 C         -5.0977  -22.1966  -55.0383 C.2       18 UNK         0.5000 
    103 O         -5.0397  -21.2056  -55.7665 O.2       18 UNK        -0.5000 
    104 N         -4.0416  -22.9806  -54.7710 N.am      19 UNK        -0.5000 
    105 CA        -2.7281  -22.7906  -55.4006 C.3       19 UNK         0.1400 
    106 CB        -1.8808  -24.0621  -55.2421 C.3       19 UNK        -0.1800 
    107 C         -1.9718  -21.5532  -54.8787 C.2       19 UNK         0.5000 
    108 O         -1.1353  -21.0076  -55.5992 O.2       19 UNK        -0.5000 
    109 N         -2.2924  -21.1256  -53.6514 N.am      20 UNK        -0.5000 
    110 CA        -1.7626  -19.9168  -53.0181 C.3       20 UNK         0.1400 
    111 CB        -1.5004  -20.2210  -51.5363 C.3       20 UNK        -0.1800 
    112 C         -2.7037  -18.7052  -53.1866 C.2       20 UNK         0.5000 
    113 O         -2.3111  -17.5894  -52.8446 O.2       20 UNK        -0.5000 
    114 N         -3.9126  -18.9432  -53.7203 N.am      21 UNK        -0.5000 
    115 CA        -5.0033  -17.9913  -53.9487 C.3       21 UNK         0.1400 
    116 CB        -4.6190  -16.9744  -55.0436 C.3       21 UNK        -0.1800 
    117 C         -5.5037  -17.3297  -52.6469 C.2       21 UNK         0.5000 
    118 O         -5.7311  -16.1181  -52.6137 O.2       21 UNK        -0.5000 
    119 N         -5.6504  -18.1401  -51.5918 N.am      22 UNK        -0.5000 
    120 CA        -6.1129  -17.7095  -50.2637 C.3       22 UNK         0.1400 
    121 C         -7.6086  -17.2883  -50.2556 C.2       22 UNK         0.5000 
    122 N         -7.9729  -16.2853  -49.4680 N.am      22 UNK        -0.7600 
    123 O         -8.4493  -17.8900  -50.9206 O.2       22 UNK        -0.5000 
    124 C124       -5.8524  -18.7802  -49.1724 C.3       23 UNK        -0.0398 
    125 S125       -4.1272  -19.3627  -49.1393 S.3       23 UNK        -0.2404 
    126 C126       -3.3266  -18.1045  -48.0980 C.3       23 UNK        -0.0205 
    127 H127       -4.0091  -11.8348  -50.0503 H         1 UNK         0.0600 
    128 H128       -3.8695  -12.4355  -51.7064 H         1 UNK         0.0600 
    129 H129       -3.2760  -13.4113  -50.3606 H         1 UNK         0.0600 
    130 H130       -1.0647  -13.3293  -50.1006 H         1 UNK         0.3000 
    131 H131        0.5769  -11.3114  -51.3850 H         1 UNK         0.0600 
    132 H132        2.4840  -12.6806  -50.4234 H         1 UNK         0.0800 
    133 H133        1.4438  -13.5219  -51.5190 H         1 UNK         0.0800 
    134 H134       -0.2644  -15.3091  -50.9351 H         1 UNK         0.0800 
    135 H135        1.3131  -16.0522  -50.9844 H         1 UNK         0.0800 
    136 H136       -2.0051  -16.1212  -49.4249 H         1 UNK         0.1150 
    137 H137       -1.3680  -19.9257  -47.5547 H         1 UNK         0.1150 
    138 H138        1.9092  -17.8615  -49.3856 H         1 UNK         0.1150 
    139 H139        0.8869  -21.0546  -48.6558 H         1 UNK         0.0800 
    140 H140        2.2847  -20.0191  -48.4861 H         1 UNK         0.0800 
    141 H141        2.5635  -22.3906  -47.3730 H         1 UNK         0.0800 
    142 H142        2.8520  -22.3403  -45.6686 H         1 UNK         0.0800 
    143 H143        1.5728  -24.3188  -46.5770 H         1 UNK         0.0600 
    144 H144        0.8092  -22.9194  -44.1614 H         1 UNK         0.3000 
    145 H145       -0.7564  -25.8521  -42.7869 H         1 UNK         0.0600 
    146 H146        0.9916  -25.6220  -41.0565 H         1 UNK         0.0600 
    147 H147        1.6905  -26.3012  -42.5171 H         1 UNK         0.0600 
    148 H148        1.9640  -24.6081  -42.1235 H         1 UNK         0.0600 
    149 H149       -0.1671  -23.4481  -41.4898 H         1 UNK         0.3000 
    150 H150       -3.3281  -22.3892  -41.4842 H         1 UNK         0.0600 
    151 H151       -1.4281  -22.6631  -39.9010 H         1 UNK         0.0600 
    152 H152       -1.9438  -20.9911  -39.9782 H         1 UNK         0.0600 
    153 H153       -0.4736  -21.4850  -40.8044 H         1 UNK         0.0600 
    154 H154       -3.4301  -20.5001  -42.6197 H         1 UNK         0.3000 
    155 H155       -2.6612  -19.3224  -44.8970 H         1 UNK         0.0600 
    156 H156       -3.0878  -17.1163  -43.7280 H         1 UNK         0.0600 
    157 H157       -2.3381  -17.7831  -42.2794 H         1 UNK         0.0600 
    158 H158       -3.8077  -18.4967  -42.9264 H         1 UNK         0.0600 
    159 H159       -0.8931  -18.3508  -45.7476 H         1 UNK         0.3000 
    160 H160        1.3374  -17.6170  -45.9091 H         1 UNK         0.0600 
    161 H161       -0.0307  -14.9989  -45.0831 H         1 UNK         0.0600 
    162 H162       -0.4914  -16.0327  -46.4282 H         1 UNK         0.0600 
    163 H163        1.0357  -15.1707  -46.4747 H         1 UNK         0.0600 
    164 H164        2.4030  -15.4002  -44.5302 H         1 UNK         0.3000 
    165 H165        4.8516  -17.0282  -42.5645 H         1 UNK         0.0600 
    166 H166        5.1400  -15.5529  -45.2342 H         1 UNK         0.0600 
    167 H167        6.3698  -15.6327  -43.9724 H         1 UNK         0.0600 
    168 H168        5.8751  -17.0939  -44.8143 H         1 UNK         0.0600 
    169 H169        3.8893  -14.3525  -43.4391 H         1 UNK         0.3000 
    170 H170        2.4892  -13.5984  -40.2958 H         1 UNK         0.0600 
    171 H171        4.8793  -13.2353  -39.6833 H         1 UNK         0.0600 
    172 H172        5.2049  -12.5669  -41.2779 H         1 UNK         0.0600 
    173 H173        4.1187  -11.7286  -40.1686 H         1 UNK         0.0600 
    174 H174        3.2224  -12.0388  -42.6279 H         1 UNK         0.3000 
    175 H175        0.3620  -12.7421  -44.5329 H         1 UNK         0.0600 
    176 H176        0.8008  -10.1885  -42.9001 H         1 UNK         0.0600 
    177 H177       -0.1837  -10.3394  -44.3559 H         1 UNK         0.0600 
    178 H178       -0.6632  -11.1658  -42.8820 H         1 UNK         0.0600 
    179 H179        2.1686  -10.6849  -44.9727 H         1 UNK         0.3000 
    180 H180        4.6278  -11.1163  -45.7260 H         1 UNK         0.0600 
    181 H181        4.3693  -13.4908  -47.6461 H         1 UNK         0.0600 
    182 H182        5.5153  -13.3509  -46.3168 H         1 UNK         0.0600 
    183 H183        5.6417  -12.2697  -47.6926 H         1 UNK         0.0600 
    184 H184        3.2374  -11.3964  -48.2624 H         1 UNK         0.3000 
    185 H185        1.1718   -8.6215  -48.0134 H         1 UNK         0.0600 
    186 H186        3.2761   -7.3085  -48.2894 H         1 UNK         0.0600 
    187 H187        3.8925   -8.5037  -49.4238 H         1 UNK         0.0600 
    188 H188        2.4714   -7.5408  -49.8324 H         1 UNK         0.0600 
    189 H189        2.1886  -10.0547  -50.2772 H         1 UNK         0.3000 
    190 H190       -1.2424  -22.4486  -45.5610 H         1 UNK         0.3000 
    191 H191       -2.5022  -22.3200  -48.1640 H         1 UNK         0.0600 
    192 H192       -4.5707  -21.8037  -46.8091 H         1 UNK         0.0600 
    193 H193       -3.2234  -20.7462  -46.4703 H         1 UNK         0.0600 
    194 H194       -3.6391  -22.0313  -45.3345 H         1 UNK         0.0600 
    195 H195       -2.6623  -24.5774  -45.3849 H         1 UNK         0.3000 
    196 H196       -4.5829  -26.3626  -46.4530 H         1 UNK         0.0600 
    197 H197       -3.7010  -27.9448  -44.7532 H         1 UNK         0.0600 
    198 H198       -3.8932  -26.3395  -44.0633 H         1 UNK         0.0600 
    199 H199       -2.2906  -26.9272  -44.4980 H         1 UNK         0.0600 
    200 H200       -0.9909  -26.3990  -46.7019 H         1 UNK         0.3000 
    201 H201       -0.7601  -28.7231  -48.3085 H         1 UNK         0.0600 
    202 H202        1.1381  -27.7154  -47.0677 H         1 UNK         0.0600 
    203 H203        1.0854  -26.2850  -48.0961 H         1 UNK         0.0600 
    204 H204        1.5290  -27.8458  -48.7760 H         1 UNK         0.0600 
    205 H205       -1.1851  -25.2911  -49.2158 H         1 UNK         0.3000 
    206 H206       -1.0860  -25.7213  -52.0718 H         1 UNK         0.0600 
    207 H207       -0.4692  -23.5629  -51.0046 H         1 UNK         0.0600 
    208 H208       -1.8184  -23.3233  -52.0981 H         1 UNK         0.0600 
    209 H209       -2.1033  -23.3804  -50.3691 H         1 UNK         0.0600 
    210 H210       -3.4773  -26.4654  -49.8039 H         1 UNK         0.3000 
    211 H211       -5.6419  -26.8829  -49.7298 H         1 UNK         0.0600 
    212 H212       -5.4986  -27.2932  -52.7669 H         1 UNK         0.0600 
    213 H213       -6.7460  -27.9077  -51.6900 H         1 UNK         0.0600 
    214 H214       -5.1034  -28.5140  -51.5576 H         1 UNK         0.0600 
    215 H215       -4.8891  -24.2408  -49.7782 H         1 UNK         0.3000 
    216 H216       -5.4267  -22.1350  -49.9073 H         1 UNK         0.0600 
    217 H217       -8.2710  -23.0570  -50.5786 H         1 UNK         0.0600 
    218 H218       -7.8209  -21.4276  -50.1156 H         1 UNK         0.0600 
    219 H219       -7.6184  -22.7457  -48.9710 H         1 UNK         0.0600 
    220 H220       -6.7309  -23.8352  -52.7212 H         1 UNK         0.3000 
    221 H221       -7.0812  -21.6746  -54.4487 H         1 UNK         0.0600 
    222 H222       -6.5603  -24.6254  -55.0883 H         1 UNK         0.0600 
    223 H223       -8.1287  -23.8846  -54.7747 H         1 UNK         0.0600 
    224 H224       -7.2249  -23.4482  -56.2167 H         1 UNK         0.0600 
    225 H225       -4.1435  -23.7709  -54.1421 H         1 UNK         0.3000 
    226 H226       -2.8899  -22.6394  -56.4703 H         1 UNK         0.0600 
    227 H227       -2.4070  -24.9382  -55.6213 H         1 UNK         0.0600 
    228 H228       -0.9471  -23.9773  -55.7994 H         1 UNK         0.0600 
    229 H229       -1.6200  -24.2521  -54.2028 H         1 UNK         0.0600 
    230 H230       -3.0080  -21.6244  -53.1422 H         1 UNK         0.3000 
    231 H231       -0.8092  -19.6406  -53.4730 H         1 UNK         0.0600 
    232 H232       -2.3839  -20.6307  -51.0481 H         1 UNK         0.0600 
    233 H233       -0.6911  -20.9413  -51.4197 H         1 UNK         0.0600 
    234 H234       -1.2087  -19.3204  -50.9964 H         1 UNK         0.0600 
    235 H235       -4.1324  -19.9005  -53.9572 H         1 UNK         0.3000 
    236 H236       -5.8402  -18.5795  -54.3278 H         1 UNK         0.0600 
    237 H237       -4.2955  -17.4802  -55.9534 H         1 UNK         0.0600 
    238 H238       -5.4695  -16.3452  -55.3079 H         1 UNK         0.0600 
    239 H239       -3.8126  -16.3154  -54.7206 H         1 UNK         0.0600 
    240 H240       -5.4604  -19.1317  -51.7052 H         1 UNK         0.3000 
    241 H241       -5.5242  -16.8279  -50.0031 H         1 UNK         0.0600 
    242 H242       -7.3049  -15.7780  -48.9086 H         1 UNK         0.3800 
    243 H243       -8.9435  -16.0129  -49.4425 H         1 UNK         0.3800 
    244 H244       -6.1137  -18.3981  -48.1841 H         1 UNK         0.0800 
    245 H245       -6.4883  -19.6498  -49.3383 H         1 UNK         0.0800 
    246 H246       -3.4705  -18.3511  -47.0461 H         1 UNK         0.0800 
    247 H247       -3.8030  -17.1363  -48.2563 H         1 UNK         0.0800 
@<TRIPOS>BOND
     1    1    2 1    
     2    1  127 1    
     3    1  128 1    
     4    1  129 1    
     5    2    3 2    
     6    2    4 am   BACKBONE|DICT|INTERRES
     7    4    5 1    
     8    4  130 1    
     9    5    6 1    
    10    5   65 1    
    11    5  131 1    
    12    6    7 1    
    13    6  132 1    
    14    6  133 1    
    15    7    8 1    
    16    8    9 1    
    17    8  134 1    
    18    8  135 1    
    19    9   10 ar   
    20    9   14 ar   
    21   10   11 ar   
    22   10  136 1    
    23   11   12 ar   
    24   11  126 1    
    25   12   13 ar   
    26   12  137 1    
    27   13   14 ar   
    28   13   15 1    
    29   14  138 1    
    30   15   16 1    
    31   15  139 1    
    32   15  140 1    
    33   16   17 1    
    34   17   18 1    
    35   17  141 1    
    36   17  142 1    
    37   18   19 1    
    38   18   67 1    
    39   18  143 1    
    40   19   20 am   BACKBONE|DICT|INTERRES
    41   19  144 1    
    42   20   21 2    
    43   20   22 1    
    44   22   23 1    
    45   22   24 1    
    46   22  145 1    
    47   23  146 1    
    48   23  147 1    
    49   23  148 1    
    50   24   25 am   BACKBONE|DICT|INTERRES
    51   24  149 1    
    52   25   26 2    
    53   25   27 1    
    54   27   28 1    
    55   27   29 1    
    56   27  150 1    
    57   28  151 1    
    58   28  152 1    
    59   28  153 1    
    60   29   30 am   BACKBONE|DICT|INTERRES
    61   29  154 1    
    62   30   31 2    
    63   30   32 1    
    64   32   33 1    
    65   32   34 1    
    66   32  155 1    
    67   33  156 1    
    68   33  157 1    
    69   33  158 1    
    70   34   35 am   BACKBONE|DICT|INTERRES
    71   34  159 1    
    72   35   36 2    
    73   35   37 1    
    74   37   38 1    
    75   37   39 1    
    76   37  160 1    
    77   38  161 1    
    78   38  162 1    
    79   38  163 1    
    80   39   40 am   BACKBONE|DICT|INTERRES
    81   39  164 1    
    82   40   41 2    
    83   40   42 1    
    84   42   43 1    
    85   42   44 1    
    86   42  165 1    
    87   43  166 1    
    88   43  167 1    
    89   43  168 1    
    90   44   45 am   BACKBONE|DICT|INTERRES
    91   44  169 1    
    92   45   46 2    
    93   45   47 1    
    94   47   48 1    
    95   47   49 1    
    96   47  170 1    
    97   48  171 1    
    98   48  172 1    
    99   48  173 1    
   100   49   50 am   BACKBONE|DICT|INTERRES
   101   49  174 1    
   102   50   51 2    
   103   50   52 1    
   104   52   53 1    
   105   52   54 1    
   106   52  175 1    
   107   53  176 1    
   108   53  177 1    
   109   53  178 1    
   110   54   55 am   BACKBONE|DICT|INTERRES
   111   54  179 1    
   112   55   56 2    
   113   55   57 1    
   114   57   58 1    
   115   57   59 1    
   116   57  180 1    
   117   58  181 1    
   118   58  182 1    
   119   58  183 1    
   120   59   60 am   BACKBONE|DICT|INTERRES
   121   59  184 1    
   122   60   61 2    
   123   60   62 1    
   124   62   63 1    
   125   62   64 1    
   126   62  185 1    
   127   63  186 1    
   128   63  187 1    
   129   63  188 1    
   130   64   65 am   BACKBONE|DICT|INTERRES
   131   64  189 1    
   132   65   66 2    
   133   67   68 2    
   134   67   69 am   BACKBONE|DICT|INTERRES
   135   69   70 1    
   136   69  190 1    
   137   70   71 1    
   138   70   72 1    
   139   70  191 1    
   140   71  192 1    
   141   71  193 1    
   142   71  194 1    
   143   72   73 2    
   144   72   74 am   BACKBONE|DICT|INTERRES
   145   74   75 1    
   146   74  195 1    
   147   75   76 1    
   148   75   77 1    
   149   75  196 1    
   150   76  197 1    
   151   76  198 1    
   152   76  199 1    
   153   77   78 2    
   154   77   79 am   BACKBONE|DICT|INTERRES
   155   79   80 1    
   156   79  200 1    
   157   80   81 1    
   158   80   82 1    
   159   80  201 1    
   160   81  202 1    
   161   81  203 1    
   162   81  204 1    
   163   82   83 2    
   164   82   84 am   BACKBONE|DICT|INTERRES
   165   84   85 1    
   166   84  205 1    
   167   85   86 1    
   168   85   87 1    
   169   85  206 1    
   170   86  207 1    
   171   86  208 1    
   172   86  209 1    
   173   87   88 2    
   174   87   89 am   BACKBONE|DICT|INTERRES
   175   89   90 1    
   176   89  210 1    
   177   90   91 1    
   178   90   92 1    
   179   90  211 1    
   180   91  212 1    
   181   91  213 1    
   182   91  214 1    
   183   92   93 2    
   184   92   94 am   BACKBONE|DICT|INTERRES
   185   94   95 1    
   186   94  215 1    
   187   95   96 1    
   188   95   97 1    
   189   95  216 1    
   190   96  217 1    
   191   96  218 1    
   192   96  219 1    
   193   97   98 2    
   194   97   99 am   BACKBONE|DICT|INTERRES
   195   99  100 1    
   196   99  220 1    
   197  100  101 1    
   198  100  102 1    
   199  100  221 1    
   200  101  222 1    
   201  101  223 1    
   202  101  224 1    
   203  102  103 2    
   204  102  104 am   BACKBONE|DICT|INTERRES
   205  104  105 1    
   206  104  225 1    
   207  105  106 1    
   208  105  107 1    
   209  105  226 1    
   210  106  227 1    
   211  106  228 1    
   212  106  229 1    
   213  107  108 2    
   214  107  109 am   BACKBONE|DICT|INTERRES
   215  109  110 1    
   216  109  230 1    
   217  110  111 1    
   218  110  112 1    
   219  110  231 1    
   220  111  232 1    
   221  111  233 1    
   222  111  234 1    
   223  112  113 2    
   224  112  114 am   BACKBONE|DICT|INTERRES
   225  114  115 1    
   226  114  235 1    
   227  115  116 1    
   228  115  117 1    
   229  115  236 1    
   230  116  237 1    
   231  116  238 1    
   232  116  239 1    
   233  117  118 2    
   234  117  119 am   BACKBONE|DICT|INTERRES
   235  119  120 1    
   236  119  240 1    
   237  120  121 1    
   238  120  124 1    
   239  120  241 1    
   240  121  122 am   BACKBONE|DICT|INTERRES
   241  121  123 2    
   242  122  242 1    
   243  122  243 1    
   244  124  125 1    
   245  124  244 1    
   246  124  245 1    
   247  125  126 1    
   248  126  246 1    
   249  126  247 1    
@<TRIPOS>SUBSTRUCTURE
     1 UNK         1 GROUP             0       ****    0 ROOT    
