@<TRIPOS>MOLECULE
3R540
247   249    1
SMALL
USER_CHARGES


@<TRIPOS>ATOM
      1 CA         -2.5714  -13.2933  -53.0078 C.3       0 UNK        -0.1800 
      2 C          -2.5306  -12.9397  -51.5280 C.2       0 UNK         0.5000 
      3 O          -3.1271  -11.9452  -51.1159 O.2       0 UNK        -0.5000 
      4 N          -1.8308  -13.7540  -50.7291 N.am      1 UNK        -0.5000 
      5 CA         -1.6676  -13.5843  -49.2789 C.3       1 UNK         0.1400 
      6 C6         -0.3660  -14.2524  -48.7616 C.3       23 UNK        -0.0398 
      7 S7          1.1647  -13.4271  -49.3167 S.3       23 UNK        -0.2404 
      8 C8          1.5034  -14.1453  -50.9641 C.3       23 UNK        -0.0205 
      9 C9          1.6196  -15.6678  -51.0090 C.ar      23 UNK        -0.0193 
     10 C10         1.0685  -16.3627  -52.0914 C.ar      23 UNK        -0.1150 
     11 C11         1.1860  -17.7529  -52.1877 C.ar      23 UNK        -0.0193 
     12 C12         1.8706  -18.4456  -51.1871 C.ar      23 UNK        -0.1150 
     13 C13         2.4391  -17.7708  -50.1028 C.ar      23 UNK        -0.0193 
     14 C14         2.3108  -16.3804  -50.0214 C.ar      23 UNK        -0.1150 
     15 C15         3.2448  -18.5303  -49.0531 C.3       23 UNK        -0.0205 
     16 S16         2.4730  -20.0977  -48.5256 S.3       23 UNK        -0.2404 
     17 C17         1.2145  -19.5057  -47.3483 C.3       23 UNK        -0.0398 
     18 CA         -0.0711  -20.3704  -47.3291 C.3       11 UNK         0.1400 
     19 N           0.2193  -21.7967  -47.1744 N.am      11 UNK        -0.5000 
     20 C          -0.6617  -22.7837  -47.3714 C.2       10 UNK         0.5000 
     21 O          -1.8392  -22.6011  -47.6740 O.2       10 UNK        -0.5000 
     22 CA         -0.1345  -24.2128  -47.1566 C.3       10 UNK         0.1400 
     23 CB          0.8369  -24.6110  -48.2789 C.3       10 UNK        -0.1800 
     24 N           0.5228  -24.3536  -45.8591 N.am      10 UNK        -0.5000 
     25 C          -0.0901  -24.1988  -44.6763 C.2       9 UNK         0.5000 
     26 O          -1.3036  -24.0347  -44.5492 O.2       9 UNK        -0.5000 
     27 CA          0.8048  -24.1917  -43.4228 C.3       9 UNK         0.1400 
     28 CB          0.8178  -25.5796  -42.7662 C.3       9 UNK        -0.1800 
     29 N           2.1848  -23.7616  -43.6736 N.am      9 UNK        -0.5000 
     30 C           2.5479  -22.5519  -44.1211 C.2       8 UNK         0.5000 
     31 O           1.7497  -21.6616  -44.4216 O.2       8 UNK        -0.5000 
     32 CA          4.0572  -22.3045  -44.2852 C.3       8 UNK         0.1400 
     33 CB          4.3845  -21.8466  -45.7155 C.3       8 UNK        -0.1800 
     34 N           4.5292  -21.2931  -43.3445 N.am      8 UNK        -0.5000 
     35 C           4.6106  -21.4458  -42.0153 C.2       7 UNK         0.5000 
     36 O           4.3533  -22.5001  -41.4328 O.2       7 UNK        -0.5000 
     37 CA          5.0731  -20.2221  -41.1964 C.3       7 UNK         0.1400 
     38 CB          6.5464  -20.3757  -40.7874 C.3       7 UNK        -0.1800 
     39 N           4.9095  -18.9509  -41.9087 N.am      7 UNK        -0.5000 
     40 C           3.7308  -18.3539  -42.1251 C.2       6 UNK         0.5000 
     41 O           2.6570  -18.7977  -41.7150 O.2       6 UNK        -0.5000 
     42 CA          3.7708  -17.0791  -42.9908 C.3       6 UNK         0.1400 
     43 CB          3.8565  -17.4569  -44.4802 C.3       6 UNK        -0.1800 
     44 N           2.6023  -16.2197  -42.8066 N.am      6 UNK        -0.5000 
     45 C           2.2415  -15.5937  -41.6772 C.2       5 UNK         0.5000 
     46 O           2.9033  -15.6278  -40.6385 O.2       5 UNK        -0.5000 
     47 CA          0.9400  -14.7602  -41.7215 C.3       5 UNK         0.1400 
     48 CB          1.2292  -13.2803  -41.4189 C.3       5 UNK        -0.1800 
     49 N           0.2534  -14.8434  -43.0153 N.am      5 UNK        -0.5000 
     50 C          -0.5808  -15.8258  -43.3769 C.2       4 UNK         0.5000 
     51 O          -0.9297  -16.7393  -42.6277 O.2       4 UNK        -0.5000 
     52 CA         -1.0204  -15.8084  -44.8536 C.3       4 UNK         0.1400 
     53 CB          0.0960  -16.3936  -45.7340 C.3       4 UNK        -0.1800 
     54 N          -2.2538  -16.5490  -45.1154 N.am      4 UNK        -0.5000 
     55 C          -3.4613  -16.2256  -44.6414 C.2       3 UNK         0.5000 
     56 O          -3.6750  -15.2881  -43.8690 O.2       3 UNK        -0.5000 
     57 CA         -4.6434  -17.0099  -45.2285 C.3       3 UNK         0.1400 
     58 CB         -5.7675  -17.2381  -44.2040 C.3       3 UNK        -0.1800 
     59 N          -5.1484  -16.1953  -46.3276 N.am      3 UNK        -0.5000 
     60 C          -4.8466  -16.3943  -47.6143 C.2       2 UNK         0.5000 
     61 O          -4.3456  -17.4321  -48.0443 O.2       2 UNK        -0.5000 
     62 CA         -5.1305  -15.2396  -48.5973 C.3       2 UNK         0.1400 
     63 CB         -6.0330  -14.1202  -48.0305 C.3       2 UNK        -0.1800 
     64 N          -3.8880  -14.6876  -49.1494 N.am      2 UNK        -0.5000 
     65 C          -2.9000  -14.0727  -48.4771 C.2       1 UNK         0.5000 
     66 O          -2.9294  -13.8702  -47.2634 O.2       1 UNK        -0.5000 
     67 C          -1.0184  -19.8699  -46.2219 C.2       11 UNK         0.5000 
     68 O          -1.9062  -19.0648  -46.4996 O.2       11 UNK        -0.5000 
     69 N          -0.7788  -20.3342  -44.9889 N.am      12 UNK        -0.5000 
     70 CA         -1.5041  -19.9506  -43.7852 C.3       12 UNK         0.1400 
     71 CB         -0.5625  -20.0811  -42.5742 C.3       12 UNK        -0.1800 
     72 C          -2.8110  -20.7458  -43.6277 C.2       12 UNK         0.5000 
     73 O          -3.8434  -20.3212  -44.1445 O.2       12 UNK        -0.5000 
     74 N          -2.7488  -21.8580  -42.8833 N.am      13 UNK        -0.5000 
     75 CA         -3.8850  -22.6553  -42.4180 C.3       13 UNK         0.1400 
     76 CB         -3.3649  -23.7911  -41.5228 C.3       13 UNK        -0.1800 
     77 C          -4.7860  -23.2155  -43.5324 C.2       13 UNK         0.5000 
     78 O          -6.0094  -23.1703  -43.3954 O.2       13 UNK        -0.5000 
     79 N          -4.1775  -23.7266  -44.6106 N.am      14 UNK        -0.5000 
     80 CA         -4.9017  -24.2621  -45.7674 C.3       14 UNK         0.1400 
     81 CB         -4.0054  -25.2589  -46.5140 C.3       14 UNK        -0.1800 
     82 C          -5.4059  -23.1623  -46.7231 C.2       14 UNK         0.5000 
     83 O          -6.2864  -23.4383  -47.5388 O.2       14 UNK        -0.5000 
     84 N          -4.8450  -21.9496  -46.6031 N.am      15 UNK        -0.5000 
     85 CA         -5.1426  -20.7417  -47.3757 C.3       15 UNK         0.1400 
     86 CB         -6.5307  -20.1860  -47.0002 C.3       15 UNK        -0.1800 
     87 C          -4.9552  -20.9202  -48.8969 C.2       15 UNK         0.5000 
     88 O          -5.7303  -20.3815  -49.6889 O.2       15 UNK        -0.5000 
     89 N          -3.8992  -21.6421  -49.3008 N.am      16 UNK        -0.5000 
     90 CA         -3.5312  -21.8716  -50.7029 C.3       16 UNK         0.1400 
     91 CB         -2.4313  -22.9396  -50.7819 C.3       16 UNK        -0.1800 
     92 C          -3.0830  -20.5925  -51.4346 C.2       16 UNK         0.5000 
     93 O          -2.9943  -20.5968  -52.6632 O.2       16 UNK        -0.5000 
     94 N          -2.8252  -19.5189  -50.6785 N.am      17 UNK        -0.5000 
     95 CA         -2.5609  -18.1798  -51.1854 C.3       17 UNK         0.1400 
     96 CB         -1.6650  -17.4388  -50.1888 C.3       17 UNK        -0.1800 
     97 C          -3.8400  -17.3865  -51.5155 C.2       17 UNK         0.5000 
     98 O          -3.7271  -16.3346  -52.1430 O.2       17 UNK        -0.5000 
     99 N          -5.0250  -17.8892  -51.1332 N.am      18 UNK        -0.5000 
    100 CA        -6.3167  -17.3741  -51.5995 C.3       18 UNK         0.1400 
    101 CB        -7.4261  -17.7459  -50.6011 C.3       18 UNK        -0.1800 
    102 C         -6.6434  -17.9261  -52.9972 C.2       18 UNK         0.5000 
    103 O         -7.1591  -17.1948  -53.8423 O.2       18 UNK        -0.5000 
    104 N         -6.2996  -19.2028  -53.2189 N.am      19 UNK        -0.5000 
    105 CA        -6.4002  -19.8888  -54.5081 C.3       19 UNK         0.1400 
    106 CB        -6.3696  -21.4049  -54.2552 C.3       19 UNK        -0.1800 
    107 C         -5.2753  -19.4947  -55.4862 C.2       19 UNK         0.5000 
    108 O         -5.4140  -19.7252  -56.6876 O.2       19 UNK        -0.5000 
    109 N         -4.1776  -18.9443  -54.9442 N.am      20 UNK        -0.5000 
    110 CA        -2.9081  -18.6246  -55.6073 C.3       20 UNK         0.1400 
    111 CB        -3.0939  -17.5367  -56.6844 C.3       20 UNK        -0.1800 
    112 C         -2.1734  -19.8815  -56.1249 C.2       20 UNK         0.5000 
    113 O         -1.4289  -19.8087  -57.1036 O.2       20 UNK        -0.5000 
    114 N         -2.3979  -21.0128  -55.4448 N.am      21 UNK        -0.5000 
    115 CA        -1.7601  -22.3001  -55.7084 C.3       21 UNK         0.1400 
    116 CB        -2.7166  -23.4218  -55.2746 C.3       21 UNK        -0.1800 
    117 C         -0.4151  -22.4220  -54.9722 C.2       21 UNK         0.5000 
    118 O          0.4970  -23.0732  -55.4814 O.2       21 UNK        -0.5000 
    119 N         -0.3244  -21.7888  -53.7936 N.am      22 UNK        -0.5000 
    120 CA         0.8702  -21.6944  -52.9323 C.3       22 UNK         0.1400 
    121 C          1.3160  -23.0288  -52.2572 C.2       22 UNK         0.5000 
    122 N          0.5444  -24.1062  -52.3285 N.am      22 UNK        -0.7600 
    123 O          2.3679  -23.0824  -51.6271 O.2       22 UNK        -0.5000 
    124 C124        2.0689  -20.9664  -53.6188 C.3       23 UNK        -0.0398 
    125 S125        1.7310  -19.3539  -54.4293 S.3       23 UNK        -0.2404 
    126 C126        0.5374  -18.4980  -53.3493 C.3       23 UNK        -0.0205 
    127 H127       -2.1861  -12.4662  -53.6040 H         1 UNK         0.0600 
    128 H128       -3.5979  -13.4912  -53.3166 H         1 UNK         0.0600 
    129 H129       -1.9760  -14.1796  -53.2295 H         1 UNK         0.0600 
    130 H130       -1.3725  -14.5572  -51.1316 H         1 UNK         0.3000 
    131 H131       -1.5866  -12.5150  -49.0716 H         1 UNK         0.0600 
    132 H132       -0.3352  -14.2056  -47.6721 H         1 UNK         0.0800 
    133 H133       -0.3241  -15.3114  -49.0058 H         1 UNK         0.0800 
    134 H134        2.4441  -13.7283  -51.3253 H         1 UNK         0.0800 
    135 H135        0.7403  -13.7959  -51.6597 H         1 UNK         0.0800 
    136 H136        0.5447  -15.8180  -52.8644 H         1 UNK         0.1150 
    137 H137        1.9726  -19.5164  -51.2489 H         1 UNK         0.1150 
    138 H138        2.7641  -15.8485  -49.1970 H         1 UNK         0.1150 
    139 H139        3.4267  -17.9089  -48.1746 H         1 UNK         0.0800 
    140 H140        4.2239  -18.7557  -49.4771 H         1 UNK         0.0800 
    141 H141        0.9604  -18.4759  -47.6026 H         1 UNK         0.0800 
    142 H142        1.6799  -19.4782  -46.3613 H         1 UNK         0.0800 
    143 H143       -0.5814  -20.2379  -48.2860 H         1 UNK         0.0600 
    144 H144        1.1584  -22.0276  -46.8862 H         1 UNK         0.3000 
    145 H145       -0.9777  -24.9026  -47.1847 H         1 UNK         0.0600 
    146 H146        0.3615  -24.5142  -49.2560 H         1 UNK         0.0600 
    147 H147        1.1550  -25.6485  -48.1749 H         1 UNK         0.0600 
    148 H148        1.7306  -23.9856  -48.2881 H         1 UNK         0.0600 
    149 H149        1.5208  -24.5002  -45.8636 H         1 UNK         0.3000 
    150 H150        0.3636  -23.4872  -42.7155 H         1 UNK         0.0600 
    151 H151        1.3693  -25.5663  -41.8259 H         1 UNK         0.0600 
    152 H152       -0.1957  -25.9152  -42.5415 H         1 UNK         0.0600 
    153 H153        1.2753  -26.3276  -43.4149 H         1 UNK         0.0600 
    154 H154        2.9074  -24.4254  -43.4340 H         1 UNK         0.3000 
    155 H155        4.5967  -23.2345  -44.0940 H         1 UNK         0.0600 
    156 H156        3.9334  -20.8798  -45.9417 H         1 UNK         0.0600 
    157 H157        4.0161  -22.5615  -46.4523 H         1 UNK         0.0600 
    158 H158        5.4606  -21.7542  -45.8629 H         1 UNK         0.0600 
    159 H159        4.7379  -20.3853  -43.7294 H         1 UNK         0.3000 
    160 H160        4.4690  -20.1899  -40.2870 H         1 UNK         0.0600 
    161 H161        7.2048  -20.4061  -41.6565 H         1 UNK         0.0600 
    162 H162        6.7022  -21.2978  -40.2256 H         1 UNK         0.0600 
    163 H163        6.8674  -19.5514  -40.1502 H         1 UNK         0.0600 
    164 H164        5.7516  -18.5291  -42.2740 H         1 UNK         0.3000 
    165 H165        4.6567  -16.5023  -42.7177 H         1 UNK         0.0600 
    166 H166        4.7497  -18.0469  -44.6889 H         1 UNK         0.0600 
    167 H167        2.9944  -18.0469  -44.7940 H         1 UNK         0.0600 
    168 H168        3.9037  -16.5701  -45.1126 H         1 UNK         0.0600 
    169 H169        1.9784  -16.1454  -43.5934 H         1 UNK         0.3000 
    170 H170        0.2818  -15.1442  -40.9393 H         1 UNK         0.0600 
    171 H171        1.9023  -12.8423  -42.1569 H         1 UNK         0.0600 
    172 H172        1.6950  -13.1632  -40.4396 H         1 UNK         0.0600 
    173 H173        0.3108  -12.6929  -41.4105 H         1 UNK         0.0600 
    174 H174        0.4921  -14.1287  -43.6883 H         1 UNK         0.3000 
    175 H175       -1.1964  -14.7728  -45.1518 H         1 UNK         0.0600 
    176 H176       -0.2296  -16.5038  -46.7681 H         1 UNK         0.0600 
    177 H177        0.9759  -15.7494  -45.7384 H         1 UNK         0.0600 
    178 H178        0.4098  -17.3744  -45.3756 H         1 UNK         0.0600 
    179 H179       -2.1785  -17.3527  -45.7348 H         1 UNK         0.3000 
    180 H180       -4.2962  -17.9841  -45.5787 H         1 UNK         0.0600 
    181 H181       -6.1652  -16.3004  -43.8139 H         1 UNK         0.0600 
    182 H182       -5.4038  -17.8223  -43.3579 H         1 UNK         0.0600 
    183 H183       -6.5942  -17.7914  -44.6493 H         1 UNK         0.0600 
    184 H184       -5.5122  -15.2910  -46.0630 H         1 UNK         0.3000 
    185 H185       -5.6629  -15.6777  -49.4375 H         1 UNK         0.0600 
    186 H186       -6.9874  -14.5225  -47.6883 H         1 UNK         0.0600 
    187 H187       -5.5742  -13.5943  -47.1930 H         1 UNK         0.0600 
    188 H188       -6.2565  -13.3792  -48.7982 H         1 UNK         0.0600 
    189 H189       -3.7596  -14.8190  -50.1435 H         1 UNK         0.3000 
    190 H190        0.0093  -20.9623  -44.8551 H         1 UNK         0.3000 
    191 H191       -1.7869  -18.9016  -43.8619 H         1 UNK         0.0600 
    192 H192        0.2730  -19.3884  -42.6697 H         1 UNK         0.0600 
    193 H193       -1.0772  -19.8331  -41.6451 H         1 UNK         0.0600 
    194 H194       -0.1451  -21.0826  -42.4731 H         1 UNK         0.0600 
    195 H195       -1.8450  -22.1429  -42.5394 H         1 UNK         0.3000 
    196 H196       -4.5042  -21.9989  -41.8032 H         1 UNK         0.0600 
    197 H197       -2.6936  -24.4568  -42.0671 H         1 UNK         0.0600 
    198 H198       -4.1880  -24.3963  -41.1404 H         1 UNK         0.0600 
    199 H199       -2.8240  -23.3997  -40.6611 H         1 UNK         0.0600 
    200 H200       -3.1597  -23.7536  -44.6395 H         1 UNK         0.3000 
    201 H201       -5.7752  -24.8105  -45.4082 H         1 UNK         0.0600 
    202 H202       -3.1838  -24.7516  -47.0128 H         1 UNK         0.0600 
    203 H203       -4.5705  -25.7895  -47.2811 H         1 UNK         0.0600 
    204 H204       -3.5861  -26.0054  -45.8393 H         1 UNK         0.0600 
    205 H205       -4.1485  -21.8308  -45.8792 H         1 UNK         0.3000 
    206 H206       -4.4025  -20.0027  -47.0682 H         1 UNK         0.0600 
    207 H207       -7.3331  -20.8502  -47.3221 H         1 UNK         0.0600 
    208 H208       -6.6179  -20.0477  -45.9226 H         1 UNK         0.0600 
    209 H209       -6.6999  -19.2140  -47.4653 H         1 UNK         0.0600 
    210 H210       -3.2721  -22.0380  -48.6007 H         1 UNK         0.3000 
    211 H211       -4.4136  -22.2515  -51.2215 H         1 UNK         0.0600 
    212 H212       -2.7125  -23.8410  -50.2370 H         1 UNK         0.0600 
    213 H213       -1.4873  -22.5790  -50.3719 H         1 UNK         0.0600 
    214 H214       -2.2478  -23.2308  -51.8160 H         1 UNK         0.0600 
    215 H215       -2.9318  -19.6040  -49.6775 H         1 UNK         0.3000 
    216 H216       -2.0150  -18.2600  -52.1236 H         1 UNK         0.0600 
    217 H217       -2.1572  -17.2582  -49.2357 H         1 UNK         0.0600 
    218 H218       -0.7522  -17.9976  -49.9845 H         1 UNK         0.0600 
    219 H219       -1.3716  -16.4776  -50.6027 H         1 UNK         0.0600 
    220 H220       -5.0564  -18.7312  -50.5667 H         1 UNK         0.3000 
    221 H221       -6.2690  -16.2852  -51.6667 H         1 UNK         0.0600 
    222 H222       -7.6325  -18.8164  -50.6019 H         1 UNK         0.0600 
    223 H223       -7.1665  -17.4632  -49.5817 H         1 UNK         0.0600 
    224 H224       -8.3574  -17.2380  -50.8539 H         1 UNK         0.0600 
    225 H225       -5.9157  -19.7349  -52.4518 H         1 UNK         0.3000 
    226 H226       -7.3545  -19.6327  -54.9729 H         1 UNK         0.0600 
    227 H227       -7.1872  -21.7130  -53.6033 H         1 UNK         0.0600 
    228 H228       -6.4732  -21.9595  -55.1887 H         1 UNK         0.0600 
    229 H229       -5.4334  -21.7183  -53.7912 H         1 UNK         0.0600 
    230 H230       -4.1759  -18.8430  -53.9403 H         1 UNK         0.3000 
    231 H231       -2.2681  -18.2046  -54.8312 H         1 UNK         0.0600 
    232 H232       -3.6601  -17.9038  -57.5405 H         1 UNK         0.0600 
    233 H233       -2.1300  -17.1885  -57.0570 H         1 UNK         0.0600 
    234 H234       -3.6172  -16.6695  -56.2814 H         1 UNK         0.0600 
    235 H235       -2.9736  -20.9540  -54.6120 H         1 UNK         0.3000 
    236 H236       -1.5724  -22.4027  -56.7793 H         1 UNK         0.0600 
    237 H237       -2.9618  -23.3577  -54.2139 H         1 UNK         0.0600 
    238 H238       -3.6508  -23.3780  -55.8347 H         1 UNK         0.0600 
    239 H239       -2.2759  -24.4034  -55.4538 H         1 UNK         0.0600 
    240 H240       -1.1482  -21.3058  -53.4588 H         1 UNK         0.3000 
    241 H241        0.5546  -21.0905  -52.0833 H         1 UNK         0.0600 
    242 H242        0.8484  -24.9590  -51.8870 H         1 UNK         0.3800 
    243 H243       -0.3074  -24.0935  -52.8631 H         1 UNK         0.3800 
    244 H244        2.5011  -21.6174  -54.3800 H         1 UNK         0.0800 
    245 H245        2.8721  -20.8019  -52.8994 H         1 UNK         0.0800 
    246 H246       -0.2073  -19.1937  -52.9739 H         1 UNK         0.0800 
    247 H247       -0.0115  -17.7928  -53.9742 H         1 UNK         0.0800 
@<TRIPOS>BOND
     1    1    2 1    
     2    1  127 1    
     3    1  128 1    
     4    1  129 1    
     5    2    3 2    
     6    2    4 am   BACKBONE|DICT|INTERRES
     7    4    5 1    
     8    4  130 1    
     9    5    6 1    
    10    5   65 1    
    11    5  131 1    
    12    6    7 1    
    13    6  132 1    
    14    6  133 1    
    15    7    8 1    
    16    8    9 1    
    17    8  134 1    
    18    8  135 1    
    19    9   10 ar   
    20    9   14 ar   
    21   10   11 ar   
    22   10  136 1    
    23   11   12 ar   
    24   11  126 1    
    25   12   13 ar   
    26   12  137 1    
    27   13   14 ar   
    28   13   15 1    
    29   14  138 1    
    30   15   16 1    
    31   15  139 1    
    32   15  140 1    
    33   16   17 1    
    34   17   18 1    
    35   17  141 1    
    36   17  142 1    
    37   18   19 1    
    38   18   67 1    
    39   18  143 1    
    40   19   20 am   BACKBONE|DICT|INTERRES
    41   19  144 1    
    42   20   21 2    
    43   20   22 1    
    44   22   23 1    
    45   22   24 1    
    46   22  145 1    
    47   23  146 1    
    48   23  147 1    
    49   23  148 1    
    50   24   25 am   BACKBONE|DICT|INTERRES
    51   24  149 1    
    52   25   26 2    
    53   25   27 1    
    54   27   28 1    
    55   27   29 1    
    56   27  150 1    
    57   28  151 1    
    58   28  152 1    
    59   28  153 1    
    60   29   30 am   BACKBONE|DICT|INTERRES
    61   29  154 1    
    62   30   31 2    
    63   30   32 1    
    64   32   33 1    
    65   32   34 1    
    66   32  155 1    
    67   33  156 1    
    68   33  157 1    
    69   33  158 1    
    70   34   35 am   BACKBONE|DICT|INTERRES
    71   34  159 1    
    72   35   36 2    
    73   35   37 1    
    74   37   38 1    
    75   37   39 1    
    76   37  160 1    
    77   38  161 1    
    78   38  162 1    
    79   38  163 1    
    80   39   40 am   BACKBONE|DICT|INTERRES
    81   39  164 1    
    82   40   41 2    
    83   40   42 1    
    84   42   43 1    
    85   42   44 1    
    86   42  165 1    
    87   43  166 1    
    88   43  167 1    
    89   43  168 1    
    90   44   45 am   BACKBONE|DICT|INTERRES
    91   44  169 1    
    92   45   46 2    
    93   45   47 1    
    94   47   48 1    
    95   47   49 1    
    96   47  170 1    
    97   48  171 1    
    98   48  172 1    
    99   48  173 1    
   100   49   50 am   BACKBONE|DICT|INTERRES
   101   49  174 1    
   102   50   51 2    
   103   50   52 1    
   104   52   53 1    
   105   52   54 1    
   106   52  175 1    
   107   53  176 1    
   108   53  177 1    
   109   53  178 1    
   110   54   55 am   BACKBONE|DICT|INTERRES
   111   54  179 1    
   112   55   56 2    
   113   55   57 1    
   114   57   58 1    
   115   57   59 1    
   116   57  180 1    
   117   58  181 1    
   118   58  182 1    
   119   58  183 1    
   120   59   60 am   BACKBONE|DICT|INTERRES
   121   59  184 1    
   122   60   61 2    
   123   60   62 1    
   124   62   63 1    
   125   62   64 1    
   126   62  185 1    
   127   63  186 1    
   128   63  187 1    
   129   63  188 1    
   130   64   65 am   BACKBONE|DICT|INTERRES
   131   64  189 1    
   132   65   66 2    
   133   67   68 2    
   134   67   69 am   BACKBONE|DICT|INTERRES
   135   69   70 1    
   136   69  190 1    
   137   70   71 1    
   138   70   72 1    
   139   70  191 1    
   140   71  192 1    
   141   71  193 1    
   142   71  194 1    
   143   72   73 2    
   144   72   74 am   BACKBONE|DICT|INTERRES
   145   74   75 1    
   146   74  195 1    
   147   75   76 1    
   148   75   77 1    
   149   75  196 1    
   150   76  197 1    
   151   76  198 1    
   152   76  199 1    
   153   77   78 2    
   154   77   79 am   BACKBONE|DICT|INTERRES
   155   79   80 1    
   156   79  200 1    
   157   80   81 1    
   158   80   82 1    
   159   80  201 1    
   160   81  202 1    
   161   81  203 1    
   162   81  204 1    
   163   82   83 2    
   164   82   84 am   BACKBONE|DICT|INTERRES
   165   84   85 1    
   166   84  205 1    
   167   85   86 1    
   168   85   87 1    
   169   85  206 1    
   170   86  207 1    
   171   86  208 1    
   172   86  209 1    
   173   87   88 2    
   174   87   89 am   BACKBONE|DICT|INTERRES
   175   89   90 1    
   176   89  210 1    
   177   90   91 1    
   178   90   92 1    
   179   90  211 1    
   180   91  212 1    
   181   91  213 1    
   182   91  214 1    
   183   92   93 2    
   184   92   94 am   BACKBONE|DICT|INTERRES
   185   94   95 1    
   186   94  215 1    
   187   95   96 1    
   188   95   97 1    
   189   95  216 1    
   190   96  217 1    
   191   96  218 1    
   192   96  219 1    
   193   97   98 2    
   194   97   99 am   BACKBONE|DICT|INTERRES
   195   99  100 1    
   196   99  220 1    
   197  100  101 1    
   198  100  102 1    
   199  100  221 1    
   200  101  222 1    
   201  101  223 1    
   202  101  224 1    
   203  102  103 2    
   204  102  104 am   BACKBONE|DICT|INTERRES
   205  104  105 1    
   206  104  225 1    
   207  105  106 1    
   208  105  107 1    
   209  105  226 1    
   210  106  227 1    
   211  106  228 1    
   212  106  229 1    
   213  107  108 2    
   214  107  109 am   BACKBONE|DICT|INTERRES
   215  109  110 1    
   216  109  230 1    
   217  110  111 1    
   218  110  112 1    
   219  110  231 1    
   220  111  232 1    
   221  111  233 1    
   222  111  234 1    
   223  112  113 2    
   224  112  114 am   BACKBONE|DICT|INTERRES
   225  114  115 1    
   226  114  235 1    
   227  115  116 1    
   228  115  117 1    
   229  115  236 1    
   230  116  237 1    
   231  116  238 1    
   232  116  239 1    
   233  117  118 2    
   234  117  119 am   BACKBONE|DICT|INTERRES
   235  119  120 1    
   236  119  240 1    
   237  120  121 1    
   238  120  124 1    
   239  120  241 1    
   240  121  122 am   BACKBONE|DICT|INTERRES
   241  121  123 2    
   242  122  242 1    
   243  122  243 1    
   244  124  125 1    
   245  124  244 1    
   246  124  245 1    
   247  125  126 1    
   248  126  246 1    
   249  126  247 1    
@<TRIPOS>SUBSTRUCTURE
     1 UNK         1 GROUP             0       ****    0 ROOT    
