@<TRIPOS>MOLECULE
3R540
247   249    1
SMALL
USER_CHARGES


@<TRIPOS>ATOM
      1 CA          3.7487  -12.9058  -50.0638 C.3       0 UNK        -0.1800 
      2 C           2.8398  -12.0703  -49.1742 C.2       0 UNK         0.5000 
      3 O           2.8892  -10.8414  -49.2307 O.2       0 UNK        -0.5000 
      4 N           2.0117  -12.7378  -48.3617 N.am      1 UNK        -0.5000 
      5 CA          1.0129  -12.1621  -47.4529 C.3       1 UNK         0.1400 
      6 C6         -0.1786  -11.4826  -48.1853 C.3       23 UNK        -0.0398 
      7 S7         -1.0472  -12.6341  -49.3064 S.3       23 UNK        -0.2404 
      8 C8         -2.2980  -13.3405  -48.1783 C.3       23 UNK        -0.0205 
      9 C9         -2.7289  -14.7629  -48.5349 C.ar      23 UNK        -0.0193 
     10 C10        -4.0523  -15.1582  -48.3095 C.ar      23 UNK        -0.1150 
     11 C11        -4.4599  -16.4712  -48.5656 C.ar      23 UNK        -0.0193 
     12 C12        -3.5299  -17.3940  -49.0495 C.ar      23 UNK        -0.1150 
     13 C13        -2.2100  -17.0151  -49.2964 C.ar      23 UNK        -0.0193 
     14 C14        -1.8150  -15.7023  -49.0310 C.ar      23 UNK        -0.1150 
     15 C15        -1.2219  -18.0156  -49.8780 C.3       23 UNK        -0.0205 
     16 S16        -0.3639  -18.9826  -48.6021 S.3       23 UNK        -0.2404 
     17 C17        -1.7103  -20.0497  -47.9805 C.3       23 UNK        -0.0398 
     18 CA         -1.1774  -21.2120  -47.1126 C.3       11 UNK         0.1400 
     19 N          -0.4137  -20.7271  -45.9575 N.am      11 UNK        -0.5000 
     20 C           0.4290  -21.4542  -45.2126 C.2       10 UNK         0.5000 
     21 O           0.6360  -22.6551  -45.3905 O.2       10 UNK        -0.5000 
     22 CA          1.1202  -20.7169  -44.0546 C.3       10 UNK         0.1400 
     23 CB          2.3283  -19.9172  -44.5687 C.3       10 UNK        -0.1800 
     24 N           0.1908  -19.8085  -43.3821 N.am      10 UNK        -0.5000 
     25 C          -0.6211  -20.1541  -42.3744 C.2       9 UNK         0.5000 
     26 O          -0.6411  -21.2764  -41.8687 O.2       9 UNK        -0.5000 
     27 CA         -1.5776  -19.0674  -41.8410 C.3       9 UNK         0.1400 
     28 CB         -0.8737  -18.2201  -40.7696 C.3       9 UNK        -0.1800 
     29 N          -2.0930  -18.1805  -42.8860 N.am      9 UNK        -0.5000 
     30 C          -2.9271  -18.5538  -43.8672 C.2       8 UNK         0.5000 
     31 O          -3.4061  -19.6820  -43.9612 O.2       8 UNK        -0.5000 
     32 CA         -3.2569  -17.5042  -44.9508 C.3       8 UNK         0.1400 
     33 CB         -4.5506  -16.7579  -44.5940 C.3       8 UNK        -0.1800 
     34 N          -2.2003  -16.5200  -45.2170 N.am      8 UNK        -0.5000 
     35 C          -0.9193  -16.7971  -45.4953 C.2       7 UNK         0.5000 
     36 O          -0.4500  -17.9364  -45.4697 O.2       7 UNK        -0.5000 
     37 CA         -0.0097  -15.6006  -45.8100 C.3       7 UNK         0.1400 
     38 CB         -0.0223  -14.5751  -44.6619 C.3       7 UNK        -0.1800 
     39 N           1.3559  -16.0750  -46.0030 N.am      7 UNK        -0.5000 
     40 C           2.0287  -16.0747  -47.1602 C.2       6 UNK         0.5000 
     41 O           1.6090  -15.5580  -48.1964 O.2       6 UNK        -0.5000 
     42 CA          3.4257  -16.7352  -47.1427 C.3       6 UNK         0.1400 
     43 CB          4.3434  -16.2293  -48.2751 C.3       6 UNK        -0.1800 
     44 N           4.1002  -16.6203  -45.8444 N.am      6 UNK        -0.5000 
     45 C           4.3865  -15.4848  -45.1917 C.2       5 UNK         0.5000 
     46 O           4.1668  -14.3542  -45.6330 O.2       5 UNK        -0.5000 
     47 CA          4.9567  -15.6554  -43.7734 C.3       5 UNK         0.1400 
     48 CB          6.2736  -14.8838  -43.5968 C.3       5 UNK        -0.1800 
     49 N           3.9981  -15.2075  -42.7655 N.am      5 UNK        -0.5000 
     50 C           2.7989  -15.7643  -42.5343 C.2       4 UNK         0.5000 
     51 O           2.3655  -16.7456  -43.1400 O.2       4 UNK        -0.5000 
     52 CA          1.9199  -15.0831  -41.4780 C.3       4 UNK         0.1400 
     53 CB          2.3793  -15.4305  -40.0531 C.3       4 UNK        -0.1800 
     54 N           1.9366  -13.6376  -41.6773 N.am      4 UNK        -0.5000 
     55 C           0.9054  -12.8077  -41.5140 C.2       3 UNK         0.5000 
     56 O          -0.2051  -13.1667  -41.1216 O.2       3 UNK        -0.5000 
     57 CA          1.1427  -11.3238  -41.8612 C.3       3 UNK         0.1400 
     58 CB          1.8037  -10.5836  -40.6831 C.3       3 UNK        -0.1800 
     59 N           1.8717  -11.0801  -43.1167 N.am      3 UNK        -0.5000 
     60 C           3.1400  -11.3674  -43.4451 C.2       2 UNK         0.5000 
     61 O           3.9182  -11.9856  -42.7148 O.2       2 UNK        -0.5000 
     62 CA          3.5821  -10.9076  -44.8477 C.3       2 UNK         0.1400 
     63 CB          5.0921  -11.0713  -45.0932 C.3       2 UNK        -0.1800 
     64 N           2.8445  -11.6269  -45.8863 N.am      2 UNK        -0.5000 
     65 C           1.6343  -11.2775  -46.3465 C.2       1 UNK         0.5000 
     66 O           1.0077  -10.3123  -45.9039 O.2       1 UNK        -0.5000 
     67 C          -2.3111  -22.1885  -46.7249 C.2       11 UNK         0.5000 
     68 O          -2.8700  -22.8366  -47.6085 O.2       11 UNK        -0.5000 
     69 N          -2.5917  -22.3368  -45.4207 N.am      12 UNK        -0.5000 
     70 CA         -3.5101  -23.3151  -44.8276 C.3       12 UNK         0.1400 
     71 CB         -3.5120  -23.1326  -43.3019 C.3       12 UNK        -0.1800 
     72 C          -3.2003  -24.7858  -45.1834 C.2       12 UNK         0.5000 
     73 O          -4.0878  -25.6328  -45.0690 O.2       12 UNK        -0.5000 
     74 N          -1.9692  -25.0630  -45.6369 N.am      13 UNK        -0.5000 
     75 CA         -1.5271  -26.3169  -46.2443 C.3       13 UNK         0.1400 
     76 CB          0.0084  -26.2928  -46.3413 C.3       13 UNK        -0.1800 
     77 C          -2.1970  -26.5588  -47.6168 C.2       13 UNK         0.5000 
     78 O          -1.5484  -26.4387  -48.6588 O.2       13 UNK        -0.5000 
     79 N          -3.4985  -26.8756  -47.5813 N.am      14 UNK        -0.5000 
     80 CA         -4.3689  -27.2344  -48.7050 C.3       14 UNK         0.1400 
     81 CB         -3.9658  -28.6138  -49.2681 C.3       14 UNK        -0.1800 
     82 C          -4.4471  -26.1452  -49.7943 C.2       14 UNK         0.5000 
     83 O          -4.3540  -26.4602  -50.9796 O.2       14 UNK        -0.5000 
     84 N          -4.5945  -24.8801  -49.3744 N.am      15 UNK        -0.5000 
     85 CA         -4.6382  -23.6787  -50.2206 C.3       15 UNK         0.1400 
     86 CB         -5.9017  -23.6712  -51.1051 C.3       15 UNK        -0.1800 
     87 C          -3.3333  -23.4774  -51.0202 C.2       15 UNK         0.5000 
     88 O          -3.3667  -23.2210  -52.2281 O.2       15 UNK        -0.5000 
     89 N          -2.2098  -23.6452  -50.3077 N.am      16 UNK        -0.5000 
     90 CA         -0.8275  -23.6869  -50.7884 C.3       16 UNK         0.1400 
     91 CB         -0.3849  -22.2972  -51.2881 C.3       16 UNK        -0.1800 
     92 C          -0.6306  -24.7980  -51.8385 C.2       16 UNK         0.5000 
     93 O          -0.1749  -24.5253  -52.9488 O.2       16 UNK        -0.5000 
     94 N          -1.0406  -26.0253  -51.4834 N.am      17 UNK        -0.5000 
     95 CA         -1.0921  -27.2164  -52.3435 C.3       17 UNK         0.1400 
     96 CB          0.3316  -27.7371  -52.6276 C.3       17 UNK        -0.1800 
     97 C          -1.9199  -26.9827  -53.6289 C.2       17 UNK         0.5000 
     98 O          -1.5008  -27.3600  -54.7245 O.2       17 UNK        -0.5000 
     99 N          -3.0687  -26.3168  -53.4523 N.am      18 UNK        -0.5000 
    100 CA        -4.0399  -25.8574  -54.4472 C.3       18 UNK         0.1400 
    101 CB        -4.6688  -27.0551  -55.1879 C.3       18 UNK        -0.1800 
    102 C         -3.5242  -24.7757  -55.4218 C.2       18 UNK         0.5000 
    103 O         -4.2503  -24.4277  -56.3547 O.2       18 UNK        -0.5000 
    104 N         -2.3100  -24.2459  -55.2117 N.am      19 UNK        -0.5000 
    105 CA        -1.6954  -23.2562  -56.0970 C.3       19 UNK         0.1400 
    106 CB        -0.1702  -23.2707  -55.9160 C.3       19 UNK        -0.1800 
    107 C         -2.2444  -21.8359  -55.8835 C.2       19 UNK         0.5000 
    108 O         -2.3211  -21.0757  -56.8500 O.2       19 UNK        -0.5000 
    109 N         -2.6020  -21.4918  -54.6378 N.am      20 UNK        -0.5000 
    110 CA        -3.0998  -20.1599  -54.2877 C.3       20 UNK         0.1400 
    111 CB        -2.6928  -19.8155  -52.8484 C.3       20 UNK        -0.1800 
    112 C         -4.6221  -20.0420  -54.4447 C.2       20 UNK         0.5000 
    113 O         -5.1099  -18.9527  -54.7470 O.2       20 UNK        -0.5000 
    114 N         -5.3399  -21.1511  -54.2030 N.am      21 UNK        -0.5000 
    115 CA        -6.8069  -21.2564  -54.1685 C.3       21 UNK         0.1400 
    116 CB        -7.4064  -21.0428  -55.5738 C.3       21 UNK        -0.1800 
    117 C         -7.4561  -20.3539  -53.0902 C.2       21 UNK         0.5000 
    118 O         -8.5950  -19.9120  -53.2484 O.2       21 UNK        -0.5000 
    119 N         -6.7082  -20.1050  -52.0109 N.am      22 UNK        -0.5000 
    120 CA        -7.0764  -19.3006  -50.8466 C.3       22 UNK         0.1400 
    121 C         -6.6344  -20.0816  -49.5859 C.2       22 UNK         0.5000 
    122 N         -7.5402  -20.3632  -48.6606 N.am      22 UNK        -0.7600 
    123 O         -5.4622  -20.4150  -49.4350 O.2       22 UNK        -0.5000 
    124 C124       -6.4163  -17.8991  -50.9321 C.3       23 UNK        -0.0398 
    125 S125       -7.0198  -16.6919  -49.6964 S.3       23 UNK        -0.2404 
    126 C126       -5.8897  -16.9079  -48.2764 C.3       23 UNK        -0.0205 
    127 H127        3.7524  -12.5090  -51.0791 H         1 UNK         0.0600 
    128 H128        3.4187  -13.9440  -50.1105 H         1 UNK         0.0600 
    129 H129        4.7698  -12.8851  -49.6829 H         1 UNK         0.0600 
    130 H130        2.0025  -13.7553  -48.3951 H         1 UNK         0.3000 
    131 H131        0.6020  -13.0141  -46.9177 H         1 UNK         0.0600 
    132 H132        0.1695  -10.6287  -48.7681 H         1 UNK         0.0800 
    133 H133       -0.9045  -11.0850  -47.4738 H         1 UNK         0.0800 
    134 H134       -1.9121  -13.3511  -47.1593 H         1 UNK         0.0800 
    135 H135       -3.1616  -12.6735  -48.1719 H         1 UNK         0.0800 
    136 H136       -4.7662  -14.4473  -47.9175 H         1 UNK         0.1150 
    137 H137       -3.8332  -18.4131  -49.2385 H         1 UNK         0.1150 
    138 H138       -0.7877  -15.4183  -49.2077 H         1 UNK         0.1150 
    139 H139       -1.7347  -18.6975  -50.5532 H         1 UNK         0.0800 
    140 H140       -0.4772  -17.4922  -50.4796 H         1 UNK         0.0800 
    141 H141       -2.2670  -20.4361  -48.8369 H         1 UNK         0.0800 
    142 H142       -2.4057  -19.4384  -47.4065 H         1 UNK         0.0800 
    143 H143       -0.4886  -21.7901  -47.7325 H         1 UNK         0.0600 
    144 H144       -0.4854  -19.7289  -45.7680 H         1 UNK         0.3000 
    145 H145        1.4841  -21.4628  -43.3448 H         1 UNK         0.0600 
    146 H146        2.8562  -19.4338  -43.7467 H         1 UNK         0.0600 
    147 H147        3.0412  -20.5686  -45.0758 H         1 UNK         0.0600 
    148 H148        2.0299  -19.1421  -45.2755 H         1 UNK         0.0600 
    149 H149        0.0924  -18.8881  -43.7960 H         1 UNK         0.3000 
    150 H150       -2.4280  -19.5712  -41.3766 H         1 UNK         0.0600 
    151 H151       -0.5211  -18.8452  -39.9482 H         1 UNK         0.0600 
    152 H152       -1.5482  -17.4764  -40.3448 H         1 UNK         0.0600 
    153 H153       -0.0076  -17.6971  -41.1767 H         1 UNK         0.0600 
    154 H154       -1.7483  -17.2327  -42.8895 H         1 UNK         0.3000 
    155 H155       -3.4304  -18.0452  -45.8817 H         1 UNK         0.0600 
    156 H156       -5.3764  -17.4554  -44.4465 H         1 UNK         0.0600 
    157 H157       -4.8447  -16.0724  -45.3885 H         1 UNK         0.0600 
    158 H158       -4.4402  -16.1795  -43.6760 H         1 UNK         0.0600 
    159 H159       -2.5010  -15.5573  -45.2425 H         1 UNK         0.3000 
    160 H160       -0.3773  -15.1283  -46.7192 H         1 UNK         0.0600 
    161 H161        0.0126  -15.0646  -43.6902 H         1 UNK         0.0600 
    162 H162       -0.9278  -13.9682  -44.6854 H         1 UNK         0.0600 
    163 H163        0.8272  -13.8941  -44.7159 H         1 UNK         0.0600 
    164 H164        1.7692  -16.5394  -45.2023 H         1 UNK         0.3000 
    165 H165        3.2530  -17.7996  -47.3083 H         1 UNK         0.0600 
    166 H166        4.5334  -15.1591  -48.1934 H         1 UNK         0.0600 
    167 H167        5.3055  -16.7410  -48.2593 H         1 UNK         0.0600 
    168 H168        3.8978  -16.4110  -49.2539 H         1 UNK         0.0600 
    169 H169        4.2866  -17.4955  -45.3755 H         1 UNK         0.3000 
    170 H170        5.1622  -16.7136  -43.5979 H         1 UNK         0.0600 
    171 H171        6.9948  -15.1573  -44.3680 H         1 UNK         0.0600 
    172 H172        6.1214  -13.8061  -43.6542 H         1 UNK         0.0600 
    173 H173        6.7304  -15.1033  -42.6316 H         1 UNK         0.0600 
    174 H174        4.2628  -14.3795  -42.2522 H         1 UNK         0.3000 
    175 H175        0.9038  -15.4593  -41.6070 H         1 UNK         0.0600 
    176 H176        3.3840  -15.0580  -39.8500 H         1 UNK         0.0600 
    177 H177        1.7073  -15.0021  -39.3093 H         1 UNK         0.0600 
    178 H178        2.3890  -16.5104  -39.8990 H         1 UNK         0.0600 
    179 H179        2.7931  -13.2268  -42.0423 H         1 UNK         0.3000 
    180 H180        0.1562  -10.8812  -42.0090 H         1 UNK         0.0600 
    181 H181        2.7991  -10.9711  -40.4636 H         1 UNK         0.0600 
    182 H182        1.2078  -10.6872  -39.7754 H         1 UNK         0.0600 
    183 H183        1.8970   -9.5176  -40.8902 H         1 UNK         0.0600 
    184 H184        1.3243  -10.6248  -43.8397 H         1 UNK         0.3000 
    185 H185        3.3622   -9.8402  -44.9204 H         1 UNK         0.0600 
    186 H186        5.3966  -12.1163  -45.0787 H         1 UNK         0.0600 
    187 H187        5.3781  -10.6568  -46.0600 H         1 UNK         0.0600 
    188 H188        5.6716  -10.5490  -44.3310 H         1 UNK         0.0600 
    189 H189        3.2731  -12.4848  -46.2177 H         1 UNK         0.3000 
    190 H190       -2.1158  -21.7282  -44.7699 H         1 UNK         0.3000 
    191 H191       -4.5105  -23.0949  -45.2047 H         1 UNK         0.0600 
    192 H192       -2.5180  -23.2843  -42.8789 H         1 UNK         0.0600 
    193 H193       -3.8463  -22.1343  -43.0212 H         1 UNK         0.0600 
    194 H194       -4.1860  -23.8430  -42.8212 H         1 UNK         0.0600 
    195 H195       -1.3096  -24.2983  -45.6819 H         1 UNK         0.3000 
    196 H196       -1.8101  -27.1410  -45.5864 H         1 UNK         0.0600 
    197 H197        0.4639  -26.1967  -45.3555 H         1 UNK         0.0600 
    198 H198        0.3609  -25.4614  -46.9536 H         1 UNK         0.0600 
    199 H199        0.3873  -27.2139  -46.7861 H         1 UNK         0.0600 
    200 H200       -3.9482  -26.8387  -46.6715 H         1 UNK         0.3000 
    201 H201       -5.3767  -27.3266  -48.2978 H         1 UNK         0.0600 
    202 H202       -4.6660  -28.9447  -50.0360 H         1 UNK         0.0600 
    203 H203       -3.9630  -29.3726  -48.4857 H         1 UNK         0.0600 
    204 H204       -2.9725  -28.5931  -49.7173 H         1 UNK         0.0600 
    205 H205       -4.6041  -24.7073  -48.3788 H         1 UNK         0.3000 
    206 H206       -4.7093  -22.8335  -49.5384 H         1 UNK         0.0600 
    207 H207       -6.8047  -23.7572  -50.5010 H         1 UNK         0.0600 
    208 H208       -5.9025  -24.4843  -51.8305 H         1 UNK         0.0600 
    209 H209       -5.9736  -22.7398  -51.6616 H         1 UNK         0.0600 
    210 H210       -2.3308  -23.8083  -49.3139 H         1 UNK         0.3000 
    211 H211       -0.2068  -23.9487  -49.9302 H         1 UNK         0.0600 
    212 H212       -0.5717  -21.5268  -50.5404 H         1 UNK         0.0600 
    213 H213        0.6828  -22.2863  -51.5088 H         1 UNK         0.0600 
    214 H214       -0.9067  -22.0144  -52.2013 H         1 UNK         0.0600 
    215 H215       -1.3826  -26.1536  -50.5333 H         1 UNK         0.3000 
    216 H216       -1.6194  -27.9836  -51.7752 H         1 UNK         0.0600 
    217 H217        0.3008  -28.6827  -53.1702 H         1 UNK         0.0600 
    218 H218        0.9080  -27.0331  -53.2287 H         1 UNK         0.0600 
    219 H219        0.8781  -27.9129  -51.7010 H         1 UNK         0.0600 
    220 H220       -3.3411  -26.1193  -52.4916 H         1 UNK         0.3000 
    221 H221       -4.8329  -25.3771  -53.8731 H         1 UNK         0.0600 
    222 H222       -3.9491  -27.5531  -55.8380 H         1 UNK         0.0600 
    223 H223       -5.0552  -27.7934  -54.4850 H         1 UNK         0.0600 
    224 H224       -5.5047  -26.7365  -55.8117 H         1 UNK         0.0600 
    225 H225       -1.7632  -24.5499  -54.4140 H         1 UNK         0.3000 
    226 H226       -1.9055  -23.5428  -57.1299 H         1 UNK         0.0600 
    227 H227        0.2326  -24.2792  -56.0131 H         1 UNK         0.0600 
    228 H228        0.3148  -22.6508  -56.6709 H         1 UNK         0.0600 
    229 H229        0.1245  -22.8817  -54.9411 H         1 UNK         0.0600 
    230 H230       -2.5557  -22.1817  -53.8953 H         1 UNK         0.3000 
    231 H231       -2.6429  -19.4141  -54.9421 H         1 UNK         0.0600 
    232 H232       -3.0671  -18.8303  -52.5665 H         1 UNK         0.0600 
    233 H233       -1.6081  -19.7897  -52.7466 H         1 UNK         0.0600 
    234 H234       -3.0853  -20.5321  -52.1268 H         1 UNK         0.0600 
    235 H235       -4.8301  -21.9897  -53.9594 H         1 UNK         0.3000 
    236 H236       -7.0300  -22.2829  -53.8748 H         1 UNK         0.0600 
    237 H237       -6.9300  -21.6933  -56.3074 H         1 UNK         0.0600 
    238 H238       -8.4726  -21.2716  -55.5831 H         1 UNK         0.0600 
    239 H239       -7.2912  -20.0131  -55.9130 H         1 UNK         0.0600 
    240 H240       -5.7975  -20.5363  -51.9472 H         1 UNK         0.3000 
    241 H241       -8.1607  -19.1765  -50.8189 H         1 UNK         0.0600 
    242 H242       -7.2532  -20.8660  -47.8364 H         1 UNK         0.3800 
    243 H243       -8.5052  -20.0900  -48.7622 H         1 UNK         0.3800 
    244 H244       -5.3310  -17.9719  -50.9085 H         1 UNK         0.0800 
    245 H245       -6.6433  -17.4675  -51.9079 H         1 UNK         0.0800 
    246 H246       -5.9019  -17.9425  -47.9351 H         1 UNK         0.0800 
    247 H247       -6.2825  -16.3245  -47.4427 H         1 UNK         0.0800 
@<TRIPOS>BOND
     1    1    2 1    
     2    1  127 1    
     3    1  128 1    
     4    1  129 1    
     5    2    3 2    
     6    2    4 am   BACKBONE|DICT|INTERRES
     7    4    5 1    
     8    4  130 1    
     9    5    6 1    
    10    5   65 1    
    11    5  131 1    
    12    6    7 1    
    13    6  132 1    
    14    6  133 1    
    15    7    8 1    
    16    8    9 1    
    17    8  134 1    
    18    8  135 1    
    19    9   10 ar   
    20    9   14 ar   
    21   10   11 ar   
    22   10  136 1    
    23   11   12 ar   
    24   11  126 1    
    25   12   13 ar   
    26   12  137 1    
    27   13   14 ar   
    28   13   15 1    
    29   14  138 1    
    30   15   16 1    
    31   15  139 1    
    32   15  140 1    
    33   16   17 1    
    34   17   18 1    
    35   17  141 1    
    36   17  142 1    
    37   18   19 1    
    38   18   67 1    
    39   18  143 1    
    40   19   20 am   BACKBONE|DICT|INTERRES
    41   19  144 1    
    42   20   21 2    
    43   20   22 1    
    44   22   23 1    
    45   22   24 1    
    46   22  145 1    
    47   23  146 1    
    48   23  147 1    
    49   23  148 1    
    50   24   25 am   BACKBONE|DICT|INTERRES
    51   24  149 1    
    52   25   26 2    
    53   25   27 1    
    54   27   28 1    
    55   27   29 1    
    56   27  150 1    
    57   28  151 1    
    58   28  152 1    
    59   28  153 1    
    60   29   30 am   BACKBONE|DICT|INTERRES
    61   29  154 1    
    62   30   31 2    
    63   30   32 1    
    64   32   33 1    
    65   32   34 1    
    66   32  155 1    
    67   33  156 1    
    68   33  157 1    
    69   33  158 1    
    70   34   35 am   BACKBONE|DICT|INTERRES
    71   34  159 1    
    72   35   36 2    
    73   35   37 1    
    74   37   38 1    
    75   37   39 1    
    76   37  160 1    
    77   38  161 1    
    78   38  162 1    
    79   38  163 1    
    80   39   40 am   BACKBONE|DICT|INTERRES
    81   39  164 1    
    82   40   41 2    
    83   40   42 1    
    84   42   43 1    
    85   42   44 1    
    86   42  165 1    
    87   43  166 1    
    88   43  167 1    
    89   43  168 1    
    90   44   45 am   BACKBONE|DICT|INTERRES
    91   44  169 1    
    92   45   46 2    
    93   45   47 1    
    94   47   48 1    
    95   47   49 1    
    96   47  170 1    
    97   48  171 1    
    98   48  172 1    
    99   48  173 1    
   100   49   50 am   BACKBONE|DICT|INTERRES
   101   49  174 1    
   102   50   51 2    
   103   50   52 1    
   104   52   53 1    
   105   52   54 1    
   106   52  175 1    
   107   53  176 1    
   108   53  177 1    
   109   53  178 1    
   110   54   55 am   BACKBONE|DICT|INTERRES
   111   54  179 1    
   112   55   56 2    
   113   55   57 1    
   114   57   58 1    
   115   57   59 1    
   116   57  180 1    
   117   58  181 1    
   118   58  182 1    
   119   58  183 1    
   120   59   60 am   BACKBONE|DICT|INTERRES
   121   59  184 1    
   122   60   61 2    
   123   60   62 1    
   124   62   63 1    
   125   62   64 1    
   126   62  185 1    
   127   63  186 1    
   128   63  187 1    
   129   63  188 1    
   130   64   65 am   BACKBONE|DICT|INTERRES
   131   64  189 1    
   132   65   66 2    
   133   67   68 2    
   134   67   69 am   BACKBONE|DICT|INTERRES
   135   69   70 1    
   136   69  190 1    
   137   70   71 1    
   138   70   72 1    
   139   70  191 1    
   140   71  192 1    
   141   71  193 1    
   142   71  194 1    
   143   72   73 2    
   144   72   74 am   BACKBONE|DICT|INTERRES
   145   74   75 1    
   146   74  195 1    
   147   75   76 1    
   148   75   77 1    
   149   75  196 1    
   150   76  197 1    
   151   76  198 1    
   152   76  199 1    
   153   77   78 2    
   154   77   79 am   BACKBONE|DICT|INTERRES
   155   79   80 1    
   156   79  200 1    
   157   80   81 1    
   158   80   82 1    
   159   80  201 1    
   160   81  202 1    
   161   81  203 1    
   162   81  204 1    
   163   82   83 2    
   164   82   84 am   BACKBONE|DICT|INTERRES
   165   84   85 1    
   166   84  205 1    
   167   85   86 1    
   168   85   87 1    
   169   85  206 1    
   170   86  207 1    
   171   86  208 1    
   172   86  209 1    
   173   87   88 2    
   174   87   89 am   BACKBONE|DICT|INTERRES
   175   89   90 1    
   176   89  210 1    
   177   90   91 1    
   178   90   92 1    
   179   90  211 1    
   180   91  212 1    
   181   91  213 1    
   182   91  214 1    
   183   92   93 2    
   184   92   94 am   BACKBONE|DICT|INTERRES
   185   94   95 1    
   186   94  215 1    
   187   95   96 1    
   188   95   97 1    
   189   95  216 1    
   190   96  217 1    
   191   96  218 1    
   192   96  219 1    
   193   97   98 2    
   194   97   99 am   BACKBONE|DICT|INTERRES
   195   99  100 1    
   196   99  220 1    
   197  100  101 1    
   198  100  102 1    
   199  100  221 1    
   200  101  222 1    
   201  101  223 1    
   202  101  224 1    
   203  102  103 2    
   204  102  104 am   BACKBONE|DICT|INTERRES
   205  104  105 1    
   206  104  225 1    
   207  105  106 1    
   208  105  107 1    
   209  105  226 1    
   210  106  227 1    
   211  106  228 1    
   212  106  229 1    
   213  107  108 2    
   214  107  109 am   BACKBONE|DICT|INTERRES
   215  109  110 1    
   216  109  230 1    
   217  110  111 1    
   218  110  112 1    
   219  110  231 1    
   220  111  232 1    
   221  111  233 1    
   222  111  234 1    
   223  112  113 2    
   224  112  114 am   BACKBONE|DICT|INTERRES
   225  114  115 1    
   226  114  235 1    
   227  115  116 1    
   228  115  117 1    
   229  115  236 1    
   230  116  237 1    
   231  116  238 1    
   232  116  239 1    
   233  117  118 2    
   234  117  119 am   BACKBONE|DICT|INTERRES
   235  119  120 1    
   236  119  240 1    
   237  120  121 1    
   238  120  124 1    
   239  120  241 1    
   240  121  122 am   BACKBONE|DICT|INTERRES
   241  121  123 2    
   242  122  242 1    
   243  122  243 1    
   244  124  125 1    
   245  124  244 1    
   246  124  245 1    
   247  125  126 1    
   248  126  246 1    
   249  126  247 1    
@<TRIPOS>SUBSTRUCTURE
     1 UNK         1 GROUP             0       ****    0 ROOT    
