@<TRIPOS>MOLECULE
3R540
247   249    1
SMALL
USER_CHARGES


@<TRIPOS>ATOM
      1 CA         -4.7933  -17.7883  -43.9923 C.3       0 UNK        -0.1800 
      2 C          -4.6237  -16.4709  -44.7360 C.2       0 UNK         0.5000 
      3 O          -5.1939  -15.4635  -44.3179 O.2       0 UNK        -0.5000 
      4 N          -3.8525  -16.4681  -45.8337 N.am      1 UNK        -0.5000 
      5 CA         -3.5888  -15.2778  -46.6558 C.3       1 UNK         0.1400 
      6 C6         -3.0218  -15.6397  -48.0520 C.3       23 UNK        -0.0398 
      7 S7         -1.4050  -16.4919  -48.0201 S.3       23 UNK        -0.2404 
      8 C8         -1.4410  -17.3255  -49.6347 C.3       23 UNK        -0.0205 
      9 C9         -0.1142  -17.9957  -49.9554 C.ar      23 UNK        -0.0193 
     10 C10         0.9564  -17.2253  -50.4130 C.ar      23 UNK        -0.1150 
     11 C11         2.1585  -17.8292  -50.7907 C.ar      23 UNK        -0.0193 
     12 C12         2.2931  -19.2166  -50.6851 C.ar      23 UNK        -0.1150 
     13 C13         1.2353  -19.9996  -50.2129 C.ar      23 UNK        -0.0193 
     14 C14         0.0343  -19.3817  -49.8456 C.ar      23 UNK        -0.1150 
     15 C15         1.3658  -21.5174  -50.1629 C.3       23 UNK        -0.0205 
     16 S16         2.5811  -22.1083  -48.9399 S.3       23 UNK        -0.2404 
     17 C17         1.9201  -21.4499  -47.3756 C.3       23 UNK        -0.0398 
     18 CA          0.9931  -22.4352  -46.6230 C.3       11 UNK         0.1400 
     19 N           0.9375  -22.1420  -45.1878 N.am      11 UNK        -0.5000 
     20 C           0.2944  -22.8803  -44.2717 C.2       10 UNK         0.5000 
     21 O          -0.2690  -23.9450  -44.5253 O.2       10 UNK        -0.5000 
     22 CA          0.2276  -22.3087  -42.8425 C.3       10 UNK         0.1400 
     23 CB          1.5074  -22.6389  -42.0605 C.3       10 UNK        -0.1800 
     24 N           0.0018  -20.8619  -42.8266 N.am      10 UNK        -0.5000 
     25 C          -1.1152  -20.2632  -43.2664 C.2       9 UNK         0.5000 
     26 O          -2.1067  -20.8749  -43.6640 O.2       9 UNK        -0.5000 
     27 CA         -1.0933  -18.7231  -43.3424 C.3       9 UNK         0.1400 
     28 CB         -1.3634  -18.0890  -41.9714 C.3       9 UNK        -0.1800 
     29 N           0.1643  -18.2117  -43.8915 N.am      9 UNK        -0.5000 
     30 C           0.5869  -18.4718  -45.1369 C.2       8 UNK         0.5000 
     31 O          -0.0802  -19.0913  -45.9614 O.2       8 UNK        -0.5000 
     32 CA          2.0009  -18.0109  -45.5161 C.3       8 UNK         0.1400 
     33 CB          1.9711  -16.5918  -46.0801 C.3       8 UNK        -0.1800 
     34 N           2.9281  -18.0787  -44.3881 N.am      8 UNK        -0.5000 
     35 C           3.4331  -19.2242  -43.9114 C.2       7 UNK         0.5000 
     36 O           3.1823  -20.3307  -44.3878 O.2       7 UNK        -0.5000 
     37 CA          4.3242  -19.1179  -42.6620 C.3       7 UNK         0.1400 
     38 CB          5.7446  -18.6736  -43.0411 C.3       7 UNK        -0.1800 
     39 N           3.7729  -18.2007  -41.6646 N.am      7 UNK        -0.5000 
     40 C           2.6201  -18.4033  -41.0112 C.2       6 UNK         0.5000 
     41 O           1.9189  -19.4041  -41.1596 O.2       6 UNK        -0.5000 
     42 CA          2.1454  -17.2873  -40.0621 C.3       6 UNK         0.1400 
     43 CB          2.6602  -17.5428  -38.6380 C.3       6 UNK        -0.1800 
     44 N           2.5255  -15.9333  -40.4738 N.am      6 UNK        -0.5000 
     45 C           2.2185  -15.3500  -41.6407 C.2       5 UNK         0.5000 
     46 O           1.6228  -15.9281  -42.5540 O.2       5 UNK        -0.5000 
     47 CA          2.6336  -13.8725  -41.8206 C.3       5 UNK         0.1400 
     48 CB          3.6257  -13.3576  -40.7531 C.3       5 UNK        -0.1800 
     49 N           3.1439  -13.5949  -43.1654 N.am      5 UNK        -0.5000 
     50 C           4.1988  -14.1669  -43.7666 C.2       4 UNK         0.5000 
     51 O           4.8940  -15.0420  -43.2479 O.2       4 UNK        -0.5000 
     52 CA          4.4797  -13.7006  -45.2066 C.3       4 UNK         0.1400 
     53 CB          5.4890  -14.5943  -45.9517 C.3       4 UNK        -0.1800 
     54 N           3.2147  -13.6678  -45.9324 N.am      4 UNK        -0.5000 
     55 C           2.7927  -12.7145  -46.7671 C.2       3 UNK         0.5000 
     56 O           3.4821  -11.7617  -47.1318 O.2       3 UNK        -0.5000 
     57 CA          1.3312  -12.8375  -47.2505 C.3       3 UNK         0.1400 
     58 CB          1.2736  -13.5760  -48.5978 C.3       3 UNK        -0.1800 
     59 N           0.4301  -13.5132  -46.3054 N.am      3 UNK        -0.5000 
     60 C           0.1697  -13.1272  -45.0455 C.2       2 UNK         0.5000 
     61 O           0.7310  -12.1760  -44.4994 O.2       2 UNK        -0.5000 
     62 CA         -0.8496  -13.9707  -44.2463 C.3       2 UNK         0.1400 
     63 CB         -1.5942  -13.1482  -43.1756 C.3       2 UNK        -0.1800 
     64 N          -1.7968  -14.7248  -45.0735 N.am      2 UNK        -0.5000 
     65 C          -2.7031  -14.2366  -45.9357 C.2       1 UNK         0.5000 
     66 O          -2.8555  -13.0387  -46.1772 O.2       1 UNK        -0.5000 
     67 C          -0.4171  -22.4709  -47.2465 C.2       11 UNK         0.5000 
     68 O          -0.7636  -23.4451  -47.9107 O.2       11 UNK        -0.5000 
     69 N          -1.2199  -21.4316  -46.9850 N.am      12 UNK        -0.5000 
     70 CA         -2.6015  -21.2954  -47.4453 C.3       12 UNK         0.1400 
     71 CB         -3.1161  -19.9032  -47.0642 C.3       12 UNK        -0.1800 
     72 C          -3.5436  -22.3850  -46.9036 C.2       12 UNK         0.5000 
     73 O          -4.4580  -22.7955  -47.6163 O.2       12 UNK        -0.5000 
     74 N          -3.2974  -22.8442  -45.6689 N.am      13 UNK        -0.5000 
     75 CA         -4.0154  -23.9572  -45.0480 C.3       13 UNK         0.1400 
     76 CB         -3.7192  -23.9790  -43.5407 C.3       13 UNK        -0.1800 
     77 C          -3.6838  -25.3172  -45.6948 C.2       13 UNK         0.5000 
     78 O          -4.5638  -26.1750  -45.7771 O.2       13 UNK        -0.5000 
     79 N          -2.4317  -25.4923  -46.1400 N.am      14 UNK        -0.5000 
     80 CA         -1.9657  -26.6822  -46.8540 C.3       14 UNK         0.1400 
     81 CB         -0.4364  -26.7766  -46.7343 C.3       14 UNK        -0.1800 
     82 C          -2.4010  -26.6926  -48.3328 C.2       14 UNK         0.5000 
     83 O          -2.7084  -27.7592  -48.8679 O.2       14 UNK        -0.5000 
     84 N          -2.4073  -25.5123  -48.9651 N.am      15 UNK        -0.5000 
     85 CA         -2.8232  -25.2779  -50.3480 C.3       15 UNK         0.1400 
     86 CB         -2.3507  -23.8735  -50.7670 C.3       15 UNK        -0.1800 
     87 C          -4.3434  -25.4346  -50.5677 C.2       15 UNK         0.5000 
     88 O          -5.1123  -25.5941  -49.6161 O.2       15 UNK        -0.5000 
     89 N          -4.7470  -25.3799  -51.8436 N.am      16 UNK        -0.5000 
     90 CA         -6.1409  -25.3976  -52.2886 C.3       16 UNK         0.1400 
     91 CB         -6.1629  -25.5479  -53.8185 C.3       16 UNK        -0.1800 
     92 C          -6.9212  -24.1372  -51.8604 C.2       16 UNK         0.5000 
     93 O          -6.3236  -23.0850  -51.6211 O.2       16 UNK        -0.5000 
     94 N          -8.2517  -24.2715  -51.7967 N.am      17 UNK        -0.5000 
     95 CA         -9.1913  -23.1927  -51.4873 C.3       17 UNK         0.1400 
     96 CB        -10.5813  -23.8068  -51.2536 C.3       17 UNK        -0.1800 
     97 C          -9.2537  -22.1205  -52.5944 C.2       17 UNK         0.5000 
     98 O          -8.9265  -22.4048  -53.7496 O.2       17 UNK        -0.5000 
     99 N          -9.7127  -20.9200  -52.2127 N.am      18 UNK        -0.5000 
    100 CA        -9.7941  -19.7043  -53.0300 C.3       18 UNK         0.1400 
    101 CB       -10.7930  -19.8783  -54.1978 C.3       18 UNK        -0.1800 
    102 C         -8.3909  -19.2145  -53.4505 C.2       18 UNK         0.5000 
    103 O         -7.4796  -19.2268  -52.6197 O.2       18 UNK        -0.5000 
    104 N         -8.2367  -18.7635  -54.7018 N.am      19 UNK        -0.5000 
    105 CA        -6.9582  -18.3472  -55.2746 C.3       19 UNK         0.1400 
    106 CB        -7.2148  -17.5575  -56.5681 C.3       19 UNK        -0.1800 
    107 C         -6.0609  -19.5694  -55.5401 C.2       19 UNK         0.5000 
    108 O         -6.4772  -20.4866  -56.2519 O.2       19 UNK        -0.5000 
    109 N         -4.8517  -19.5539  -54.9748 N.am      20 UNK        -0.5000 
    110 CA        -3.8447  -20.6019  -55.0898 C.3       20 UNK         0.1400 
    111 CB        -4.1883  -21.7696  -54.1437 C.3       20 UNK        -0.1800 
    112 C         -2.4727  -20.0042  -54.7491 C.2       20 UNK         0.5000 
    113 O         -2.4056  -18.9385  -54.1264 O.2       20 UNK        -0.5000 
    114 N         -1.4096  -20.7154  -55.1500 N.am      21 UNK        -0.5000 
    115 CA         0.0022  -20.4091  -54.8993 C.3       21 UNK         0.1400 
    116 CB         0.3400  -20.6772  -53.4194 C.3       21 UNK        -0.1800 
    117 C          0.3890  -18.9975  -55.3896 C.2       21 UNK         0.5000 
    118 O          0.3268  -18.7506  -56.5956 O.2       21 UNK        -0.5000 
    119 N          0.7642  -18.1031  -54.4661 N.am      22 UNK        -0.5000 
    120 CA         1.0872  -16.6949  -54.7485 C.3       22 UNK         0.1400 
    121 C         -0.1477  -15.8056  -55.0883 C.2       22 UNK         0.5000 
    122 N         -1.3815  -16.2658  -54.9113 N.am      22 UNK        -0.7600 
    123 O          0.0190  -14.6710  -55.5277 O.2       22 UNK        -0.5000 
    124 C124        1.9304  -16.0395  -53.6220 C.3       23 UNK        -0.0398 
    125 S125        3.4052  -17.0083  -53.1402 S.3       23 UNK        -0.2404 
    126 C126        3.3082  -16.9843  -51.3188 C.3       23 UNK        -0.0205 
    127 H127       -4.3608  -17.7135  -42.9949 H         1 UNK         0.0600 
    128 H128       -4.3169  -18.6183  -44.5093 H         1 UNK         0.0600 
    129 H129       -5.8522  -18.0238  -43.8864 H         1 UNK         0.0600 
    130 H130       -3.4100  -17.3203  -46.1456 H         1 UNK         0.3000 
    131 H131       -4.5518  -14.7912  -46.8265 H         1 UNK         0.0600 
    132 H132       -3.7408  -16.2736  -48.5729 H         1 UNK         0.0800 
    133 H133       -2.9241  -14.7420  -48.6652 H         1 UNK         0.0800 
    134 H134       -2.2515  -18.0552  -49.6536 H         1 UNK         0.0800 
    135 H135       -1.6699  -16.5948  -50.4121 H         1 UNK         0.0800 
    136 H136        0.8423  -16.1534  -50.4894 H         1 UNK         0.1150 
    137 H137        3.2174  -19.6904  -50.9848 H         1 UNK         0.1150 
    138 H138       -0.7946  -19.9809  -49.4990 H         1 UNK         0.1150 
    139 H139        0.3987  -21.9825  -49.9726 H         1 UNK         0.0800 
    140 H140        1.6780  -21.8764  -51.1436 H         1 UNK         0.0800 
    141 H141        1.4389  -20.4875  -47.5445 H         1 UNK         0.0800 
    142 H142        2.7953  -21.2344  -46.7638 H         1 UNK         0.0800 
    143 H143        1.4160  -23.4382  -46.7126 H         1 UNK         0.0600 
    144 H144        1.4297  -21.3121  -44.8772 H         1 UNK         0.3000 
    145 H145       -0.6133  -22.7848  -42.3340 H         1 UNK         0.0600 
    146 H146        1.4330  -22.3041  -41.0257 H         1 UNK         0.0600 
    147 H147        2.3843  -22.1642  -42.5015 H         1 UNK         0.0600 
    148 H148        1.6884  -23.7143  -42.0431 H         1 UNK         0.0600 
    149 H149        0.7563  -20.2881  -42.4612 H         1 UNK         0.3000 
    150 H150       -1.8920  -18.4146  -44.0185 H         1 UNK         0.0600 
    151 H151       -2.3450  -18.3805  -41.5965 H         1 UNK         0.0600 
    152 H152       -1.3435  -17.0002  -42.0261 H         1 UNK         0.0600 
    153 H153       -0.6290  -18.4041  -41.2317 H         1 UNK         0.0600 
    154 H154        0.7534  -17.6574  -43.2798 H         1 UNK         0.3000 
    155 H155        2.3667  -18.6699  -46.3053 H         1 UNK         0.0600 
    156 H156        1.2786  -16.5210  -46.9182 H         1 UNK         0.0600 
    157 H157        2.9528  -16.3108  -46.4571 H         1 UNK         0.0600 
    158 H158        1.6587  -15.8756  -45.3216 H         1 UNK         0.0600 
    159 H159        3.1223  -17.2182  -43.8941 H         1 UNK         0.3000 
    160 H160        4.3857  -20.1107  -42.2111 H         1 UNK         0.0600 
    161 H161        5.7527  -17.6754  -43.4808 H         1 UNK         0.0600 
    162 H162        6.1852  -19.3561  -43.7689 H         1 UNK         0.0600 
    163 H163        6.3996  -18.6612  -42.1698 H         1 UNK         0.0600 
    164 H164        4.2726  -17.3364  -41.5098 H         1 UNK         0.3000 
    165 H165        1.0555  -17.3211  -40.0370 H         1 UNK         0.0600 
    166 H166        2.2472  -16.8213  -37.9327 H         1 UNK         0.0600 
    167 H167        2.3716  -18.5357  -38.2902 H         1 UNK         0.0600 
    168 H168        3.7479  -17.4800  -38.5860 H         1 UNK         0.0600 
    169 H169        3.0303  -15.3875  -39.7907 H         1 UNK         0.3000 
    170 H170        1.7148  -13.2928  -41.7229 H         1 UNK         0.0600 
    171 H171        4.5507  -13.9356  -40.7408 H         1 UNK         0.0600 
    172 H172        3.8916  -12.3171  -40.9404 H         1 UNK         0.0600 
    173 H173        3.1921  -13.3955  -39.7532 H         1 UNK         0.0600 
    174 H174        2.6051  -12.9188  -43.6949 H         1 UNK         0.3000 
    175 H175        4.8933  -12.6925  -45.1363 H         1 UNK         0.0600 
    176 H176        5.1627  -15.6338  -45.9868 H         1 UNK         0.0600 
    177 H177        5.6358  -14.2534  -46.9766 H         1 UNK         0.0600 
    178 H178        6.4623  -14.5740  -45.4603 H         1 UNK         0.0600 
    179 H179        2.5600  -14.3977  -45.6931 H         1 UNK         0.3000 
    180 H180        0.9504  -11.8248  -47.3966 H         1 UNK         0.0600 
    181 H181        0.2569  -13.6058  -48.9904 H         1 UNK         0.0600 
    182 H182        1.6283  -14.6036  -48.5099 H         1 UNK         0.0600 
    183 H183        1.8946  -13.0785  -49.3438 H         1 UNK         0.0600 
    184 H184       -0.0856  -14.3009  -46.6702 H         1 UNK         0.3000 
    185 H185       -0.2635  -14.7231  -43.7224 H         1 UNK         0.0600 
    186 H186       -2.2895  -13.7722  -42.6139 H         1 UNK         0.0600 
    187 H187       -0.8976  -12.7149  -42.4571 H         1 UNK         0.0600 
    188 H188       -2.1609  -12.3283  -43.6176 H         1 UNK         0.0600 
    189 H189       -1.7610  -15.7285  -44.9706 H         1 UNK         0.3000 
    190 H190       -0.8420  -20.6424  -46.4628 H         1 UNK         0.3000 
    191 H191       -2.5986  -21.3717  -48.5337 H         1 UNK         0.0600 
    192 H192       -3.0774  -19.7572  -45.9865 H         1 UNK         0.0600 
    193 H193       -4.1466  -19.7552  -47.3894 H         1 UNK         0.0600 
    194 H194       -2.5091  -19.1276  -47.5247 H         1 UNK         0.0600 
    195 H195       -2.5691  -22.4022  -45.1201 H         1 UNK         0.3000 
    196 H196       -5.0856  -23.7822  -45.1769 H         1 UNK         0.0600 
    197 H197       -3.9983  -23.0359  -43.0702 H         1 UNK         0.0600 
    198 H198       -2.6626  -24.1533  -43.3385 H         1 UNK         0.0600 
    199 H199       -4.2825  -24.7702  -43.0446 H         1 UNK         0.0600 
    200 H200       -1.7567  -24.7498  -46.0013 H         1 UNK         0.3000 
    201 H201       -2.3934  -27.5654  -46.3749 H         1 UNK         0.0600 
    202 H202       -0.1255  -26.8226  -45.6904 H         1 UNK         0.0600 
    203 H203        0.0595  -25.9200  -47.1917 H         1 UNK         0.0600 
    204 H204       -0.0614  -27.6746  -47.2268 H         1 UNK         0.0600 
    205 H205       -2.0714  -24.6993  -48.4570 H         1 UNK         0.3000 
    206 H206       -2.3189  -26.0141  -50.9771 H         1 UNK         0.0600 
    207 H207       -1.2745  -23.7631  -50.6337 H         1 UNK         0.0600 
    208 H208       -2.5640  -23.6729  -51.8173 H         1 UNK         0.0600 
    209 H209       -2.8436  -23.0981  -50.1805 H         1 UNK         0.0600 
    210 H210       -4.0572  -25.2233  -52.5628 H         1 UNK         0.3000 
    211 H211       -6.6249  -26.2699  -51.8442 H         1 UNK         0.0600 
    212 H212       -7.1856  -25.5957  -54.1946 H         1 UNK         0.0600 
    213 H213       -5.6735  -24.7072  -54.3118 H         1 UNK         0.0600 
    214 H214       -5.6599  -26.4624  -54.1337 H         1 UNK         0.0600 
    215 H215       -8.6633  -25.1582  -52.0478 H         1 UNK         0.3000 
    216 H216       -8.8606  -22.7135  -50.5632 H         1 UNK         0.0600 
    217 H217      -11.3092  -23.0420  -50.9798 H         1 UNK         0.0600 
    218 H218      -10.5603  -24.5360  -50.4434 H         1 UNK         0.0600 
    219 H219      -10.9544  -24.3080  -52.1478 H         1 UNK         0.0600 
    220 H220       -9.9412  -20.7902  -51.2372 H         1 UNK         0.3000 
    221 H221      -10.1947  -18.9294  -52.3750 H         1 UNK         0.0600 
    222 H222      -10.4266  -20.5725  -54.9547 H         1 UNK         0.0600 
    223 H223      -11.7497  -20.2573  -53.8384 H         1 UNK         0.0600 
    224 H224      -10.9946  -18.9262  -54.6898 H         1 UNK         0.0600 
    225 H225       -9.0194  -18.8170  -55.3368 H         1 UNK         0.3000 
    226 H226       -6.4598  -17.6817  -54.5661 H         1 UNK         0.0600 
    227 H227       -7.8174  -16.6697  -56.3754 H         1 UNK         0.0600 
    228 H228       -6.2763  -17.2232  -57.0121 H         1 UNK         0.0600 
    229 H229       -7.7342  -18.1607  -57.3139 H         1 UNK         0.0600 
    230 H230       -4.5493  -18.7575  -54.4268 H         1 UNK         0.3000 
    231 H231       -3.8168  -20.9593  -56.1214 H         1 UNK         0.0600 
    232 H232       -3.4521  -22.5704  -54.2187 H         1 UNK         0.0600 
    233 H233       -5.1604  -22.2024  -54.3805 H         1 UNK         0.0600 
    234 H234       -4.2171  -21.4463  -53.1021 H         1 UNK         0.0600 
    235 H235       -1.5748  -21.5555  -55.6861 H         1 UNK         0.3000 
    236 H236        0.5850  -21.1085  -55.5003 H         1 UNK         0.0600 
    237 H237       -0.2304  -20.0368  -52.7460 H         1 UNK         0.0600 
    238 H238        0.1201  -21.7108  -53.1521 H         1 UNK         0.0600 
    239 H239        1.4006  -20.5134  -53.2254 H         1 UNK         0.0600 
    240 H240        0.7836  -18.3783  -53.4950 H         1 UNK         0.3000 
    241 H241        1.7070  -16.6892  -55.6471 H         1 UNK         0.0600 
    242 H242       -2.1633  -15.6734  -55.1397 H         1 UNK         0.3800 
    243 H243       -1.5513  -17.2045  -54.5636 H         1 UNK         0.3800 
    244 H244        1.3052  -15.8574  -52.7494 H         1 UNK         0.0800 
    245 H245        2.2799  -15.0564  -53.9419 H         1 UNK         0.0800 
    246 H246        4.2478  -17.3614  -50.9124 H         1 UNK         0.0800 
    247 H247        3.2209  -15.9535  -50.9715 H         1 UNK         0.0800 
@<TRIPOS>BOND
     1    1    2 1    
     2    1  127 1    
     3    1  128 1    
     4    1  129 1    
     5    2    3 2    
     6    2    4 am   BACKBONE|DICT|INTERRES
     7    4    5 1    
     8    4  130 1    
     9    5    6 1    
    10    5   65 1    
    11    5  131 1    
    12    6    7 1    
    13    6  132 1    
    14    6  133 1    
    15    7    8 1    
    16    8    9 1    
    17    8  134 1    
    18    8  135 1    
    19    9   10 ar   
    20    9   14 ar   
    21   10   11 ar   
    22   10  136 1    
    23   11   12 ar   
    24   11  126 1    
    25   12   13 ar   
    26   12  137 1    
    27   13   14 ar   
    28   13   15 1    
    29   14  138 1    
    30   15   16 1    
    31   15  139 1    
    32   15  140 1    
    33   16   17 1    
    34   17   18 1    
    35   17  141 1    
    36   17  142 1    
    37   18   19 1    
    38   18   67 1    
    39   18  143 1    
    40   19   20 am   BACKBONE|DICT|INTERRES
    41   19  144 1    
    42   20   21 2    
    43   20   22 1    
    44   22   23 1    
    45   22   24 1    
    46   22  145 1    
    47   23  146 1    
    48   23  147 1    
    49   23  148 1    
    50   24   25 am   BACKBONE|DICT|INTERRES
    51   24  149 1    
    52   25   26 2    
    53   25   27 1    
    54   27   28 1    
    55   27   29 1    
    56   27  150 1    
    57   28  151 1    
    58   28  152 1    
    59   28  153 1    
    60   29   30 am   BACKBONE|DICT|INTERRES
    61   29  154 1    
    62   30   31 2    
    63   30   32 1    
    64   32   33 1    
    65   32   34 1    
    66   32  155 1    
    67   33  156 1    
    68   33  157 1    
    69   33  158 1    
    70   34   35 am   BACKBONE|DICT|INTERRES
    71   34  159 1    
    72   35   36 2    
    73   35   37 1    
    74   37   38 1    
    75   37   39 1    
    76   37  160 1    
    77   38  161 1    
    78   38  162 1    
    79   38  163 1    
    80   39   40 am   BACKBONE|DICT|INTERRES
    81   39  164 1    
    82   40   41 2    
    83   40   42 1    
    84   42   43 1    
    85   42   44 1    
    86   42  165 1    
    87   43  166 1    
    88   43  167 1    
    89   43  168 1    
    90   44   45 am   BACKBONE|DICT|INTERRES
    91   44  169 1    
    92   45   46 2    
    93   45   47 1    
    94   47   48 1    
    95   47   49 1    
    96   47  170 1    
    97   48  171 1    
    98   48  172 1    
    99   48  173 1    
   100   49   50 am   BACKBONE|DICT|INTERRES
   101   49  174 1    
   102   50   51 2    
   103   50   52 1    
   104   52   53 1    
   105   52   54 1    
   106   52  175 1    
   107   53  176 1    
   108   53  177 1    
   109   53  178 1    
   110   54   55 am   BACKBONE|DICT|INTERRES
   111   54  179 1    
   112   55   56 2    
   113   55   57 1    
   114   57   58 1    
   115   57   59 1    
   116   57  180 1    
   117   58  181 1    
   118   58  182 1    
   119   58  183 1    
   120   59   60 am   BACKBONE|DICT|INTERRES
   121   59  184 1    
   122   60   61 2    
   123   60   62 1    
   124   62   63 1    
   125   62   64 1    
   126   62  185 1    
   127   63  186 1    
   128   63  187 1    
   129   63  188 1    
   130   64   65 am   BACKBONE|DICT|INTERRES
   131   64  189 1    
   132   65   66 2    
   133   67   68 2    
   134   67   69 am   BACKBONE|DICT|INTERRES
   135   69   70 1    
   136   69  190 1    
   137   70   71 1    
   138   70   72 1    
   139   70  191 1    
   140   71  192 1    
   141   71  193 1    
   142   71  194 1    
   143   72   73 2    
   144   72   74 am   BACKBONE|DICT|INTERRES
   145   74   75 1    
   146   74  195 1    
   147   75   76 1    
   148   75   77 1    
   149   75  196 1    
   150   76  197 1    
   151   76  198 1    
   152   76  199 1    
   153   77   78 2    
   154   77   79 am   BACKBONE|DICT|INTERRES
   155   79   80 1    
   156   79  200 1    
   157   80   81 1    
   158   80   82 1    
   159   80  201 1    
   160   81  202 1    
   161   81  203 1    
   162   81  204 1    
   163   82   83 2    
   164   82   84 am   BACKBONE|DICT|INTERRES
   165   84   85 1    
   166   84  205 1    
   167   85   86 1    
   168   85   87 1    
   169   85  206 1    
   170   86  207 1    
   171   86  208 1    
   172   86  209 1    
   173   87   88 2    
   174   87   89 am   BACKBONE|DICT|INTERRES
   175   89   90 1    
   176   89  210 1    
   177   90   91 1    
   178   90   92 1    
   179   90  211 1    
   180   91  212 1    
   181   91  213 1    
   182   91  214 1    
   183   92   93 2    
   184   92   94 am   BACKBONE|DICT|INTERRES
   185   94   95 1    
   186   94  215 1    
   187   95   96 1    
   188   95   97 1    
   189   95  216 1    
   190   96  217 1    
   191   96  218 1    
   192   96  219 1    
   193   97   98 2    
   194   97   99 am   BACKBONE|DICT|INTERRES
   195   99  100 1    
   196   99  220 1    
   197  100  101 1    
   198  100  102 1    
   199  100  221 1    
   200  101  222 1    
   201  101  223 1    
   202  101  224 1    
   203  102  103 2    
   204  102  104 am   BACKBONE|DICT|INTERRES
   205  104  105 1    
   206  104  225 1    
   207  105  106 1    
   208  105  107 1    
   209  105  226 1    
   210  106  227 1    
   211  106  228 1    
   212  106  229 1    
   213  107  108 2    
   214  107  109 am   BACKBONE|DICT|INTERRES
   215  109  110 1    
   216  109  230 1    
   217  110  111 1    
   218  110  112 1    
   219  110  231 1    
   220  111  232 1    
   221  111  233 1    
   222  111  234 1    
   223  112  113 2    
   224  112  114 am   BACKBONE|DICT|INTERRES
   225  114  115 1    
   226  114  235 1    
   227  115  116 1    
   228  115  117 1    
   229  115  236 1    
   230  116  237 1    
   231  116  238 1    
   232  116  239 1    
   233  117  118 2    
   234  117  119 am   BACKBONE|DICT|INTERRES
   235  119  120 1    
   236  119  240 1    
   237  120  121 1    
   238  120  124 1    
   239  120  241 1    
   240  121  122 am   BACKBONE|DICT|INTERRES
   241  121  123 2    
   242  122  242 1    
   243  122  243 1    
   244  124  125 1    
   245  124  244 1    
   246  124  245 1    
   247  125  126 1    
   248  126  246 1    
   249  126  247 1    
@<TRIPOS>SUBSTRUCTURE
     1 UNK         1 GROUP             0       ****    0 ROOT    
