@<TRIPOS>MOLECULE
3R540
247   249    1
SMALL
USER_CHARGES


@<TRIPOS>ATOM
      1 CA          1.2165   -8.4268  -47.7329 C.3       0 UNK        -0.1800 
      2 C           1.0149   -9.8852  -47.3477 C.2       0 UNK         0.5000 
      3 O           1.9868  -10.5835  -47.0562 O.2       0 UNK        -0.5000 
      4 N          -0.2414  -10.3497  -47.3361 N.am      1 UNK        -0.5000 
      5 CA         -0.6382  -11.7129  -46.9697 C.3       1 UNK         0.1400 
      6 C6         -1.9683  -12.1150  -47.6540 C.3       23 UNK        -0.0398 
      7 S7         -2.2272  -13.9213  -47.6452 S.3       23 UNK        -0.2404 
      8 C8         -2.0183  -14.3279  -49.4064 C.3       23 UNK        -0.0205 
      9 C9         -2.2716  -15.8057  -49.6527 C.ar      23 UNK        -0.0193 
     10 C10        -1.2320  -16.6643  -50.0216 C.ar      23 UNK        -0.1150 
     11 C11        -1.4825  -18.0219  -50.2451 C.ar      23 UNK        -0.0193 
     12 C12        -2.7806  -18.5184  -50.0942 C.ar      23 UNK        -0.1150 
     13 C13        -3.8228  -17.6717  -49.7029 C.ar      23 UNK        -0.0193 
     14 C14        -3.5622  -16.3155  -49.5014 C.ar      23 UNK        -0.1150 
     15 C15        -5.2312  -18.1993  -49.4641 C.3       23 UNK        -0.0205 
     16 S16        -5.3218  -19.6967  -48.4229 S.3       23 UNK        -0.2404 
     17 C17        -4.0790  -19.4543  -47.0960 C.3       23 UNK        -0.0398 
     18 CA         -3.3795  -20.8031  -46.7838 C.3       11 UNK         0.1400 
     19 N          -1.9380  -20.6777  -46.5337 N.am      11 UNK        -0.5000 
     20 C          -1.0994  -21.7269  -46.5240 C.2       10 UNK         0.5000 
     21 O          -1.4517  -22.8876  -46.7247 O.2       10 UNK        -0.5000 
     22 CA          0.3690  -21.4555  -46.1622 C.3       10 UNK         0.1400 
     23 CB          1.1390  -20.8919  -47.3662 C.3       10 UNK        -0.1800 
     24 N           0.4985  -20.5654  -45.0101 N.am      10 UNK        -0.5000 
     25 C           0.0474  -20.8511  -43.7795 C.2       9 UNK         0.5000 
     26 O          -0.4648  -21.9275  -43.4744 O.2       9 UNK        -0.5000 
     27 CA          0.1290  -19.7308  -42.7274 C.3       9 UNK         0.1400 
     28 CB          1.5255  -19.6757  -42.0909 C.3       9 UNK        -0.1800 
     29 N          -0.2131  -18.4219  -43.2848 N.am      9 UNK        -0.5000 
     30 C          -1.4282  -18.0795  -43.7399 C.2       8 UNK         0.5000 
     31 O          -2.4080  -18.8237  -43.7058 O.2       8 UNK        -0.5000 
     32 CA         -1.5514  -16.6874  -44.3873 C.3       8 UNK         0.1400 
     33 CB         -1.9008  -15.6237  -43.3379 C.3       8 UNK        -0.1800 
     34 N          -0.3292  -16.3041  -45.0971 N.am      8 UNK        -0.5000 
     35 C           0.0769  -16.9017  -46.2265 C.2       7 UNK         0.5000 
     36 O          -0.5444  -17.8100  -46.7798 O.2       7 UNK        -0.5000 
     37 CA          1.4402  -16.4568  -46.7777 C.3       7 UNK         0.1400 
     38 CB          1.3647  -15.0601  -47.4057 C.3       7 UNK        -0.1800 
     39 N           2.4661  -16.4462  -45.7379 N.am      7 UNK        -0.5000 
     40 C           3.0161  -17.5380  -45.1938 C.2       6 UNK         0.5000 
     41 O           2.6531  -18.6789  -45.4728 O.2       6 UNK        -0.5000 
     42 CA          4.1227  -17.3402  -44.1375 C.3       6 UNK         0.1400 
     43 CB          5.3360  -18.2582  -44.3872 C.3       6 UNK        -0.1800 
     44 N           4.5345  -15.9457  -43.9456 N.am      6 UNK        -0.5000 
     45 C           5.1941  -15.1377  -44.7912 C.2       5 UNK         0.5000 
     46 O           5.6043  -15.4901  -45.8968 O.2       5 UNK        -0.5000 
     47 CA          5.3943  -13.6727  -44.3476 C.3       5 UNK         0.1400 
     48 CB          4.6468  -12.7186  -45.2951 C.3       5 UNK        -0.1800 
     49 N           4.9273  -13.4307  -42.9805 N.am      5 UNK        -0.5000 
     50 C           5.6345  -13.6710  -41.8676 C.2       4 UNK         0.5000 
     51 O           6.8101  -14.0355  -41.8679 O.2       4 UNK        -0.5000 
     52 CA          4.8840  -13.5113  -40.5296 C.3       4 UNK         0.1400 
     53 CB          5.1021  -12.1025  -39.9572 C.3       4 UNK        -0.1800 
     54 N           3.4431  -13.7616  -40.6451 N.am      4 UNK        -0.5000 
     55 C           2.8858  -14.9504  -40.9230 C.2       3 UNK         0.5000 
     56 O           3.5307  -15.9857  -41.0774 O.2       3 UNK        -0.5000 
     57 CA          1.3615  -14.9703  -41.1377 C.3       3 UNK         0.1400 
     58 CB          0.6243  -15.2260  -39.8159 C.3       3 UNK        -0.1800 
     59 N           0.8822  -13.7214  -41.7353 N.am      3 UNK        -0.5000 
     60 C           1.0825  -13.3780  -43.0135 C.2       2 UNK         0.5000 
     61 O           1.5779  -14.1352  -43.8547 O.2       2 UNK        -0.5000 
     62 CA          0.7316  -11.9277  -43.3792 C.3       2 UNK         0.1400 
     63 CB          1.8711  -10.9845  -42.9608 C.3       2 UNK        -0.1800 
     64 N           0.5220  -11.7857  -44.8156 N.am      2 UNK        -0.5000 
     65 C          -0.6602  -11.8779  -45.4311 C.2       1 UNK         0.5000 
     66 O          -1.7248  -12.0363  -44.8310 O.2       1 UNK        -0.5000 
     67 C          -4.1175  -21.5759  -45.6687 C.2       11 UNK         0.5000 
     68 O          -5.0601  -22.3111  -45.9616 O.2       11 UNK        -0.5000 
     69 N          -3.6704  -21.4201  -44.4144 N.am      12 UNK        -0.5000 
     70 CA         -4.1706  -22.1829  -43.2700 C.3       12 UNK         0.1400 
     71 CB         -3.6617  -21.5527  -41.9648 C.3       12 UNK        -0.1800 
     72 C          -3.7961  -23.6764  -43.3474 C.2       12 UNK         0.5000 
     73 O          -4.6066  -24.5220  -42.9666 O.2       12 UNK        -0.5000 
     74 N          -2.5890  -23.9744  -43.8488 N.am      13 UNK        -0.5000 
     75 CA         -2.0952  -25.3322  -44.0747 C.3       13 UNK         0.1400 
     76 CB         -0.5727  -25.3015  -44.2812 C.3       13 UNK        -0.1800 
     77 C          -2.8003  -26.0321  -45.2521 C.2       13 UNK         0.5000 
     78 O          -3.1892  -27.1932  -45.1159 O.2       13 UNK        -0.5000 
     79 N          -2.9654  -25.3220  -46.3746 N.am      14 UNK        -0.5000 
     80 CA         -3.6364  -25.8045  -47.5766 C.3       14 UNK         0.1400 
     81 CB         -2.6344  -26.5578  -48.4694 C.3       14 UNK        -0.1800 
     82 C          -4.2514  -24.6074  -48.3098 C.2       14 UNK         0.5000 
     83 O          -3.5101  -23.7450  -48.7837 O.2       14 UNK        -0.5000 
     84 N          -5.5885  -24.5710  -48.3914 N.am      15 UNK        -0.5000 
     85 CA         -6.3693  -23.4970  -49.0110 C.3       15 UNK         0.1400 
     86 CB         -7.8661  -23.8165  -48.8789 C.3       15 UNK        -0.1800 
     87 C          -5.9791  -23.2785  -50.4835 C.2       15 UNK         0.5000 
     88 O          -6.1235  -24.1994  -51.2905 O.2       15 UNK        -0.5000 
     89 N          -5.4324  -22.0913  -50.7835 N.am      16 UNK        -0.5000 
     90 CA         -4.8621  -21.6859  -52.0755 C.3       16 UNK         0.1400 
     91 CB         -5.9881  -21.4806  -53.1065 C.3       16 UNK        -0.1800 
     92 C          -3.7558  -22.6488  -52.5679 C.2       16 UNK         0.5000 
     93 O          -3.6969  -22.9835  -53.7555 O.2       16 UNK        -0.5000 
     94 N          -2.9574  -23.1511  -51.6114 N.am      17 UNK        -0.5000 
     95 CA         -1.9116  -24.1717  -51.7465 C.3       17 UNK         0.1400 
     96 CB         -0.7596  -23.6487  -52.6281 C.3       17 UNK        -0.1800 
     97 C          -2.4322  -25.5458  -52.2272 C.2       17 UNK         0.5000 
     98 O          -1.6297  -26.3791  -52.6493 O.2       17 UNK        -0.5000 
     99 N          -3.7608  -25.7480  -52.1882 N.am      18 UNK        -0.5000 
    100 CA        -4.5188  -26.8528  -52.7868 C.3       18 UNK         0.1400 
    101 CB        -4.2122  -28.1870  -52.0754 C.3       18 UNK        -0.1800 
    102 C         -4.3639  -26.9371  -54.3239 C.2       18 UNK         0.5000 
    103 O         -4.5718  -28.0060  -54.9008 O.2       18 UNK        -0.5000 
    104 N         -3.9973  -25.8144  -54.9585 N.am      19 UNK        -0.5000 
    105 CA        -3.6502  -25.7222  -56.3777 C.3       19 UNK         0.1400 
    106 CB        -2.1201  -25.5948  -56.4878 C.3       19 UNK        -0.1800 
    107 C         -4.3486  -24.5455  -57.0830 C.2       19 UNK         0.5000 
    108 O         -4.0921  -24.3277  -58.2680 O.2       19 UNK        -0.5000 
    109 N         -5.1908  -23.7968  -56.3519 N.am      20 UNK        -0.5000 
    110 CA        -5.8154  -22.5284  -56.7528 C.3       20 UNK         0.1400 
    111 CB        -6.8148  -22.7375  -57.9104 C.3       20 UNK        -0.1800 
    112 C         -4.7654  -21.4302  -57.0401 C.2       20 UNK         0.5000 
    113 O         -4.9281  -20.6403  -57.9724 O.2       20 UNK        -0.5000 
    114 N         -3.6937  -21.4252  -56.2392 N.am      21 UNK        -0.5000 
    115 CA        -2.5410  -20.5380  -56.3527 C.3       21 UNK         0.1400 
    116 CB        -1.2766  -21.4139  -56.3814 C.3       21 UNK        -0.1800 
    117 C         -2.4908  -19.5623  -55.1655 C.2       21 UNK         0.5000 
    118 O         -3.2406  -19.7257  -54.2010 O.2       21 UNK        -0.5000 
    119 N         -1.5909  -18.5752  -55.2712 N.am      22 UNK        -0.5000 
    120 CA        -1.1710  -17.5538  -54.2850 C.3       22 UNK         0.1400 
    121 C         -2.2557  -16.6787  -53.5831 C.2       22 UNK         0.5000 
    122 N         -3.5106  -17.0903  -53.5057 N.am      22 UNK        -0.7600 
    123 O         -1.9534  -15.5693  -53.1520 O.2       22 UNK        -0.5000 
    124 C124       -0.0700  -18.0556  -53.3034 C.3       23 UNK        -0.0398 
    125 S125       -0.4756  -19.5524  -52.3327 S.3       23 UNK        -0.2404 
    126 C126       -0.3490  -18.9638  -50.6160 C.3       23 UNK        -0.0205 
    127 H127        1.6899   -7.8853  -46.9140 H         1 UNK         0.0600 
    128 H128        1.8622   -8.3564  -48.6082 H         1 UNK         0.0600 
    129 H129        0.2721   -7.9343  -47.9661 H         1 UNK         0.0600 
    130 H130       -0.9993   -9.7173  -47.5516 H         1 UNK         0.3000 
    131 H131        0.1306  -12.3832  -47.3564 H         1 UNK         0.0600 
    132 H132       -2.8235  -11.6283  -47.1820 H         1 UNK         0.0800 
    133 H133       -1.9700  -11.7706  -48.6890 H         1 UNK         0.0800 
    134 H134       -1.0171  -14.0440  -49.7336 H         1 UNK         0.0800 
    135 H135       -2.7195  -13.7432  -50.0037 H         1 UNK         0.0800 
    136 H136       -0.2298  -16.2772  -50.1350 H         1 UNK         0.1150 
    137 H137       -2.9704  -19.5697  -50.2547 H         1 UNK         0.1150 
    138 H138       -4.3606  -15.6510  -49.2024 H         1 UNK         0.1150 
    139 H139       -5.8497  -17.4322  -48.9955 H         1 UNK         0.0800 
    140 H140       -5.6917  -18.4148  -50.4290 H         1 UNK         0.0800 
    141 H141       -4.5646  -19.0262  -46.2169 H         1 UNK         0.0800 
    142 H142       -3.3399  -18.7141  -47.3979 H         1 UNK         0.0800 
    143 H143       -3.4454  -21.4259  -47.6773 H         1 UNK         0.0600 
    144 H144       -1.5670  -19.7477  -46.3775 H         1 UNK         0.3000 
    145 H145        0.8239  -22.4111  -45.8929 H         1 UNK         0.0600 
    146 H146        2.2040  -20.8124  -47.1488 H         1 UNK         0.0600 
    147 H147        1.0335  -21.5413  -48.2362 H         1 UNK         0.0600 
    148 H148        0.7820  -19.9026  -47.6504 H         1 UNK         0.0600 
    149 H149        0.9773  -19.6861  -45.1748 H         1 UNK         0.3000 
    150 H150       -0.5937  -19.9559  -41.9403 H         1 UNK         0.0600 
    151 H151        1.7441  -20.6045  -41.5626 H         1 UNK         0.0600 
    152 H152        1.6036  -18.8639  -41.3672 H         1 UNK         0.0600 
    153 H153        2.3056  -19.5398  -42.8391 H         1 UNK         0.0600 
    154 H154        0.5381  -17.7587  -43.3898 H         1 UNK         0.3000 
    155 H155       -2.3672  -16.7264  -45.1129 H         1 UNK         0.0600 
    156 H156       -1.1529  -15.5722  -42.5485 H         1 UNK         0.0600 
    157 H157       -2.8577  -15.8470  -42.8647 H         1 UNK         0.0600 
    158 H158       -1.9850  -14.6353  -43.7899 H         1 UNK         0.0600 
    159 H159        0.2450  -15.5731  -44.6931 H         1 UNK         0.3000 
    160 H160        1.7358  -17.1661  -47.5539 H         1 UNK         0.0600 
    161 H161        2.3099  -14.7873  -47.8754 H         1 UNK         0.0600 
    162 H162        1.1345  -14.3033  -46.6566 H         1 UNK         0.0600 
    163 H163        0.5949  -15.0171  -48.1744 H         1 UNK         0.0600 
    164 H164        2.7590  -15.5414  -45.3966 H         1 UNK         0.3000 
    165 H165        3.6812  -17.6435  -43.1887 H         1 UNK         0.0600 
    166 H166        6.1023  -18.1150  -43.6253 H         1 UNK         0.0600 
    167 H167        5.0428  -19.3083  -44.3571 H         1 UNK         0.0600 
    168 H168        5.7906  -18.0775  -45.3614 H         1 UNK         0.0600 
    169 H169        4.2602  -15.5575  -43.0521 H         1 UNK         0.3000 
    170 H170        6.4618  -13.4516  -44.4099 H         1 UNK         0.0600 
    171 H171        3.5737  -12.9120  -45.3031 H         1 UNK         0.0600 
    172 H172        4.7989  -11.6776  -45.0096 H         1 UNK         0.0600 
    173 H173        5.0031  -12.8249  -46.3204 H         1 UNK         0.0600 
    174 H174        3.9650  -13.1464  -42.8817 H         1 UNK         0.3000 
    175 H175        5.3002  -14.2371  -39.8277 H         1 UNK         0.0600 
    176 H176        4.6878  -11.3332  -40.6102 H         1 UNK         0.0600 
    177 H177        4.6368  -11.9984  -38.9769 H         1 UNK         0.0600 
    178 H178        6.1653  -11.8912  -39.8346 H         1 UNK         0.0600 
    179 H179        2.8372  -12.9650  -40.5186 H         1 UNK         0.3000 
    180 H180        1.1366  -15.7952  -41.8169 H         1 UNK         0.0600 
    181 H181        0.8044  -14.4309  -39.0914 H         1 UNK         0.0600 
    182 H182        0.9501  -16.1636  -39.3633 H         1 UNK         0.0600 
    183 H183       -0.4520  -15.2997  -39.9733 H         1 UNK         0.0600 
    184 H184        0.4509  -13.0575  -41.1077 H         1 UNK         0.3000 
    185 H185       -0.1730  -11.6398  -42.8392 H         1 UNK         0.0600 
    186 H186        2.0562  -11.0349  -41.8873 H         1 UNK         0.0600 
    187 H187        2.8052  -11.2240  -43.4688 H         1 UNK         0.0600 
    188 H188        1.6253   -9.9484  -43.1949 H         1 UNK         0.0600 
    189 H189        1.3440  -11.6246  -45.3872 H         1 UNK         0.3000 
    190 H190       -2.9393  -20.7415  -44.2308 H         1 UNK         0.3000 
    191 H191       -5.2605  -22.1144  -43.2717 H         1 UNK         0.0600 
    192 H192       -2.5756  -21.5952  -41.8903 H         1 UNK         0.0600 
    193 H193       -4.0693  -22.0730  -41.0973 H         1 UNK         0.0600 
    194 H194       -3.9615  -20.5073  -41.8883 H         1 UNK         0.0600 
    195 H195       -1.9584  -23.2151  -44.0827 H         1 UNK         0.3000 
    196 H196       -2.2954  -25.9166  -43.1741 H         1 UNK         0.0600 
    197 H197       -0.1772  -26.3093  -44.4131 H         1 UNK         0.0600 
    198 H198       -0.0677  -24.8630  -43.4203 H         1 UNK         0.0600 
    199 H199       -0.2935  -24.7225  -45.1613 H         1 UNK         0.0600 
    200 H200       -2.5888  -24.3768  -46.4348 H         1 UNK         0.3000 
    201 H201       -4.4393  -26.4903  -47.2980 H         1 UNK         0.0600 
    202 H202       -2.2577  -27.4524  -47.9734 H         1 UNK         0.0600 
    203 H203       -1.7781  -25.9332  -48.7267 H         1 UNK         0.0600 
    204 H204       -3.1027  -26.8747  -49.4008 H         1 UNK         0.0600 
    205 H205       -6.1213  -25.3264  -47.9869 H         1 UNK         0.3000 
    206 H206       -6.1701  -22.5819  -48.4515 H         1 UNK         0.0600 
    207 H207       -8.1605  -23.8999  -47.8326 H         1 UNK         0.0600 
    208 H208       -8.4732  -23.0275  -49.3246 H         1 UNK         0.0600 
    209 H209       -8.1246  -24.7515  -49.3776 H         1 UNK         0.0600 
    210 H210       -5.3403  -21.4110  -50.0396 H         1 UNK         0.3000 
    211 H211       -4.3800  -20.7212  -51.9130 H         1 UNK         0.0600 
    212 H212       -6.4557  -22.4238  -53.3902 H         1 UNK         0.0600 
    213 H213       -5.6014  -21.0121  -54.0103 H         1 UNK         0.0600 
    214 H214       -6.7654  -20.8246  -52.7150 H         1 UNK         0.0600 
    215 H215       -3.1595  -22.8981  -50.6493 H         1 UNK         0.3000 
    216 H216       -1.5158  -24.3308  -50.7427 H         1 UNK         0.0600 
    217 H217       -1.0605  -23.5585  -53.6715 H         1 UNK         0.0600 
    218 H218        0.0976  -24.3217  -52.5939 H         1 UNK         0.0600 
    219 H219       -0.4161  -22.6710  -52.2909 H         1 UNK         0.0600 
    220 H220       -4.3424  -25.0028  -51.8184 H         1 UNK         0.3000 
    221 H221       -5.5704  -26.6242  -52.6095 H         1 UNK         0.0600 
    222 H222       -3.1819  -28.5061  -52.2329 H         1 UNK         0.0600 
    223 H223       -4.3814  -28.1084  -51.0021 H         1 UNK         0.0600 
    224 H224       -4.8594  -28.9846  -52.4417 H         1 UNK         0.0600 
    225 H225       -3.8344  -24.9782  -54.4074 H         1 UNK         0.3000 
    226 H226       -3.9615  -26.6245  -56.9073 H         1 UNK         0.0600 
    227 H227       -1.6197  -26.4420  -56.0183 H         1 UNK         0.0600 
    228 H228       -1.7981  -25.5653  -57.5294 H         1 UNK         0.0600 
    229 H229       -1.7599  -24.6853  -56.0049 H         1 UNK         0.0600 
    230 H230       -5.3234  -24.0584  -55.3858 H         1 UNK         0.3000 
    231 H231       -6.3919  -22.1849  -55.8947 H         1 UNK         0.0600 
    232 H232       -7.5314  -23.5243  -57.6752 H         1 UNK         0.0600 
    233 H233       -6.3137  -23.0065  -58.8404 H         1 UNK         0.0600 
    234 H234       -7.3846  -21.8273  -58.1008 H         1 UNK         0.0600 
    235 H235       -3.6830  -22.0455  -55.4335 H         1 UNK         0.3000 
    236 H236       -2.5910  -19.9564  -57.2753 H         1 UNK         0.0600 
    237 H237       -0.3782  -20.8128  -56.5244 H         1 UNK         0.0600 
    238 H238       -1.1551  -21.9690  -55.4508 H         1 UNK         0.0600 
    239 H239       -1.3163  -22.1359  -57.1974 H         1 UNK         0.0600 
    240 H240       -1.0703  -18.5342  -56.1352 H         1 UNK         0.3000 
    241 H241       -0.6644  -16.8247  -54.9192 H         1 UNK         0.0600 
    242 H242       -3.7133  -18.0500  -53.7762 H         1 UNK         0.3800 
    243 H243       -4.2062  -16.5185  -53.0570 H         1 UNK         0.3800 
    244 H244        0.8245  -18.2955  -53.8791 H         1 UNK         0.0800 
    245 H245        0.2372  -17.2531  -52.6309 H         1 UNK         0.0800 
    246 H246       -0.3786  -19.8267  -49.9494 H         1 UNK         0.0800 
    247 H247        0.6223  -18.4921  -50.4600 H         1 UNK         0.0800 
@<TRIPOS>BOND
     1    1    2 1    
     2    1  127 1    
     3    1  128 1    
     4    1  129 1    
     5    2    3 2    
     6    2    4 am   BACKBONE|DICT|INTERRES
     7    4    5 1    
     8    4  130 1    
     9    5    6 1    
    10    5   65 1    
    11    5  131 1    
    12    6    7 1    
    13    6  132 1    
    14    6  133 1    
    15    7    8 1    
    16    8    9 1    
    17    8  134 1    
    18    8  135 1    
    19    9   10 ar   
    20    9   14 ar   
    21   10   11 ar   
    22   10  136 1    
    23   11   12 ar   
    24   11  126 1    
    25   12   13 ar   
    26   12  137 1    
    27   13   14 ar   
    28   13   15 1    
    29   14  138 1    
    30   15   16 1    
    31   15  139 1    
    32   15  140 1    
    33   16   17 1    
    34   17   18 1    
    35   17  141 1    
    36   17  142 1    
    37   18   19 1    
    38   18   67 1    
    39   18  143 1    
    40   19   20 am   BACKBONE|DICT|INTERRES
    41   19  144 1    
    42   20   21 2    
    43   20   22 1    
    44   22   23 1    
    45   22   24 1    
    46   22  145 1    
    47   23  146 1    
    48   23  147 1    
    49   23  148 1    
    50   24   25 am   BACKBONE|DICT|INTERRES
    51   24  149 1    
    52   25   26 2    
    53   25   27 1    
    54   27   28 1    
    55   27   29 1    
    56   27  150 1    
    57   28  151 1    
    58   28  152 1    
    59   28  153 1    
    60   29   30 am   BACKBONE|DICT|INTERRES
    61   29  154 1    
    62   30   31 2    
    63   30   32 1    
    64   32   33 1    
    65   32   34 1    
    66   32  155 1    
    67   33  156 1    
    68   33  157 1    
    69   33  158 1    
    70   34   35 am   BACKBONE|DICT|INTERRES
    71   34  159 1    
    72   35   36 2    
    73   35   37 1    
    74   37   38 1    
    75   37   39 1    
    76   37  160 1    
    77   38  161 1    
    78   38  162 1    
    79   38  163 1    
    80   39   40 am   BACKBONE|DICT|INTERRES
    81   39  164 1    
    82   40   41 2    
    83   40   42 1    
    84   42   43 1    
    85   42   44 1    
    86   42  165 1    
    87   43  166 1    
    88   43  167 1    
    89   43  168 1    
    90   44   45 am   BACKBONE|DICT|INTERRES
    91   44  169 1    
    92   45   46 2    
    93   45   47 1    
    94   47   48 1    
    95   47   49 1    
    96   47  170 1    
    97   48  171 1    
    98   48  172 1    
    99   48  173 1    
   100   49   50 am   BACKBONE|DICT|INTERRES
   101   49  174 1    
   102   50   51 2    
   103   50   52 1    
   104   52   53 1    
   105   52   54 1    
   106   52  175 1    
   107   53  176 1    
   108   53  177 1    
   109   53  178 1    
   110   54   55 am   BACKBONE|DICT|INTERRES
   111   54  179 1    
   112   55   56 2    
   113   55   57 1    
   114   57   58 1    
   115   57   59 1    
   116   57  180 1    
   117   58  181 1    
   118   58  182 1    
   119   58  183 1    
   120   59   60 am   BACKBONE|DICT|INTERRES
   121   59  184 1    
   122   60   61 2    
   123   60   62 1    
   124   62   63 1    
   125   62   64 1    
   126   62  185 1    
   127   63  186 1    
   128   63  187 1    
   129   63  188 1    
   130   64   65 am   BACKBONE|DICT|INTERRES
   131   64  189 1    
   132   65   66 2    
   133   67   68 2    
   134   67   69 am   BACKBONE|DICT|INTERRES
   135   69   70 1    
   136   69  190 1    
   137   70   71 1    
   138   70   72 1    
   139   70  191 1    
   140   71  192 1    
   141   71  193 1    
   142   71  194 1    
   143   72   73 2    
   144   72   74 am   BACKBONE|DICT|INTERRES
   145   74   75 1    
   146   74  195 1    
   147   75   76 1    
   148   75   77 1    
   149   75  196 1    
   150   76  197 1    
   151   76  198 1    
   152   76  199 1    
   153   77   78 2    
   154   77   79 am   BACKBONE|DICT|INTERRES
   155   79   80 1    
   156   79  200 1    
   157   80   81 1    
   158   80   82 1    
   159   80  201 1    
   160   81  202 1    
   161   81  203 1    
   162   81  204 1    
   163   82   83 2    
   164   82   84 am   BACKBONE|DICT|INTERRES
   165   84   85 1    
   166   84  205 1    
   167   85   86 1    
   168   85   87 1    
   169   85  206 1    
   170   86  207 1    
   171   86  208 1    
   172   86  209 1    
   173   87   88 2    
   174   87   89 am   BACKBONE|DICT|INTERRES
   175   89   90 1    
   176   89  210 1    
   177   90   91 1    
   178   90   92 1    
   179   90  211 1    
   180   91  212 1    
   181   91  213 1    
   182   91  214 1    
   183   92   93 2    
   184   92   94 am   BACKBONE|DICT|INTERRES
   185   94   95 1    
   186   94  215 1    
   187   95   96 1    
   188   95   97 1    
   189   95  216 1    
   190   96  217 1    
   191   96  218 1    
   192   96  219 1    
   193   97   98 2    
   194   97   99 am   BACKBONE|DICT|INTERRES
   195   99  100 1    
   196   99  220 1    
   197  100  101 1    
   198  100  102 1    
   199  100  221 1    
   200  101  222 1    
   201  101  223 1    
   202  101  224 1    
   203  102  103 2    
   204  102  104 am   BACKBONE|DICT|INTERRES
   205  104  105 1    
   206  104  225 1    
   207  105  106 1    
   208  105  107 1    
   209  105  226 1    
   210  106  227 1    
   211  106  228 1    
   212  106  229 1    
   213  107  108 2    
   214  107  109 am   BACKBONE|DICT|INTERRES
   215  109  110 1    
   216  109  230 1    
   217  110  111 1    
   218  110  112 1    
   219  110  231 1    
   220  111  232 1    
   221  111  233 1    
   222  111  234 1    
   223  112  113 2    
   224  112  114 am   BACKBONE|DICT|INTERRES
   225  114  115 1    
   226  114  235 1    
   227  115  116 1    
   228  115  117 1    
   229  115  236 1    
   230  116  237 1    
   231  116  238 1    
   232  116  239 1    
   233  117  118 2    
   234  117  119 am   BACKBONE|DICT|INTERRES
   235  119  120 1    
   236  119  240 1    
   237  120  121 1    
   238  120  124 1    
   239  120  241 1    
   240  121  122 am   BACKBONE|DICT|INTERRES
   241  121  123 2    
   242  122  242 1    
   243  122  243 1    
   244  124  125 1    
   245  124  244 1    
   246  124  245 1    
   247  125  126 1    
   248  126  246 1    
   249  126  247 1    
@<TRIPOS>SUBSTRUCTURE
     1 UNK         1 GROUP             0       ****    0 ROOT    
