@<TRIPOS>MOLECULE
3R540
247   249    1
SMALL
USER_CHARGES


@<TRIPOS>ATOM
      1 CA          4.0632  -13.3455  -46.0247 C.3       0 UNK        -0.1800 
      2 C           2.5796  -13.6727  -46.1050 C.2       0 UNK         0.5000 
      3 O           1.9697  -13.9995  -45.0887 O.2       0 UNK        -0.5000 
      4 N           1.9903  -13.5496  -47.3023 N.am      1 UNK        -0.5000 
      5 CA          0.6007  -13.9054  -47.6366 C.3       1 UNK         0.1400 
      6 C6          0.3277  -13.7588  -49.1548 C.3       23 UNK        -0.0398 
      7 S7          1.3763  -14.8549  -50.1707 S.3       23 UNK        -0.2404 
      8 C8          0.2233  -16.2351  -50.4272 C.3       23 UNK        -0.0205 
      9 C9          0.8618  -17.3784  -51.1991 C.ar      23 UNK        -0.0193 
     10 C10         0.6640  -17.5038  -52.5780 C.ar      23 UNK        -0.1150 
     11 C11         1.2044  -18.5880  -53.2776 C.ar      23 UNK        -0.0193 
     12 C12         1.9600  -19.5400  -52.5879 C.ar      23 UNK        -0.1150 
     13 C13         2.1395  -19.4407  -51.2071 C.ar      23 UNK        -0.0193 
     14 C14         1.6037  -18.3476  -50.5199 C.ar      23 UNK        -0.1150 
     15 C15         2.8525  -20.5511  -50.4506 C.3       23 UNK        -0.0205 
     16 S16         1.8849  -22.1049  -50.3980 S.3       23 UNK        -0.2404 
     17 C17         0.1934  -21.5659  -49.9440 C.3       23 UNK        -0.0398 
     18 CA         -0.1130  -21.6240  -48.4271 C.3       11 UNK         0.1400 
     19 N           0.9145  -20.9379  -47.6373 N.am      11 UNK        -0.5000 
     20 C           1.1211  -21.0857  -46.3212 C.2       10 UNK         0.5000 
     21 O           0.3617  -21.7034  -45.5767 O.2       10 UNK        -0.5000 
     22 CA          2.3769  -20.3977  -45.7465 C.3       10 UNK         0.1400 
     23 CB          3.5973  -21.3159  -45.9079 C.3       10 UNK        -0.1800 
     24 N           2.6465  -19.1393  -46.4447 N.am      10 UNK        -0.5000 
     25 C           2.1029  -17.9342  -46.2165 C.2       9 UNK         0.5000 
     26 O           2.1564  -17.0598  -47.0763 O.2       9 UNK        -0.5000 
     27 CA          1.4592  -17.5894  -44.8514 C.3       9 UNK         0.1400 
     28 CB          0.1126  -18.2947  -44.6132 C.3       9 UNK        -0.1800 
     29 N           2.3304  -17.7708  -43.6873 N.am      9 UNK        -0.5000 
     30 C           3.5620  -17.2623  -43.5271 C.2       8 UNK         0.5000 
     31 O           4.1765  -16.6447  -44.3960 O.2       8 UNK        -0.5000 
     32 CA          4.2277  -17.4553  -42.1551 C.3       8 UNK         0.1400 
     33 CB          3.7483  -16.3763  -41.1715 C.3       8 UNK        -0.1800 
     34 N           3.9556  -18.7700  -41.5737 N.am      8 UNK        -0.5000 
     35 C           4.8913  -19.6895  -41.2963 C.2       7 UNK         0.5000 
     36 O           6.0820  -19.5616  -41.5848 O.2       7 UNK        -0.5000 
     37 CA          4.4439  -20.9583  -40.5402 C.3       7 UNK         0.1400 
     38 CB          4.8265  -20.8564  -39.0552 C.3       7 UNK        -0.1800 
     39 N           3.0071  -21.2120  -40.6343 N.am      7 UNK        -0.5000 
     40 C           2.3931  -21.6867  -41.7246 C.2       6 UNK         0.5000 
     41 O           2.9907  -22.0461  -42.7375 O.2       6 UNK        -0.5000 
     42 CA          0.8541  -21.7473  -41.6928 C.3       6 UNK         0.1400 
     43 CB          0.3765  -23.1852  -41.4401 C.3       6 UNK        -0.1800 
     44 N           0.2223  -20.8533  -40.7124 N.am      6 UNK        -0.5000 
     45 C           0.2962  -19.5165  -40.7326 C.2       5 UNK         0.5000 
     46 O           0.9858  -18.8851  -41.5346 O.2       5 UNK        -0.5000 
     47 CA         -0.4730  -18.7545  -39.6448 C.3       5 UNK         0.1400 
     48 CB          0.5025  -18.2193  -38.5851 C.3       5 UNK        -0.1800 
     49 N          -1.2084  -17.6323  -40.2253 N.am      5 UNK        -0.5000 
     50 C          -2.3856  -17.7394  -40.8575 C.2       4 UNK         0.5000 
     51 O          -2.9875  -18.8049  -40.9901 O.2       4 UNK        -0.5000 
     52 CA         -3.0198  -16.4490  -41.4131 C.3       4 UNK         0.1400 
     53 CB         -4.2367  -16.0473  -40.5639 C.3       4 UNK        -0.1800 
     54 N          -2.0802  -15.3244  -41.4406 N.am      4 UNK        -0.5000 
     55 C          -1.4350  -14.9022  -42.5340 C.2       3 UNK         0.5000 
     56 O          -1.5747  -15.4010  -43.6523 O.2       3 UNK        -0.5000 
     57 CA         -0.4381  -13.7494  -42.3243 C.3       3 UNK         0.1400 
     58 CB          0.9396  -14.3062  -41.9355 C.3       3 UNK        -0.1800 
     59 N          -0.3044  -12.9341  -43.5305 N.am      3 UNK        -0.5000 
     60 C          -1.1931  -12.0058  -43.9147 C.2       2 UNK         0.5000 
     61 O          -2.1828  -11.6992  -43.2478 O.2       2 UNK        -0.5000 
     62 CA         -0.9422  -11.2794  -45.2537 C.3       2 UNK         0.1400 
     63 CB         -0.2965   -9.9070  -45.0068 C.3       2 UNK        -0.1800 
     64 N          -0.0981  -12.0366  -46.1771 N.am      2 UNK        -0.5000 
     65 C          -0.4770  -13.1450  -46.8278 C.2       1 UNK         0.5000 
     66 O          -1.6296  -13.5779  -46.8096 O.2       1 UNK        -0.5000 
     67 C          -1.5320  -21.0781  -48.1645 C.2       11 UNK         0.5000 
     68 O          -2.5063  -21.8205  -48.3005 O.2       11 UNK        -0.5000 
     69 N          -1.6370  -19.7901  -47.8014 N.am      12 UNK        -0.5000 
     70 CA         -2.9091  -19.1077  -47.5390 C.3       12 UNK         0.1400 
     71 CB         -2.6890  -17.5877  -47.4713 C.3       12 UNK        -0.1800 
     72 C          -3.6378  -19.6213  -46.2834 C.2       12 UNK         0.5000 
     73 O          -4.8628  -19.5270  -46.2241 O.2       12 UNK        -0.5000 
     74 N          -2.8941  -20.2124  -45.3372 N.am      13 UNK        -0.5000 
     75 CA         -3.4367  -20.8620  -44.1409 C.3       13 UNK         0.1400 
     76 CB         -2.2817  -21.1858  -43.1880 C.3       13 UNK        -0.1800 
     77 C          -4.2289  -22.1434  -44.4668 C.2       13 UNK         0.5000 
     78 O          -5.1840  -22.4676  -43.7614 O.2       13 UNK        -0.5000 
     79 N          -3.8309  -22.8288  -45.5472 N.am      14 UNK        -0.5000 
     80 CA         -4.5064  -24.0036  -46.0999 C.3       14 UNK         0.1400 
     81 CB         -3.4384  -24.9285  -46.7084 C.3       14 UNK        -0.1800 
     82 C          -5.5624  -23.6270  -47.1602 C.2       14 UNK         0.5000 
     83 O          -6.2096  -24.5212  -47.7050 O.2       14 UNK        -0.5000 
     84 N          -5.6855  -22.3242  -47.4633 N.am      15 UNK        -0.5000 
     85 CA         -6.4990  -21.7071  -48.5179 C.3       15 UNK         0.1400 
     86 CB         -8.0018  -21.9756  -48.3018 C.3       15 UNK        -0.1800 
     87 C          -6.0394  -22.0590  -49.9492 C.2       15 UNK         0.5000 
     88 O          -6.7553  -21.7628  -50.9063 O.2       15 UNK        -0.5000 
     89 N          -4.8377  -22.6359  -50.0922 N.am      16 UNK        -0.5000 
     90 CA         -4.2541  -23.0332  -51.3737 C.3       16 UNK         0.1400 
     91 CB         -3.0505  -23.9528  -51.1233 C.3       16 UNK        -0.1800 
     92 C          -3.8698  -21.8258  -52.2448 C.2       16 UNK         0.5000 
     93 O          -3.9838  -21.9010  -53.4678 O.2       16 UNK        -0.5000 
     94 N          -3.4774  -20.7187  -51.5986 N.am      17 UNK        -0.5000 
     95 CA         -3.2236  -19.4346  -52.2534 C.3       17 UNK         0.1400 
     96 CB         -2.5364  -18.4814  -51.2674 C.3       17 UNK        -0.1800 
     97 C          -4.5131  -18.7940  -52.7993 C.2       17 UNK         0.5000 
     98 O          -4.5028  -18.2523  -53.9038 O.2       17 UNK        -0.5000 
     99 N          -5.6051  -18.8945  -52.0264 N.am      18 UNK        -0.5000 
    100 CA        -6.9317  -18.3857  -52.3840 C.3       18 UNK         0.1400 
    101 CB        -7.8251  -18.3625  -51.1339 C.3       18 UNK        -0.1800 
    102 C         -7.5843  -19.2027  -53.5134 C.2       18 UNK         0.5000 
    103 O         -8.2227  -18.6265  -54.3944 O.2       18 UNK        -0.5000 
    104 N         -7.3725  -20.5255  -53.4883 N.am      19 UNK        -0.5000 
    105 CA        -7.7741  -21.4632  -54.5386 C.3       19 UNK         0.1400 
    106 CB        -7.6956  -22.8903  -53.9730 C.3       19 UNK        -0.1800 
    107 C         -6.9217  -21.3539  -55.8209 C.2       19 UNK         0.5000 
    108 O         -7.3165  -21.9039  -56.8495 O.2       19 UNK        -0.5000 
    109 N         -5.7657  -20.6776  -55.7280 N.am      20 UNK        -0.5000 
    110 CA        -4.7233  -20.5269  -56.7494 C.3       20 UNK         0.1400 
    111 CB        -5.2471  -19.7499  -57.9744 C.3       20 UNK        -0.1800 
    112 C         -4.0508  -21.8652  -57.1236 C.2       20 UNK         0.5000 
    113 O         -3.5310  -22.0135  -58.2315 O.2       20 UNK        -0.5000 
    114 N         -4.0358  -22.8099  -56.1728 N.am      21 UNK        -0.5000 
    115 CA        -3.4227  -24.1333  -56.2949 C.3       21 UNK         0.1400 
    116 CB        -3.9038  -25.0134  -55.1314 C.3       21 UNK        -0.1800 
    117 C         -1.8840  -24.0739  -56.3412 C.2       21 UNK         0.5000 
    118 O         -1.2536  -25.0085  -56.8368 O.2       21 UNK        -0.5000 
    119 N         -1.3149  -22.9648  -55.8531 N.am      22 UNK        -0.5000 
    120 CA         0.1015  -22.6049  -55.9887 C.3       22 UNK         0.1400 
    121 C          0.5456  -22.2084  -57.4313 C.2       22 UNK         0.5000 
    122 N         -0.3580  -22.0169  -58.3874 N.am      22 UNK        -0.7600 
    123 O          1.7395  -22.0848  -57.6905 O.2       22 UNK        -0.5000 
    124 C124        0.5097  -21.5409  -54.9387 C.3       23 UNK        -0.0398 
    125 S125       -0.3811  -19.9485  -55.1008 S.3       23 UNK        -0.2404 
    126 C126        0.9491  -18.7454  -54.7701 C.3       23 UNK        -0.0205 
    127 H127        4.2354  -12.5604  -45.2884 H         1 UNK         0.0600 
    128 H128        4.6231  -14.2292  -45.7193 H         1 UNK         0.0600 
    129 H129        4.4572  -13.0073  -46.9833 H         1 UNK         0.0600 
    130 H130        2.5561  -13.2769  -48.0933 H         1 UNK         0.3000 
    131 H131        0.4761  -14.9577  -47.3740 H         1 UNK         0.0600 
    132 H132        0.5032  -12.7295  -49.4725 H         1 UNK         0.0800 
    133 H133       -0.7191  -13.9661  -49.3859 H         1 UNK         0.0800 
    134 H134       -0.6610  -15.8727  -50.9532 H         1 UNK         0.0800 
    135 H135       -0.1191  -16.5984  -49.4574 H         1 UNK         0.0800 
    136 H136        0.0720  -16.7673  -53.1030 H         1 UNK         0.1150 
    137 H137        2.3770  -20.3863  -53.1128 H         1 UNK         0.1150 
    138 H138        1.7367  -18.2595  -49.4515 H         1 UNK         0.1150 
    139 H139        3.0907  -20.2363  -49.4349 H         1 UNK         0.0800 
    140 H140        3.8105  -20.7525  -50.9321 H         1 UNK         0.0800 
    141 H141       -0.4904  -22.2213  -50.4824 H         1 UNK         0.0800 
    142 H142       -0.0056  -20.5735  -50.3434 H         1 UNK         0.0800 
    143 H143       -0.1135  -22.6736  -48.1246 H         1 UNK         0.0600 
    144 H144        1.5858  -20.4084  -48.1688 H         1 UNK         0.3000 
    145 H145        2.2311  -20.2302  -44.6805 H         1 UNK         0.0600 
    146 H146        4.4806  -20.8769  -45.4434 H         1 UNK         0.0600 
    147 H147        3.4264  -22.2805  -45.4282 H         1 UNK         0.0600 
    148 H148        3.8282  -21.5094  -46.9562 H         1 UNK         0.0600 
    149 H149        3.2064  -19.2292  -47.2775 H         1 UNK         0.3000 
    150 H150        1.2365  -16.5221  -44.8940 H         1 UNK         0.0600 
    151 H151        0.2296  -19.2982  -44.2099 H         1 UNK         0.0600 
    152 H152       -0.4627  -18.3702  -45.5323 H         1 UNK         0.0600 
    153 H153       -0.4911  -17.7439  -43.8936 H         1 UNK         0.0600 
    154 H154        1.8928  -18.2283  -42.8903 H         1 UNK         0.3000 
    155 H155        5.3006  -17.3139  -42.3012 H         1 UNK         0.0600 
    156 H156        3.8854  -15.3763  -41.5852 H         1 UNK         0.0600 
    157 H157        4.3072  -16.4218  -40.2368 H         1 UNK         0.0600 
    158 H158        2.6912  -16.4953  -40.9329 H         1 UNK         0.0600 
    159 H159        2.9882  -18.9697  -41.3477 H         1 UNK         0.3000 
    160 H160        4.9786  -21.8065  -40.9731 H         1 UNK         0.0600 
    161 H161        4.3170  -20.0262  -38.5644 H         1 UNK         0.0600 
    162 H162        5.8995  -20.6987  -38.9375 H         1 UNK         0.0600 
    163 H163        4.5738  -21.7712  -38.5187 H         1 UNK         0.0600 
    164 H164        2.4436  -20.9550  -39.8378 H         1 UNK         0.3000 
    165 H165        0.5177  -21.4431  -42.6850 H         1 UNK         0.0600 
    166 H166       -0.7088  -23.2605  -41.5072 H         1 UNK         0.0600 
    167 H167        0.6784  -23.5412  -40.4544 H         1 UNK         0.0600 
    168 H168        0.7930  -23.8707  -42.1795 H         1 UNK         0.0600 
    169 H169       -0.3456  -21.2994  -40.0064 H         1 UNK         0.3000 
    170 H170       -1.1780  -19.4312  -39.1570 H         1 UNK         0.0600 
    171 H171        1.0576  -19.0333  -38.1170 H         1 UNK         0.0600 
    172 H172        1.2310  -17.5307  -39.0156 H         1 UNK         0.0600 
    173 H173       -0.0283  -17.6919  -37.7924 H         1 UNK         0.0600 
    174 H174       -0.7506  -16.7349  -40.2046 H         1 UNK         0.3000 
    175 H175       -3.3739  -16.6726  -42.4218 H         1 UNK         0.0600 
    176 H176       -3.9554  -15.8290  -39.5330 H         1 UNK         0.0600 
    177 H177       -4.7271  -15.1637  -40.9727 H         1 UNK         0.0600 
    178 H178       -4.9790  -16.8464  -40.5395 H         1 UNK         0.0600 
    179 H179       -1.9259  -14.8483  -40.5630 H         1 UNK         0.3000 
    180 H180       -0.7942  -13.1141  -41.5104 H         1 UNK         0.0600 
    181 H181        1.3129  -15.0112  -42.6793 H         1 UNK         0.0600 
    182 H182        0.8917  -14.8315  -40.9813 H         1 UNK         0.0600 
    183 H183        1.6759  -13.5091  -41.8311 H         1 UNK         0.0600 
    184 H184        0.4549  -13.1876  -44.1565 H         1 UNK         0.3000 
    185 H185       -1.9129  -11.1194  -45.7278 H         1 UNK         0.0600 
    186 H186       -0.1782   -9.3527  -45.9381 H         1 UNK         0.0600 
    187 H187       -0.9134   -9.2983  -44.3442 H         1 UNK         0.0600 
    188 H188        0.6866  -10.0026  -44.5442 H         1 UNK         0.0600 
    189 H189        0.8698  -11.7575  -46.2418 H         1 UNK         0.3000 
    190 H190       -0.7952  -19.2409  -47.7197 H         1 UNK         0.3000 
    191 H191       -3.5698  -19.3097  -48.3840 H         1 UNK         0.0600 
    192 H192       -3.6426  -17.0645  -47.3901 H         1 UNK         0.0600 
    193 H193       -2.1964  -17.2158  -48.3689 H         1 UNK         0.0600 
    194 H194       -2.0897  -17.2909  -46.6117 H         1 UNK         0.0600 
    195 H195       -1.8967  -20.2836  -45.4755 H         1 UNK         0.3000 
    196 H196       -4.1100  -20.1607  -43.6432 H         1 UNK         0.0600 
    197 H197       -1.6043  -21.9235  -43.6191 H         1 UNK         0.0600 
    198 H198       -1.7059  -20.2914  -42.9530 H         1 UNK         0.0600 
    199 H199       -2.6535  -21.5887  -42.2452 H         1 UNK         0.0600 
    200 H200       -3.0468  -22.4787  -46.0810 H         1 UNK         0.3000 
    201 H201       -5.0175  -24.5471  -45.3026 H         1 UNK         0.0600 
    202 H202       -2.9154  -24.4513  -47.5381 H         1 UNK         0.0600 
    203 H203       -3.8850  -25.8482  -47.0884 H         1 UNK         0.0600 
    204 H204       -2.6949  -25.2147  -45.9643 H         1 UNK         0.0600 
    205 H205       -5.1230  -21.6745  -46.9305 H         1 UNK         0.3000 
    206 H206       -6.3456  -20.6319  -48.4169 H         1 UNK         0.0600 
    207 H207       -8.3069  -21.7158  -47.2881 H         1 UNK         0.0600 
    208 H208       -8.6074  -21.3782  -48.9843 H         1 UNK         0.0600 
    209 H209       -8.2579  -23.0212  -48.4735 H         1 UNK         0.0600 
    210 H210       -4.2687  -22.7802  -49.2677 H         1 UNK         0.3000 
    211 H211       -5.0022  -23.6043  -51.9272 H         1 UNK         0.0600 
    212 H212       -2.5145  -24.1714  -52.0476 H         1 UNK         0.0600 
    213 H213       -3.3717  -24.9051  -50.7008 H         1 UNK         0.0600 
    214 H214       -2.3413  -23.5096  -50.4272 H         1 UNK         0.0600 
    215 H215       -3.4076  -20.7534  -50.5928 H         1 UNK         0.3000 
    216 H216       -2.5475  -19.6067  -53.0925 H         1 UNK         0.0600 
    217 H217       -3.1902  -18.2173  -50.4373 H         1 UNK         0.0600 
    218 H218       -2.2586  -17.5533  -51.7672 H         1 UNK         0.0600 
    219 H219       -1.6260  -18.9172  -50.8589 H         1 UNK         0.0600 
    220 H220       -5.5349  -19.3914  -51.1524 H         1 UNK         0.3000 
    221 H221       -6.8179  -17.3590  -52.7385 H         1 UNK         0.0600 
    222 H222       -7.3898  -17.7443  -50.3487 H         1 UNK         0.0600 
    223 H223       -7.9818  -19.3616  -50.7268 H         1 UNK         0.0600 
    224 H224       -8.8068  -17.9477  -51.3663 H         1 UNK         0.0600 
    225 H225       -6.9137  -20.9273  -52.6760 H         1 UNK         0.3000 
    226 H226       -8.8109  -21.2555  -54.8107 H         1 UNK         0.0600 
    227 H227       -6.6746  -23.1557  -53.6974 H         1 UNK         0.0600 
    228 H228       -8.3208  -22.9993  -53.0864 H         1 UNK         0.0600 
    229 H229       -8.0387  -23.6225  -54.7050 H         1 UNK         0.0600 
    230 H230       -5.5388  -20.2789  -54.8273 H         1 UNK         0.3000 
    231 H231       -3.9417  -19.9212  -56.2882 H         1 UNK         0.0600 
    232 H232       -5.7183  -18.8139  -57.6743 H         1 UNK         0.0600 
    233 H233       -5.9770  -20.3277  -58.5416 H         1 UNK         0.0600 
    234 H234       -4.4323  -19.4984  -58.6542 H         1 UNK         0.0600 
    235 H235       -4.3809  -22.5585  -55.2512 H         1 UNK         0.3000 
    236 H236       -3.7642  -24.5816  -57.2302 H         1 UNK         0.0600 
    237 H237       -4.9907  -25.0974  -55.1236 H         1 UNK         0.0600 
    238 H238       -3.4994  -26.0231  -55.2115 H         1 UNK         0.0600 
    239 H239       -3.5923  -24.6101  -54.1683 H         1 UNK         0.0600 
    240 H240       -1.9148  -22.2546  -55.4586 H         1 UNK         0.3000 
    241 H241        0.6732  -23.5050  -55.7550 H         1 UNK         0.0600 
    242 H242       -0.0481  -21.7667  -59.3130 H         1 UNK         0.3800 
    243 H243       -1.3485  -22.1083  -58.2026 H         1 UNK         0.3800 
    244 H244        1.5850  -21.3711  -55.0008 H         1 UNK         0.0800 
    245 H245        0.3297  -21.9261  -53.9339 H         1 UNK         0.0800 
    246 H246        0.6614  -17.7854  -55.2013 H         1 UNK         0.0800 
    247 H247        1.8653  -19.0419  -55.2827 H         1 UNK         0.0800 
@<TRIPOS>BOND
     1    1    2 1    
     2    1  127 1    
     3    1  128 1    
     4    1  129 1    
     5    2    3 2    
     6    2    4 am   BACKBONE|DICT|INTERRES
     7    4    5 1    
     8    4  130 1    
     9    5    6 1    
    10    5   65 1    
    11    5  131 1    
    12    6    7 1    
    13    6  132 1    
    14    6  133 1    
    15    7    8 1    
    16    8    9 1    
    17    8  134 1    
    18    8  135 1    
    19    9   10 ar   
    20    9   14 ar   
    21   10   11 ar   
    22   10  136 1    
    23   11   12 ar   
    24   11  126 1    
    25   12   13 ar   
    26   12  137 1    
    27   13   14 ar   
    28   13   15 1    
    29   14  138 1    
    30   15   16 1    
    31   15  139 1    
    32   15  140 1    
    33   16   17 1    
    34   17   18 1    
    35   17  141 1    
    36   17  142 1    
    37   18   19 1    
    38   18   67 1    
    39   18  143 1    
    40   19   20 am   BACKBONE|DICT|INTERRES
    41   19  144 1    
    42   20   21 2    
    43   20   22 1    
    44   22   23 1    
    45   22   24 1    
    46   22  145 1    
    47   23  146 1    
    48   23  147 1    
    49   23  148 1    
    50   24   25 am   BACKBONE|DICT|INTERRES
    51   24  149 1    
    52   25   26 2    
    53   25   27 1    
    54   27   28 1    
    55   27   29 1    
    56   27  150 1    
    57   28  151 1    
    58   28  152 1    
    59   28  153 1    
    60   29   30 am   BACKBONE|DICT|INTERRES
    61   29  154 1    
    62   30   31 2    
    63   30   32 1    
    64   32   33 1    
    65   32   34 1    
    66   32  155 1    
    67   33  156 1    
    68   33  157 1    
    69   33  158 1    
    70   34   35 am   BACKBONE|DICT|INTERRES
    71   34  159 1    
    72   35   36 2    
    73   35   37 1    
    74   37   38 1    
    75   37   39 1    
    76   37  160 1    
    77   38  161 1    
    78   38  162 1    
    79   38  163 1    
    80   39   40 am   BACKBONE|DICT|INTERRES
    81   39  164 1    
    82   40   41 2    
    83   40   42 1    
    84   42   43 1    
    85   42   44 1    
    86   42  165 1    
    87   43  166 1    
    88   43  167 1    
    89   43  168 1    
    90   44   45 am   BACKBONE|DICT|INTERRES
    91   44  169 1    
    92   45   46 2    
    93   45   47 1    
    94   47   48 1    
    95   47   49 1    
    96   47  170 1    
    97   48  171 1    
    98   48  172 1    
    99   48  173 1    
   100   49   50 am   BACKBONE|DICT|INTERRES
   101   49  174 1    
   102   50   51 2    
   103   50   52 1    
   104   52   53 1    
   105   52   54 1    
   106   52  175 1    
   107   53  176 1    
   108   53  177 1    
   109   53  178 1    
   110   54   55 am   BACKBONE|DICT|INTERRES
   111   54  179 1    
   112   55   56 2    
   113   55   57 1    
   114   57   58 1    
   115   57   59 1    
   116   57  180 1    
   117   58  181 1    
   118   58  182 1    
   119   58  183 1    
   120   59   60 am   BACKBONE|DICT|INTERRES
   121   59  184 1    
   122   60   61 2    
   123   60   62 1    
   124   62   63 1    
   125   62   64 1    
   126   62  185 1    
   127   63  186 1    
   128   63  187 1    
   129   63  188 1    
   130   64   65 am   BACKBONE|DICT|INTERRES
   131   64  189 1    
   132   65   66 2    
   133   67   68 2    
   134   67   69 am   BACKBONE|DICT|INTERRES
   135   69   70 1    
   136   69  190 1    
   137   70   71 1    
   138   70   72 1    
   139   70  191 1    
   140   71  192 1    
   141   71  193 1    
   142   71  194 1    
   143   72   73 2    
   144   72   74 am   BACKBONE|DICT|INTERRES
   145   74   75 1    
   146   74  195 1    
   147   75   76 1    
   148   75   77 1    
   149   75  196 1    
   150   76  197 1    
   151   76  198 1    
   152   76  199 1    
   153   77   78 2    
   154   77   79 am   BACKBONE|DICT|INTERRES
   155   79   80 1    
   156   79  200 1    
   157   80   81 1    
   158   80   82 1    
   159   80  201 1    
   160   81  202 1    
   161   81  203 1    
   162   81  204 1    
   163   82   83 2    
   164   82   84 am   BACKBONE|DICT|INTERRES
   165   84   85 1    
   166   84  205 1    
   167   85   86 1    
   168   85   87 1    
   169   85  206 1    
   170   86  207 1    
   171   86  208 1    
   172   86  209 1    
   173   87   88 2    
   174   87   89 am   BACKBONE|DICT|INTERRES
   175   89   90 1    
   176   89  210 1    
   177   90   91 1    
   178   90   92 1    
   179   90  211 1    
   180   91  212 1    
   181   91  213 1    
   182   91  214 1    
   183   92   93 2    
   184   92   94 am   BACKBONE|DICT|INTERRES
   185   94   95 1    
   186   94  215 1    
   187   95   96 1    
   188   95   97 1    
   189   95  216 1    
   190   96  217 1    
   191   96  218 1    
   192   96  219 1    
   193   97   98 2    
   194   97   99 am   BACKBONE|DICT|INTERRES
   195   99  100 1    
   196   99  220 1    
   197  100  101 1    
   198  100  102 1    
   199  100  221 1    
   200  101  222 1    
   201  101  223 1    
   202  101  224 1    
   203  102  103 2    
   204  102  104 am   BACKBONE|DICT|INTERRES
   205  104  105 1    
   206  104  225 1    
   207  105  106 1    
   208  105  107 1    
   209  105  226 1    
   210  106  227 1    
   211  106  228 1    
   212  106  229 1    
   213  107  108 2    
   214  107  109 am   BACKBONE|DICT|INTERRES
   215  109  110 1    
   216  109  230 1    
   217  110  111 1    
   218  110  112 1    
   219  110  231 1    
   220  111  232 1    
   221  111  233 1    
   222  111  234 1    
   223  112  113 2    
   224  112  114 am   BACKBONE|DICT|INTERRES
   225  114  115 1    
   226  114  235 1    
   227  115  116 1    
   228  115  117 1    
   229  115  236 1    
   230  116  237 1    
   231  116  238 1    
   232  116  239 1    
   233  117  118 2    
   234  117  119 am   BACKBONE|DICT|INTERRES
   235  119  120 1    
   236  119  240 1    
   237  120  121 1    
   238  120  124 1    
   239  120  241 1    
   240  121  122 am   BACKBONE|DICT|INTERRES
   241  121  123 2    
   242  122  242 1    
   243  122  243 1    
   244  124  125 1    
   245  124  244 1    
   246  124  245 1    
   247  125  126 1    
   248  126  246 1    
   249  126  247 1    
@<TRIPOS>SUBSTRUCTURE
     1 UNK         1 GROUP             0       ****    0 ROOT    
