@<TRIPOS>MOLECULE
3R540
247   249    1
SMALL
USER_CHARGES


@<TRIPOS>ATOM
      1 CA         -1.2859  -14.8508  -53.0074 C.3       0 UNK        -0.1800 
      2 C          -0.7983  -14.5660  -51.5941 C.2       0 UNK         0.5000 
      3 O           0.3627  -14.2015  -51.4076 O.2       0 UNK        -0.5000 
      4 N          -1.6799  -14.7217  -50.5997 N.am      1 UNK        -0.5000 
      5 CA         -1.4586  -14.4851  -49.1667 C.3       1 UNK         0.1400 
      6 C6         -2.4976  -15.2609  -48.3091 C.3       23 UNK        -0.0398 
      7 S7         -4.2357  -14.8468  -48.6873 S.3       23 UNK        -0.2404 
      8 C8         -5.1086  -15.6572  -47.3138 C.3       23 UNK        -0.0205 
      9 C9         -5.5088  -17.0835  -47.6587 C.ar      23 UNK        -0.0193 
     10 C10        -6.6555  -17.3130  -48.4244 C.ar      23 UNK        -0.1150 
     11 C11        -7.0689  -18.6147  -48.7208 C.ar      23 UNK        -0.0193 
     12 C12        -6.3256  -19.6941  -48.2326 C.ar      23 UNK        -0.1150 
     13 C13        -5.1898  -19.4791  -47.4436 C.ar      23 UNK        -0.0193 
     14 C14        -4.7745  -18.1708  -47.1753 C.ar      23 UNK        -0.1150 
     15 C15        -4.4469  -20.6601  -46.8375 C.3       23 UNK        -0.0205 
     16 S16        -5.1090  -21.0374  -45.1809 S.3       23 UNK        -0.2404 
     17 C17        -4.2927  -22.5749  -44.6019 C.3       23 UNK        -0.0398 
     18 CA         -3.1478  -23.1672  -45.4612 C.3       11 UNK         0.1400 
     19 N          -1.9289  -22.3472  -45.4370 N.am      11 UNK        -0.5000 
     20 C          -0.8212  -22.5873  -46.1545 C.2       10 UNK         0.5000 
     21 O          -0.7118  -23.5345  -46.9303 O.2       10 UNK        -0.5000 
     22 CA          0.3830  -21.6564  -45.9451 C.3       10 UNK         0.1400 
     23 CB          0.1456  -20.2837  -46.5926 C.3       10 UNK        -0.1800 
     24 N           0.7082  -21.5101  -44.5285 N.am      10 UNK        -0.5000 
     25 C           1.1273  -22.5143  -43.7440 C.2       9 UNK         0.5000 
     26 O           1.3706  -23.6486  -44.1548 O.2       9 UNK        -0.5000 
     27 CA          1.2526  -22.2150  -42.2407 C.3       9 UNK         0.1400 
     28 CB          2.6345  -21.6323  -41.9081 C.3       9 UNK        -0.1800 
     29 N           0.2063  -21.3048  -41.7751 N.am      9 UNK        -0.5000 
     30 C          -1.0873  -21.6363  -41.6583 C.2       8 UNK         0.5000 
     31 O          -1.5323  -22.7589  -41.9012 O.2       8 UNK        -0.5000 
     32 CA         -2.0501  -20.5063  -41.2458 C.3       8 UNK         0.1400 
     33 CB         -2.0125  -20.2856  -39.7263 C.3       8 UNK        -0.1800 
     34 N          -1.7689  -19.2419  -41.9307 N.am      8 UNK        -0.5000 
     35 C          -1.8828  -19.0696  -43.2545 C.2       7 UNK         0.5000 
     36 O          -2.2398  -19.9552  -44.0264 O.2       7 UNK        -0.5000 
     37 CA         -1.4786  -17.7021  -43.8289 C.3       7 UNK         0.1400 
     38 CB         -2.6513  -16.7127  -43.7591 C.3       7 UNK        -0.1800 
     39 N          -0.2927  -17.1029  -43.2122 N.am      7 UNK        -0.5000 
     40 C           0.9172  -17.6764  -43.1120 C.2       6 UNK         0.5000 
     41 O           1.1407  -18.8578  -43.3782 O.2       6 UNK        -0.5000 
     42 CA          2.0668  -16.7322  -42.6995 C.3       6 UNK         0.1400 
     43 CB          3.4574  -17.3978  -42.7581 C.3       6 UNK        -0.1800 
     44 N           2.0276  -15.4987  -43.4946 N.am      6 UNK        -0.5000 
     45 C           2.0962  -15.3959  -44.8298 C.2       5 UNK         0.5000 
     46 O           2.4358  -16.3135  -45.5770 O.2       5 UNK        -0.5000 
     47 CA          1.6420  -14.0650  -45.4553 C.3       5 UNK         0.1400 
     48 CB          0.1086  -14.0495  -45.5824 C.3       5 UNK        -0.1800 
     49 N           2.1142  -12.8369  -44.8064 N.am      5 UNK        -0.5000 
     50 C           1.8505  -12.3515  -43.5840 C.2       4 UNK         0.5000 
     51 O           1.2306  -12.9625  -42.7123 O.2       4 UNK        -0.5000 
     52 CA          2.3510  -10.9217  -43.2977 C.3       4 UNK         0.1400 
     53 CB          3.7368  -10.9589  -42.6359 C.3       4 UNK        -0.1800 
     54 N           2.4142  -10.0881  -44.5031 N.am      4 UNK        -0.5000 
     55 C           1.3462   -9.6717  -45.1997 C.2       3 UNK         0.5000 
     56 O           0.1831   -9.8791  -44.8470 O.2       3 UNK        -0.5000 
     57 CA          1.6037   -8.8851  -46.5039 C.3       3 UNK         0.1400 
     58 CB          3.0903   -8.8111  -46.9235 C.3       3 UNK        -0.1800 
     59 N           0.7790   -9.3802  -47.6125 N.am      3 UNK        -0.5000 
     60 C           0.7862  -10.6133  -48.1402 C.2       2 UNK         0.5000 
     61 O           1.5355  -11.5216  -47.7704 O.2       2 UNK        -0.5000 
     62 CA         -0.1774  -10.8375  -49.3215 C.3       2 UNK         0.1400 
     63 CB          0.4294  -10.2841  -50.6209 C.3       2 UNK        -0.1800 
     64 N          -0.4797  -12.2526  -49.5237 N.am      2 UNK        -0.5000 
     65 C          -1.3471  -12.9768  -48.8084 C.2       1 UNK         0.5000 
     66 O          -2.0389  -12.4909  -47.9121 O.2       1 UNK        -0.5000 
     67 C          -2.8749  -24.6340  -45.0638 C.2       11 UNK         0.5000 
     68 O          -3.4062  -25.5363  -45.7123 O.2       11 UNK        -0.5000 
     69 N          -2.0023  -24.8529  -44.0688 N.am      12 UNK        -0.5000 
     70 CA         -1.5269  -26.1783  -43.6557 C.3       12 UNK         0.1400 
     71 CB         -0.7099  -26.0424  -42.3621 C.3       12 UNK        -0.1800 
     72 C          -0.7121  -26.9196  -44.7396 C.2       12 UNK         0.5000 
     73 O          -0.6509  -28.1489  -44.7116 O.2       12 UNK        -0.5000 
     74 N          -0.1356  -26.1712  -45.6884 N.am      13 UNK        -0.5000 
     75 CA          0.5907  -26.6626  -46.8586 C.3       13 UNK         0.1400 
     76 CB          1.8813  -25.8372  -47.0140 C.3       13 UNK        -0.1800 
     77 C          -0.2847  -26.6126  -48.1304 C.2       13 UNK         0.5000 
     78 O           0.2477  -26.4457  -49.2289 O.2       13 UNK        -0.5000 
     79 N          -1.6121  -26.7352  -47.9676 N.am      14 UNK        -0.5000 
     80 CA         -2.6410  -26.7121  -49.0159 C.3       14 UNK         0.1400 
     81 CB         -2.5058  -27.9357  -49.9467 C.3       14 UNK        -0.1800 
     82 C          -2.6691  -25.3731  -49.7801 C.2       14 UNK         0.5000 
     83 O          -2.6760  -25.3540  -51.0119 O.2       14 UNK        -0.5000 
     84 N          -2.6353  -24.2737  -49.0147 N.am      15 UNK        -0.5000 
     85 CA         -2.5172  -22.8827  -49.4659 C.3       15 UNK         0.1400 
     86 CB         -3.7783  -22.4366  -50.2273 C.3       15 UNK        -0.1800 
     87 C          -1.2101  -22.6496  -50.2469 C.2       15 UNK         0.5000 
     88 O          -1.2266  -22.0331  -51.3118 O.2       15 UNK        -0.5000 
     89 N          -0.1087  -23.1851  -49.7009 N.am      16 UNK        -0.5000 
     90 CA          1.2412  -23.2318  -50.2697 C.3       16 UNK         0.1400 
     91 CB          1.8669  -21.8219  -50.2763 C.3       16 UNK        -0.1800 
     92 C           1.2528  -23.9072  -51.6566 C.2       16 UNK         0.5000 
     93 O           1.7576  -23.3325  -52.6204 O.2       16 UNK        -0.5000 
     94 N           0.6301  -25.0923  -51.7388 N.am      17 UNK        -0.5000 
     95 CA          0.3374  -25.8494  -52.9626 C.3       17 UNK         0.1400 
     96 CB          1.6315  -26.4416  -53.5574 C.3       17 UNK        -0.1800 
     97 C          -0.4783  -25.0198  -53.9812 C.2       17 UNK         0.5000 
     98 O          -0.1423  -24.9732  -55.1658 O.2       17 UNK        -0.5000 
     99 N          -1.5206  -24.3516  -53.4690 N.am      18 UNK        -0.5000 
    100 CA        -2.4387  -23.4299  -54.1444 C.3       18 UNK         0.1400 
    101 CB        -3.2406  -24.1594  -55.2416 C.3       18 UNK        -0.1800 
    102 C         -1.8042  -22.1158  -54.6558 C.2       18 UNK         0.5000 
    103 O         -2.4723  -21.3809  -55.3839 O.2       18 UNK        -0.5000 
    104 N         -0.5588  -21.8066  -54.2662 N.am      19 UNK        -0.5000 
    105 CA         0.1287  -20.5696  -54.6453 C.3       19 UNK         0.1400 
    106 CB         1.6466  -20.7532  -54.5050 C.3       19 UNK        -0.1800 
    107 C         -0.3359  -19.3478  -53.8311 C.2       19 UNK         0.5000 
    108 O         -0.3272  -18.2373  -54.3627 O.2       19 UNK        -0.5000 
    109 N         -0.7251  -19.5600  -52.5658 N.am      20 UNK        -0.5000 
    110 CA        -1.1999  -18.5075  -51.6637 C.3       20 UNK         0.1400 
    111 CB        -0.8281  -18.8654  -50.2156 C.3       20 UNK        -0.1800 
    112 C         -2.7159  -18.2709  -51.7824 C.2       20 UNK         0.5000 
    113 O         -3.1997  -17.2403  -51.3159 O.2       20 UNK        -0.5000 
    114 N         -3.4389  -19.2230  -52.3860 N.am      21 UNK        -0.5000 
    115 CA        -4.8827  -19.1688  -52.5912 C.3       21 UNK         0.1400 
    116 CB        -5.3705  -20.5434  -53.0827 C.3       21 UNK        -0.1800 
    117 C         -5.2632  -18.0741  -53.6131 C.2       21 UNK         0.5000 
    118 O         -4.8514  -18.1903  -54.7675 O.2       21 UNK        -0.5000 
    119 N         -6.0359  -17.0349  -53.2739 N.am      22 UNK        -0.5000 
    120 CA        -6.5027  -16.5854  -51.9487 C.3       22 UNK         0.1400 
    121 C         -6.3320  -15.0419  -51.7957 C.2       22 UNK         0.5000 
    122 N         -5.4601  -14.3926  -52.5604 N.am      22 UNK        -0.7600 
    123 O         -6.9975  -14.4120  -50.9785 O.2       22 UNK        -0.5000 
    124 C124       -7.9599  -17.0476  -51.6544 C.3       23 UNK        -0.0398 
    125 S125       -8.1120  -18.8329  -51.3085 S.3       23 UNK        -0.2404 
    126 C126       -8.3555  -18.8565  -49.5020 C.3       23 UNK        -0.0205 
    127 H127       -2.3078  -15.2302  -53.0157 H         1 UNK         0.0600 
    128 H128       -0.6449  -15.5913  -53.4852 H         1 UNK         0.0600 
    129 H129       -1.2567  -13.9391  -53.6039 H         1 UNK         0.0600 
    130 H130       -2.6056  -15.0682  -50.8221 H         1 UNK         0.3000 
    131 H131       -0.4827  -14.9101  -48.9224 H         1 UNK         0.0600 
    132 H132       -2.3738  -16.3329  -48.4659 H         1 UNK         0.0800 
    133 H133       -2.3175  -15.0938  -47.2467 H         1 UNK         0.0800 
    134 H134       -4.5010  -15.6308  -46.4081 H         1 UNK         0.0800 
    135 H135       -6.0062  -15.0797  -47.0880 H         1 UNK         0.0800 
    136 H136       -7.2331  -16.4702  -48.7764 H         1 UNK         0.1150 
    137 H137       -6.6537  -20.7042  -48.4341 H         1 UNK         0.1150 
    138 H138       -3.9014  -18.0020  -46.5609 H         1 UNK         0.1150 
    139 H139       -4.5631  -21.5267  -47.4862 H         1 UNK         0.0800 
    140 H140       -3.3812  -20.4377  -46.7739 H         1 UNK         0.0800 
    141 H141       -5.0968  -23.3064  -44.4989 H         1 UNK         0.0800 
    142 H142       -3.9338  -22.3944  -43.5871 H         1 UNK         0.0800 
    143 H143       -3.4898  -23.2106  -46.4939 H         1 UNK         0.0600 
    144 H144       -1.9590  -21.5230  -44.8370 H         1 UNK         0.3000 
    145 H145        1.2452  -22.1120  -46.4369 H         1 UNK         0.0600 
    146 H146       -0.7415  -19.7919  -46.1970 H         1 UNK         0.0600 
    147 H147        0.9953  -19.6191  -46.4340 H         1 UNK         0.0600 
    148 H148        0.0072  -20.3847  -47.6696 H         1 UNK         0.0600 
    149 H149        0.5955  -20.5887  -44.1162 H         1 UNK         0.3000 
    150 H150        1.1461  -23.1593  -41.7026 H         1 UNK         0.0600 
    151 H151        3.4262  -22.3249  -42.1962 H         1 UNK         0.0600 
    152 H152        2.7382  -21.4466  -40.8391 H         1 UNK         0.0600 
    153 H153        2.8167  -20.6938  -42.4318 H         1 UNK         0.0600 
    154 H154        0.4744  -20.3400  -41.6425 H         1 UNK         0.3000 
    155 H155       -3.0606  -20.8181  -41.5190 H         1 UNK         0.0600 
    156 H156       -2.2332  -21.2109  -39.1924 H         1 UNK         0.0600 
    157 H157       -2.7539  -19.5487  -39.4168 H         1 UNK         0.0600 
    158 H158       -1.0340  -19.9388  -39.3920 H         1 UNK         0.0600 
    159 H159       -1.4518  -18.4683  -41.3653 H         1 UNK         0.3000 
    160 H160       -1.2399  -17.8562  -44.8826 H         1 UNK         0.0600 
    161 H161       -2.8938  -16.4485  -42.7292 H         1 UNK         0.0600 
    162 H162       -3.5500  -17.1379  -44.2084 H         1 UNK         0.0600 
    163 H163       -2.4253  -15.7928  -44.2987 H         1 UNK         0.0600 
    164 H164       -0.3722  -16.1292  -42.9586 H         1 UNK         0.3000 
    165 H165        1.8797  -16.4442  -41.6642 H         1 UNK         0.0600 
    166 H166        3.6865  -17.7819  -43.7524 H         1 UNK         0.0600 
    167 H167        4.2425  -16.6945  -42.4809 H         1 UNK         0.0600 
    168 H168        3.5137  -18.2378  -42.0652 H         1 UNK         0.0600 
    169 H169        1.7336  -14.6584  -42.9990 H         1 UNK         0.3000 
    170 H170        2.0539  -14.0360  -46.4655 H         1 UNK         0.0600 
    171 H171       -0.3843  -14.1178  -44.6124 H         1 UNK         0.0600 
    172 H172       -0.2318  -13.1319  -46.0598 H         1 UNK         0.0600 
    173 H173       -0.2365  -14.8896  -46.1843 H         1 UNK         0.0600 
    174 H174        2.6325  -12.2270  -45.4234 H         1 UNK         0.3000 
    175 H175        1.6499  -10.4598  -42.5993 H         1 UNK         0.0600 
    176 H176        4.4876  -11.3965  -43.2952 H         1 UNK         0.0600 
    177 H177        4.0709   -9.9577  -42.3631 H         1 UNK         0.0600 
    178 H178        3.7166  -11.5536  -41.7215 H         1 UNK         0.0600 
    179 H179        3.3349   -9.8631  -44.8513 H         1 UNK         0.3000 
    180 H180        1.2694   -7.8654  -46.3076 H         1 UNK         0.0600 
    181 H181        3.5210   -9.7985  -47.0935 H         1 UNK         0.0600 
    182 H182        3.6921   -8.3084  -46.1655 H         1 UNK         0.0600 
    183 H183        3.2047   -8.2410  -47.8456 H         1 UNK         0.0600 
    184 H184        0.1122   -8.7139  -47.9761 H         1 UNK         0.3000 
    185 H185       -1.1093  -10.3059  -49.1168 H         1 UNK         0.0600 
    186 H186       -0.2549  -10.4099  -51.4603 H         1 UNK         0.0600 
    187 H187        0.6430   -9.2181  -50.5346 H         1 UNK         0.0600 
    188 H188        1.3642  -10.7870  -50.8728 H         1 UNK         0.0600 
    189 H189        0.0664  -12.7421  -50.2269 H         1 UNK         0.3000 
    190 H190       -1.6336  -24.0600  -43.5543 H         1 UNK         0.3000 
    191 H191       -2.4045  -26.7901  -43.4375 H         1 UNK         0.0600 
    192 H192        0.1791  -25.4297  -42.5104 H         1 UNK         0.0600 
    193 H193       -1.3014  -25.5879  -41.5672 H         1 UNK         0.0600 
    194 H194       -0.3794  -27.0181  -42.0036 H         1 UNK         0.0600 
    195 H195       -0.2557  -25.1659  -45.6492 H         1 UNK         0.3000 
    196 H196        0.8762  -27.7058  -46.7116 H         1 UNK         0.0600 
    197 H197        2.4885  -25.8860  -46.1100 H         1 UNK         0.0600 
    198 H198        1.6671  -24.7868  -47.2116 H         1 UNK         0.0600 
    199 H199        2.4940  -26.2103  -47.8354 H         1 UNK         0.0600 
    200 H200       -1.9629  -26.8068  -47.0212 H         1 UNK         0.3000 
    201 H201       -3.6017  -26.7917  -48.5052 H         1 UNK         0.0600 
    202 H202       -3.3374  -27.9827  -50.6507 H         1 UNK         0.0600 
    203 H203       -2.5098  -28.8654  -49.3780 H         1 UNK         0.0600 
    204 H204       -1.5864  -27.9045  -50.5320 H         1 UNK         0.0600 
    205 H205       -2.5219  -24.4166  -48.0205 H         1 UNK         0.3000 
    206 H206       -2.4479  -22.2614  -48.5743 H         1 UNK         0.0600 
    207 H207       -4.6803  -22.6200  -49.6442 H         1 UNK         0.0600 
    208 H208       -3.8862  -22.9619  -51.1750 H         1 UNK         0.0600 
    209 H209       -3.7410  -21.3678  -50.4392 H         1 UNK         0.0600 
    210 H210       -0.2230  -23.6477  -48.8042 H         1 UNK         0.3000 
    211 H211        1.8396  -23.8619  -49.6104 H         1 UNK         0.0600 
    212 H212        1.8534  -21.3798  -49.2803 H         1 UNK         0.0600 
    213 H213        2.9069  -21.8590  -50.6021 H         1 UNK         0.0600 
    214 H214        1.3386  -21.1472  -50.9500 H         1 UNK         0.0600 
    215 H215        0.2840  -25.5044  -50.8749 H         1 UNK         0.3000 
    216 H216       -0.3012  -26.6815  -52.6625 H         1 UNK         0.0600 
    217 H217        1.4093  -27.0946  -54.4020 H         1 UNK         0.0600 
    218 H218        2.3075  -25.6639  -53.9141 H         1 UNK         0.0600 
    219 H219        2.1666  -27.0379  -52.8183 H         1 UNK         0.0600 
    220 H220       -1.7279  -24.5033  -52.4852 H         1 UNK         0.3000 
    221 H221       -3.1512  -23.1234  -53.3791 H         1 UNK         0.0600 
    222 H222       -2.6109  -24.4381  -56.0868 H         1 UNK         0.0600 
    223 H223       -3.7043  -25.0663  -54.8534 H         1 UNK         0.0600 
    224 H224       -4.0421  -23.5283  -55.6273 H         1 UNK         0.0600 
    225 H225       -0.0645  -22.4359  -53.6452 H         1 UNK         0.3000 
    226 H226       -0.0822  -20.3676  -55.6977 H         1 UNK         0.0600 
    227 H227        1.9922  -21.6352  -55.0446 H         1 UNK         0.0600 
    228 H228        2.1801  -19.8924  -54.9097 H         1 UNK         0.0600 
    229 H229        1.9448  -20.8573  -53.4615 H         1 UNK         0.0600 
    230 H230       -0.7480  -20.5119  -52.2028 H         1 UNK         0.3000 
    231 H231       -0.6965  -17.5716  -51.9097 H         1 UNK         0.0600 
    232 H232       -1.0535  -18.0377  -49.5432 H         1 UNK         0.0600 
    233 H233        0.2363  -19.0780  -50.1185 H         1 UNK         0.0600 
    234 H234       -1.3824  -19.7320  -49.8568 H         1 UNK         0.0600 
    235 H235       -2.9500  -20.0103  -52.7840 H         1 UNK         0.3000 
    236 H236       -5.3386  -18.9900  -51.6207 H         1 UNK         0.0600 
    237 H237       -5.2212  -21.3141  -52.3301 H         1 UNK         0.0600 
    238 H238       -6.4379  -20.5205  -53.3053 H         1 UNK         0.0600 
    239 H239       -4.8559  -20.8559  -53.9920 H         1 UNK         0.0600 
    240 H240       -6.2779  -16.3901  -54.0119 H         1 UNK         0.3000 
    241 H241       -5.8516  -16.9766  -51.1690 H         1 UNK         0.0600 
    242 H242       -4.8747  -14.8854  -53.2149 H         1 UNK         0.3800 
    243 H243       -5.3639  -13.3952  -52.4533 H         1 UNK         0.3800 
    244 H244       -8.3893  -16.5081  -50.8100 H         1 UNK         0.0800 
    245 H245       -8.6029  -16.8089  -52.5027 H         1 UNK         0.0800 
    246 H246       -8.7717  -19.8268  -49.2270 H         1 UNK         0.0800 
    247 H247       -9.1112  -18.1220  -49.2194 H         1 UNK         0.0800 
@<TRIPOS>BOND
     1    1    2 1    
     2    1  127 1    
     3    1  128 1    
     4    1  129 1    
     5    2    3 2    
     6    2    4 am   BACKBONE|DICT|INTERRES
     7    4    5 1    
     8    4  130 1    
     9    5    6 1    
    10    5   65 1    
    11    5  131 1    
    12    6    7 1    
    13    6  132 1    
    14    6  133 1    
    15    7    8 1    
    16    8    9 1    
    17    8  134 1    
    18    8  135 1    
    19    9   10 ar   
    20    9   14 ar   
    21   10   11 ar   
    22   10  136 1    
    23   11   12 ar   
    24   11  126 1    
    25   12   13 ar   
    26   12  137 1    
    27   13   14 ar   
    28   13   15 1    
    29   14  138 1    
    30   15   16 1    
    31   15  139 1    
    32   15  140 1    
    33   16   17 1    
    34   17   18 1    
    35   17  141 1    
    36   17  142 1    
    37   18   19 1    
    38   18   67 1    
    39   18  143 1    
    40   19   20 am   BACKBONE|DICT|INTERRES
    41   19  144 1    
    42   20   21 2    
    43   20   22 1    
    44   22   23 1    
    45   22   24 1    
    46   22  145 1    
    47   23  146 1    
    48   23  147 1    
    49   23  148 1    
    50   24   25 am   BACKBONE|DICT|INTERRES
    51   24  149 1    
    52   25   26 2    
    53   25   27 1    
    54   27   28 1    
    55   27   29 1    
    56   27  150 1    
    57   28  151 1    
    58   28  152 1    
    59   28  153 1    
    60   29   30 am   BACKBONE|DICT|INTERRES
    61   29  154 1    
    62   30   31 2    
    63   30   32 1    
    64   32   33 1    
    65   32   34 1    
    66   32  155 1    
    67   33  156 1    
    68   33  157 1    
    69   33  158 1    
    70   34   35 am   BACKBONE|DICT|INTERRES
    71   34  159 1    
    72   35   36 2    
    73   35   37 1    
    74   37   38 1    
    75   37   39 1    
    76   37  160 1    
    77   38  161 1    
    78   38  162 1    
    79   38  163 1    
    80   39   40 am   BACKBONE|DICT|INTERRES
    81   39  164 1    
    82   40   41 2    
    83   40   42 1    
    84   42   43 1    
    85   42   44 1    
    86   42  165 1    
    87   43  166 1    
    88   43  167 1    
    89   43  168 1    
    90   44   45 am   BACKBONE|DICT|INTERRES
    91   44  169 1    
    92   45   46 2    
    93   45   47 1    
    94   47   48 1    
    95   47   49 1    
    96   47  170 1    
    97   48  171 1    
    98   48  172 1    
    99   48  173 1    
   100   49   50 am   BACKBONE|DICT|INTERRES
   101   49  174 1    
   102   50   51 2    
   103   50   52 1    
   104   52   53 1    
   105   52   54 1    
   106   52  175 1    
   107   53  176 1    
   108   53  177 1    
   109   53  178 1    
   110   54   55 am   BACKBONE|DICT|INTERRES
   111   54  179 1    
   112   55   56 2    
   113   55   57 1    
   114   57   58 1    
   115   57   59 1    
   116   57  180 1    
   117   58  181 1    
   118   58  182 1    
   119   58  183 1    
   120   59   60 am   BACKBONE|DICT|INTERRES
   121   59  184 1    
   122   60   61 2    
   123   60   62 1    
   124   62   63 1    
   125   62   64 1    
   126   62  185 1    
   127   63  186 1    
   128   63  187 1    
   129   63  188 1    
   130   64   65 am   BACKBONE|DICT|INTERRES
   131   64  189 1    
   132   65   66 2    
   133   67   68 2    
   134   67   69 am   BACKBONE|DICT|INTERRES
   135   69   70 1    
   136   69  190 1    
   137   70   71 1    
   138   70   72 1    
   139   70  191 1    
   140   71  192 1    
   141   71  193 1    
   142   71  194 1    
   143   72   73 2    
   144   72   74 am   BACKBONE|DICT|INTERRES
   145   74   75 1    
   146   74  195 1    
   147   75   76 1    
   148   75   77 1    
   149   75  196 1    
   150   76  197 1    
   151   76  198 1    
   152   76  199 1    
   153   77   78 2    
   154   77   79 am   BACKBONE|DICT|INTERRES
   155   79   80 1    
   156   79  200 1    
   157   80   81 1    
   158   80   82 1    
   159   80  201 1    
   160   81  202 1    
   161   81  203 1    
   162   81  204 1    
   163   82   83 2    
   164   82   84 am   BACKBONE|DICT|INTERRES
   165   84   85 1    
   166   84  205 1    
   167   85   86 1    
   168   85   87 1    
   169   85  206 1    
   170   86  207 1    
   171   86  208 1    
   172   86  209 1    
   173   87   88 2    
   174   87   89 am   BACKBONE|DICT|INTERRES
   175   89   90 1    
   176   89  210 1    
   177   90   91 1    
   178   90   92 1    
   179   90  211 1    
   180   91  212 1    
   181   91  213 1    
   182   91  214 1    
   183   92   93 2    
   184   92   94 am   BACKBONE|DICT|INTERRES
   185   94   95 1    
   186   94  215 1    
   187   95   96 1    
   188   95   97 1    
   189   95  216 1    
   190   96  217 1    
   191   96  218 1    
   192   96  219 1    
   193   97   98 2    
   194   97   99 am   BACKBONE|DICT|INTERRES
   195   99  100 1    
   196   99  220 1    
   197  100  101 1    
   198  100  102 1    
   199  100  221 1    
   200  101  222 1    
   201  101  223 1    
   202  101  224 1    
   203  102  103 2    
   204  102  104 am   BACKBONE|DICT|INTERRES
   205  104  105 1    
   206  104  225 1    
   207  105  106 1    
   208  105  107 1    
   209  105  226 1    
   210  106  227 1    
   211  106  228 1    
   212  106  229 1    
   213  107  108 2    
   214  107  109 am   BACKBONE|DICT|INTERRES
   215  109  110 1    
   216  109  230 1    
   217  110  111 1    
   218  110  112 1    
   219  110  231 1    
   220  111  232 1    
   221  111  233 1    
   222  111  234 1    
   223  112  113 2    
   224  112  114 am   BACKBONE|DICT|INTERRES
   225  114  115 1    
   226  114  235 1    
   227  115  116 1    
   228  115  117 1    
   229  115  236 1    
   230  116  237 1    
   231  116  238 1    
   232  116  239 1    
   233  117  118 2    
   234  117  119 am   BACKBONE|DICT|INTERRES
   235  119  120 1    
   236  119  240 1    
   237  120  121 1    
   238  120  124 1    
   239  120  241 1    
   240  121  122 am   BACKBONE|DICT|INTERRES
   241  121  123 2    
   242  122  242 1    
   243  122  243 1    
   244  124  125 1    
   245  124  244 1    
   246  124  245 1    
   247  125  126 1    
   248  126  246 1    
   249  126  247 1    
@<TRIPOS>SUBSTRUCTURE
     1 UNK         1 GROUP             0       ****    0 ROOT    
