@<TRIPOS>MOLECULE
3R540
247   249    1
SMALL
USER_CHARGES


@<TRIPOS>ATOM
      1 CA         -3.9297  -13.3791  -47.6747 C.3       0 UNK        -0.1800 
      2 C          -2.6476  -13.4951  -46.8636 C.2       0 UNK         0.5000 
      3 O          -2.5784  -12.9855  -45.7455 O.2       0 UNK        -0.5000 
      4 N          -1.6367  -14.1861  -47.4068 N.am      1 UNK        -0.5000 
      5 CA         -0.3119  -14.3788  -46.7982 C.3       1 UNK         0.1400 
      6 C6          0.7535  -14.7996  -47.8388 C.3       23 UNK        -0.0398 
      7 S7          0.3721  -16.3371  -48.7447 S.3       23 UNK        -0.2404 
      8 C8          1.9586  -16.5533  -49.6052 C.3       23 UNK        -0.0205 
      9 C9          1.9656  -17.8058  -50.4637 C.ar      23 UNK        -0.0193 
     10 C10         1.5332  -17.7544  -51.7907 C.ar      23 UNK        -0.1150 
     11 C11         1.5720  -18.8967  -52.5956 C.ar      23 UNK        -0.0193 
     12 C12         2.0300  -20.1018  -52.0507 C.ar      23 UNK        -0.1150 
     13 C13         2.4456  -20.1743  -50.7176 C.ar      23 UNK        -0.0193 
     14 C14         2.4281  -19.0133  -49.9376 C.ar      23 UNK        -0.1150 
     15 C15         2.9256  -21.5090  -50.1482 C.3       23 UNK        -0.0205 
     16 S16         2.4091  -21.8183  -48.4226 S.3       23 UNK        -0.2404 
     17 C17         0.5973  -21.6320  -48.5406 C.3       23 UNK        -0.0398 
     18 CA         -0.1797  -22.7469  -47.8060 C.3       11 UNK         0.1400 
     19 N           0.1944  -22.8571  -46.3930 N.am      11 UNK        -0.5000 
     20 C          -0.0782  -23.9171  -45.6198 C.2       10 UNK         0.5000 
     21 O          -0.6877  -24.9089  -46.0171 O.2       10 UNK        -0.5000 
     22 CA          0.3589  -23.8376  -44.1444 C.3       10 UNK         0.1400 
     23 CB          1.8101  -24.3145  -43.9877 C.3       10 UNK        -0.1800 
     24 N           0.2285  -22.4938  -43.5790 N.am      10 UNK        -0.5000 
     25 C          -0.9241  -21.8184  -43.4708 C.2       9 UNK         0.5000 
     26 O          -2.0168  -22.2811  -43.7943 O.2       9 UNK        -0.5000 
     27 CA         -0.8410  -20.3632  -42.9790 C.3       9 UNK         0.1400 
     28 CB         -1.1123  -20.2758  -41.4711 C.3       9 UNK        -0.1800 
     29 N           0.4337  -19.7078  -43.2778 N.am      9 UNK        -0.5000 
     30 C           0.9153  -19.4641  -44.5040 C.2       8 UNK         0.5000 
     31 O           0.3532  -19.8408  -45.5342 O.2       8 UNK        -0.5000 
     32 CA          2.2334  -18.6645  -44.5740 C.3       8 UNK         0.1400 
     33 CB          2.5676  -18.2057  -46.0020 C.3       8 UNK        -0.1800 
     34 N           2.2103  -17.4935  -43.6942 N.am      8 UNK        -0.5000 
     35 C           2.4921  -17.4950  -42.3855 C.2       7 UNK         0.5000 
     36 O           2.7629  -18.5243  -41.7641 O.2       7 UNK        -0.5000 
     37 CA          2.4176  -16.1428  -41.6436 C.3       7 UNK         0.1400 
     38 CB          3.2641  -16.1214  -40.3542 C.3       7 UNK        -0.1800 
     39 N           2.7263  -14.9765  -42.4769 N.am      7 UNK        -0.5000 
     40 C           3.8714  -14.7019  -43.1197 C.2       6 UNK         0.5000 
     41 O           4.8471  -15.4533  -43.1331 O.2       6 UNK        -0.5000 
     42 CA          3.9678  -13.3438  -43.8384 C.3       6 UNK         0.1400 
     43 CB          3.4841  -13.4324  -45.2943 C.3       6 UNK        -0.1800 
     44 N           3.2238  -12.2951  -43.1365 N.am      6 UNK        -0.5000 
     45 C           3.6963  -11.0698  -42.8682 C.2       5 UNK         0.5000 
     46 O           4.7996  -10.6658  -43.2390 O.2       5 UNK        -0.5000 
     47 CA          2.7965  -10.1270  -42.0390 C.3       5 UNK         0.1400 
     48 CB          2.0174   -9.1802  -42.9650 C.3       5 UNK        -0.1800 
     49 N           1.8449  -10.8291  -41.1762 N.am      5 UNK        -0.5000 
     50 C           2.1716  -11.6241  -40.1486 C.2       4 UNK         0.5000 
     51 O           3.3234  -11.7574  -39.7338 O.2       4 UNK        -0.5000 
     52 CA          1.0349  -12.4281  -39.4802 C.3       4 UNK         0.1400 
     53 CB          0.7211  -11.8522  -38.0903 C.3       4 UNK        -0.1800 
     54 N          -0.2228  -12.5405  -40.2337 N.am      4 UNK        -0.5000 
     55 C          -0.3761  -13.0251  -41.4732 C.2       3 UNK         0.5000 
     56 O           0.5618  -13.2875  -42.2302 O.2       3 UNK        -0.5000 
     57 CA         -1.8254  -13.2085  -41.9588 C.3       3 UNK         0.1400 
     58 CB         -2.3445  -11.9034  -42.5796 C.3       3 UNK        -0.1800 
     59 N          -1.9338  -14.2814  -42.9474 N.am      3 UNK        -0.5000 
     60 C          -1.6883  -15.5791  -42.7044 C.2       2 UNK         0.5000 
     61 O          -1.4544  -16.0316  -41.5831 O.2       2 UNK        -0.5000 
     62 CA         -1.6932  -16.5398  -43.9109 C.3       2 UNK         0.1400 
     63 CB         -3.0224  -17.3032  -43.9864 C.3       2 UNK        -0.1800 
     64 N          -1.4592  -15.8645  -45.1870 N.am      2 UNK        -0.5000 
     65 C          -0.3054  -15.2839  -45.5436 C.2       1 UNK         0.5000 
     66 O           0.7341  -15.4088  -44.8975 O.2       1 UNK        -0.5000 
     67 C          -1.6960  -22.5289  -47.9743 C.2       11 UNK         0.5000 
     68 O          -2.2652  -22.9721  -48.9725 O.2       11 UNK        -0.5000 
     69 N          -2.3247  -21.8519  -47.0033 N.am      12 UNK        -0.5000 
     70 CA         -3.7716  -21.6575  -46.9445 C.3       12 UNK         0.1400 
     71 CB         -4.0989  -20.4441  -46.0654 C.3       12 UNK        -0.1800 
     72 C          -4.4911  -22.9227  -46.4490 C.2       12 UNK         0.5000 
     73 O          -5.5306  -23.2753  -47.0027 O.2       12 UNK        -0.5000 
     74 N          -3.9056  -23.6163  -45.4614 N.am      13 UNK        -0.5000 
     75 CA         -4.3821  -24.9018  -44.9401 C.3       13 UNK         0.1400 
     76 CB         -3.5667  -25.2853  -43.6966 C.3       13 UNK        -0.1800 
     77 C          -4.3352  -26.0283  -45.9909 C.2       13 UNK         0.5000 
     78 O          -5.2432  -26.8583  -46.0367 O.2       13 UNK        -0.5000 
     79 N          -3.3066  -26.0022  -46.8500 N.am      14 UNK        -0.5000 
     80 CA         -3.1609  -26.8642  -48.0261 C.3       14 UNK         0.1400 
     81 CB         -1.6933  -26.8220  -48.4829 C.3       14 UNK        -0.1800 
     82 C          -4.0933  -26.4792  -49.1961 C.2       14 UNK         0.5000 
     83 O          -4.1261  -27.1979  -50.1946 O.2       14 UNK        -0.5000 
     84 N          -4.7966  -25.3432  -49.0721 N.am      15 UNK        -0.5000 
     85 CA         -5.7075  -24.7035  -50.0287 C.3       15 UNK         0.1400 
     86 CB         -6.8467  -25.6495  -50.4561 C.3       15 UNK        -0.1800 
     87 C          -5.0148  -24.0558  -51.2434 C.2       15 UNK         0.5000 
     88 O          -5.6927  -23.4017  -52.0358 O.2       15 UNK        -0.5000 
     89 N          -3.6891  -24.2028  -51.3583 N.am      16 UNK        -0.5000 
     90 CA         -2.8677  -23.7160  -52.4634 C.3       16 UNK         0.1400 
     91 CB         -1.4324  -24.2368  -52.2947 C.3       16 UNK        -0.1800 
     92 C          -2.8911  -22.1857  -52.5943 C.2       16 UNK         0.5000 
     93 O          -3.1354  -21.6782  -53.6886 O.2       16 UNK        -0.5000 
     94 N          -2.6837  -21.4851  -51.4713 N.am      17 UNK        -0.5000 
     95 CA         -2.7436  -20.0223  -51.4090 C.3       17 UNK         0.1400 
     96 CB         -1.8917  -19.5112  -50.2374 C.3       17 UNK        -0.1800 
     97 C          -4.1846  -19.4934  -51.3058 C.2       17 UNK         0.5000 
     98 O          -4.4345  -18.3543  -51.6988 O.2       17 UNK        -0.5000 
     99 N          -5.1066  -20.3197  -50.7902 N.am      18 UNK        -0.5000 
    100 CA        -6.5201  -19.9750  -50.6256 C.3       18 UNK         0.1400 
    101 CB        -7.1860  -20.9585  -49.6511 C.3       18 UNK        -0.1800 
    102 C         -7.2650  -19.9448  -51.9715 C.2       18 UNK         0.5000 
    103 O         -7.9941  -18.9905  -52.2434 O.2       18 UNK        -0.5000 
    104 N         -7.0463  -20.9765  -52.7983 N.am      19 UNK        -0.5000 
    105 CA        -7.6023  -21.0870  -54.1484 C.3       19 UNK         0.1400 
    106 CB        -7.6829  -22.5755  -54.5252 C.3       19 UNK        -0.1800 
    107 C         -6.7763  -20.3201  -55.1995 C.2       19 UNK         0.5000 
    108 O         -7.2505  -20.1457  -56.3223 O.2       19 UNK        -0.5000 
    109 N         -5.5492  -19.9188  -54.8312 N.am      20 UNK        -0.5000 
    110 CA        -4.5029  -19.3331  -55.6798 C.3       20 UNK         0.1400 
    111 CB        -4.9428  -17.9780  -56.2701 C.3       20 UNK        -0.1800 
    112 C         -3.9776  -20.3177  -56.7483 C.2       20 UNK         0.5000 
    113 O         -3.4239  -19.8980  -57.7666 O.2       20 UNK        -0.5000 
    114 N         -4.1191  -21.6218  -56.4705 N.am      21 UNK        -0.5000 
    115 CA        -3.6245  -22.7383  -57.2769 C.3       21 UNK         0.1400 
    116 CB        -4.2167  -24.0445  -56.7263 C.3       21 UNK        -0.1800 
    117 C         -2.0857  -22.8110  -57.3242 C.2       21 UNK         0.5000 
    118 O         -1.5348  -23.4230  -58.2399 O.2       21 UNK        -0.5000 
    119 N         -1.4251  -22.1605  -56.3582 N.am      22 UNK        -0.5000 
    120 CA         0.0188  -21.8947  -56.3430 C.3       22 UNK         0.1400 
    121 C          0.5319  -20.9463  -57.4716 C.2       22 UNK         0.5000 
    122 N         -0.3245  -20.2154  -58.1784 N.am      22 UNK        -0.7600 
    123 O          1.7339  -20.8809  -57.7143 O.2       22 UNK        -0.5000 
    124 C124        0.4773  -21.4161  -54.9430 C.3       23 UNK        -0.0398 
    125 S125       -0.3054  -19.8466  -54.4162 S.3       23 UNK        -0.2404 
    126 C126        1.1456  -18.8094  -54.0559 C.3       23 UNK        -0.0205 
    127 H127       -3.8519  -13.8953  -48.6319 H         1 UNK         0.0600 
    128 H128       -4.1549  -12.3308  -47.8704 H         1 UNK         0.0600 
    129 H129       -4.7638  -13.8107  -47.1216 H         1 UNK         0.0600 
    130 H130       -1.7554  -14.6102  -48.3166 H         1 UNK         0.3000 
    131 H131       -0.0016  -13.3989  -46.4285 H         1 UNK         0.0600 
    132 H132        1.7302  -14.9026  -47.3628 H         1 UNK         0.0800 
    133 H133        0.8705  -14.0012  -48.5730 H         1 UNK         0.0800 
    134 H134        2.7655  -16.6023  -48.8721 H         1 UNK         0.0800 
    135 H135        2.1579  -15.6775  -50.2247 H         1 UNK         0.0800 
    136 H136        1.1804  -16.8177  -52.1989 H         1 UNK         0.1150 
    137 H137        2.0634  -20.9889  -52.6648 H         1 UNK         0.1150 
    138 H138        2.7699  -19.0482  -48.9148 H         1 UNK         0.1150 
    139 H139        4.0147  -21.5364  -50.1977 H         1 UNK         0.0800 
    140 H140        2.5669  -22.3351  -50.7644 H         1 UNK         0.0800 
    141 H141        0.3164  -21.6311  -49.5949 H         1 UNK         0.0800 
    142 H142        0.3343  -20.6469  -48.1499 H         1 UNK         0.0800 
    143 H143        0.0629  -23.6950  -48.2910 H         1 UNK         0.0600 
    144 H144        0.6569  -22.0521  -45.9907 H         1 UNK         0.3000 
    145 H145       -0.2848  -24.5058  -43.5695 H         1 UNK         0.0600 
    146 H146        1.9332  -25.3243  -44.3816 H         1 UNK         0.0600 
    147 H147        2.1071  -24.3377  -42.9391 H         1 UNK         0.0600 
    148 H148        2.5073  -23.6669  -44.5211 H         1 UNK         0.0600 
    149 H149        1.0799  -22.0343  -43.2919 H         1 UNK         0.3000 
    150 H150       -1.6250  -19.8098  -43.4979 H         1 UNK         0.0600 
    151 H151       -0.3377  -20.7811  -40.8930 H         1 UNK         0.0600 
    152 H152       -2.0673  -20.7382  -41.2180 H         1 UNK         0.0600 
    153 H153       -1.1571  -19.2379  -41.1394 H         1 UNK         0.0600 
    154 H154        0.9867  -19.3948  -42.4882 H         1 UNK         0.3000 
    155 H155        3.0316  -19.3354  -44.2505 H         1 UNK         0.0600 
    156 H156        2.6870  -19.0652  -46.6609 H         1 UNK         0.0600 
    157 H157        3.4990  -17.6402  -46.0309 H         1 UNK         0.0600 
    158 H158        1.7792  -17.5774  -46.4151 H         1 UNK         0.0600 
    159 H159        1.8907  -16.6239  -44.1171 H         1 UNK         0.3000 
    160 H160        1.3740  -16.0254  -41.3492 H         1 UNK         0.0600 
    161 H161        4.3183  -16.3075  -40.5609 H         1 UNK         0.0600 
    162 H162        2.9285  -16.8847  -39.6513 H         1 UNK         0.0600 
    163 H163        3.1877  -15.1596  -39.8472 H         1 UNK         0.0600 
    164 H164        1.9493  -14.3249  -42.5687 H         1 UNK         0.3000 
    165 H165        5.0310  -13.0948  -43.8562 H         1 UNK         0.0600 
    166 H166        3.8980  -14.3058  -45.8000 H         1 UNK         0.0600 
    167 H167        2.3989  -13.4966  -45.3494 H         1 UNK         0.0600 
    168 H168        3.7897  -12.5518  -45.8593 H         1 UNK         0.0600 
    169 H169        2.3042  -12.5441  -42.7867 H         1 UNK         0.3000 
    170 H170        3.4485   -9.5261  -41.4018 H         1 UNK         0.0600 
    171 H171        1.4373   -8.4562  -42.3924 H         1 UNK         0.0600 
    172 H172        1.3300   -9.7269  -43.6119 H         1 UNK         0.0600 
    173 H173        2.6951   -8.6165  -43.6076 H         1 UNK         0.0600 
    174 H174        0.8743  -10.7898  -41.4491 H         1 UNK         0.3000 
    175 H175        1.4129  -13.4433  -39.3468 H         1 UNK         0.0600 
    176 H176        1.6217  -11.7870  -37.4780 H         1 UNK         0.0600 
    177 H177        0.2977  -10.8494  -38.1587 H         1 UNK         0.0600 
    178 H178        0.0122  -12.4815  -37.5517 H         1 UNK         0.0600 
    179 H179       -1.0564  -12.3145  -39.7103 H         1 UNK         0.3000 
    180 H180       -2.4534  -13.4700  -41.1048 H         1 UNK         0.0600 
    181 H181       -1.7371  -11.5955  -43.4320 H         1 UNK         0.0600 
    182 H182       -2.3303  -11.0888  -41.8545 H         1 UNK         0.0600 
    183 H183       -3.3728  -12.0122  -42.9252 H         1 UNK         0.0600 
    184 H184       -2.0957  -13.9877  -43.9037 H         1 UNK         0.3000 
    185 H185       -0.8895  -17.2592  -43.7543 H         1 UNK         0.0600 
    186 H186       -3.2195  -17.8414  -43.0582 H         1 UNK         0.0600 
    187 H187       -3.8637  -16.6321  -44.1631 H         1 UNK         0.0600 
    188 H188       -3.0025  -18.0374  -44.7897 H         1 UNK         0.0600 
    189 H189       -2.2635  -15.7148  -45.7776 H         1 UNK         0.3000 
    190 H190       -1.7848  -21.5219  -46.2155 H         1 UNK         0.3000 
    191 H191       -4.1361  -21.4428  -47.9515 H         1 UNK         0.0600 
    192 H192       -3.6571  -19.5383  -46.4802 H         1 UNK         0.0600 
    193 H193       -5.1761  -20.2825  -46.0085 H         1 UNK         0.0600 
    194 H194       -3.7302  -20.5664  -45.0468 H         1 UNK         0.0600 
    195 H195       -3.0897  -23.2181  -45.0032 H         1 UNK         0.3000 
    196 H196       -5.4234  -24.7723  -44.6383 H         1 UNK         0.0600 
    197 H197       -3.9355  -26.2138  -43.2592 H         1 UNK         0.0600 
    198 H198       -3.6318  -24.5147  -42.9281 H         1 UNK         0.0600 
    199 H199       -2.5136  -25.4314  -43.9364 H         1 UNK         0.0600 
    200 H200       -2.5540  -25.3425  -46.6818 H         1 UNK         0.3000 
    201 H201       -3.4028  -27.8893  -47.7385 H         1 UNK         0.0600 
    202 H202       -1.5256  -27.4796  -49.3367 H         1 UNK         0.0600 
    203 H203       -1.0237  -27.1498  -47.6876 H         1 UNK         0.0600 
    204 H204       -1.3941  -25.8157  -48.7788 H         1 UNK         0.0600 
    205 H205       -4.6950  -24.8324  -48.2037 H         1 UNK         0.3000 
    206 H206       -6.1657  -23.8834  -49.4787 H         1 UNK         0.0600 
    207 H207       -7.3437  -26.0855  -49.5895 H         1 UNK         0.0600 
    208 H208       -7.6043  -25.1113  -51.0271 H         1 UNK         0.0600 
    209 H209       -6.4878  -26.4640  -51.0855 H         1 UNK         0.0600 
    210 H210       -3.2066  -24.6912  -50.6187 H         1 UNK         0.3000 
    211 H211       -3.2759  -24.1355  -53.3842 H         1 UNK         0.0600 
    212 H212       -1.4144  -25.3247  -52.2267 H         1 UNK         0.0600 
    213 H213       -0.8145  -23.9588  -53.1479 H         1 UNK         0.0600 
    214 H214       -0.9578  -23.8385  -51.3968 H         1 UNK         0.0600 
    215 H215       -2.5146  -21.9904  -50.6059 H         1 UNK         0.3000 
    216 H216       -2.3194  -19.6099  -52.3257 H         1 UNK         0.0600 
    217 H217       -2.2249  -19.9165  -49.2826 H         1 UNK         0.0600 
    218 H218       -1.9404  -18.4238  -50.1643 H         1 UNK         0.0600 
    219 H219       -0.8424  -19.7680  -50.3773 H         1 UNK         0.0600 
    220 H220       -4.8247  -21.2527  -50.5326 H         1 UNK         0.3000 
    221 H221       -6.5774  -18.9772  -50.1848 H         1 UNK         0.0600 
    222 H222       -7.2538  -21.9607  -50.0724 H         1 UNK         0.0600 
    223 H223       -6.6405  -21.0213  -48.7093 H         1 UNK         0.0600 
    224 H224       -8.2021  -20.6391  -49.4169 H         1 UNK         0.0600 
    225 H225       -6.4660  -21.7533  -52.4885 H         1 UNK         0.3000 
    226 H226       -8.6147  -20.6776  -54.1564 H         1 UNK         0.0600 
    227 H227       -8.2754  -23.1347  -53.8008 H         1 UNK         0.0600 
    228 H228       -8.1517  -22.7085  -55.5010 H         1 UNK         0.0600 
    229 H229       -6.6938  -23.0331  -54.5721 H         1 UNK         0.0600 
    230 H230       -5.2632  -20.1332  -53.8865 H         1 UNK         0.3000 
    231 H231       -3.6584  -19.1398  -55.0162 H         1 UNK         0.0600 
    232 H232       -5.7260  -18.0942  -57.0194 H         1 UNK         0.0600 
    233 H233       -4.1048  -17.4737  -56.7526 H         1 UNK         0.0600 
    234 H234       -5.3163  -17.3124  -55.4920 H         1 UNK         0.0600 
    235 H235       -4.4994  -21.8580  -55.5647 H         1 UNK         0.3000 
    236 H236       -3.9797  -22.5998  -58.2999 H         1 UNK         0.0600 
    237 H237       -3.9060  -24.2241  -55.6971 H         1 UNK         0.0600 
    238 H238       -5.3066  -24.0240  -56.7491 H         1 UNK         0.0600 
    239 H239       -3.8957  -24.9006  -57.3209 H         1 UNK         0.0600 
    240 H240       -1.9643  -21.7072  -55.6305 H         1 UNK         0.3000 
    241 H241        0.5089  -22.8528  -56.5258 H         1 UNK         0.0600 
    242 H242       -1.3183  -20.2386  -57.9862 H         1 UNK         0.3800 
    243 H243        0.0259  -19.6124  -58.9055 H         1 UNK         0.3800 
    244 H244        0.2353  -22.1729  -54.1979 H         1 UNK         0.0800 
    245 H245        1.5641  -21.3273  -54.9218 H         1 UNK         0.0800 
    246 H246        1.9818  -19.0765  -54.7031 H         1 UNK         0.0800 
    247 H247        0.8897  -17.7804  -54.3124 H         1 UNK         0.0800 
@<TRIPOS>BOND
     1    1    2 1    
     2    1  127 1    
     3    1  128 1    
     4    1  129 1    
     5    2    3 2    
     6    2    4 am   BACKBONE|DICT|INTERRES
     7    4    5 1    
     8    4  130 1    
     9    5    6 1    
    10    5   65 1    
    11    5  131 1    
    12    6    7 1    
    13    6  132 1    
    14    6  133 1    
    15    7    8 1    
    16    8    9 1    
    17    8  134 1    
    18    8  135 1    
    19    9   10 ar   
    20    9   14 ar   
    21   10   11 ar   
    22   10  136 1    
    23   11   12 ar   
    24   11  126 1    
    25   12   13 ar   
    26   12  137 1    
    27   13   14 ar   
    28   13   15 1    
    29   14  138 1    
    30   15   16 1    
    31   15  139 1    
    32   15  140 1    
    33   16   17 1    
    34   17   18 1    
    35   17  141 1    
    36   17  142 1    
    37   18   19 1    
    38   18   67 1    
    39   18  143 1    
    40   19   20 am   BACKBONE|DICT|INTERRES
    41   19  144 1    
    42   20   21 2    
    43   20   22 1    
    44   22   23 1    
    45   22   24 1    
    46   22  145 1    
    47   23  146 1    
    48   23  147 1    
    49   23  148 1    
    50   24   25 am   BACKBONE|DICT|INTERRES
    51   24  149 1    
    52   25   26 2    
    53   25   27 1    
    54   27   28 1    
    55   27   29 1    
    56   27  150 1    
    57   28  151 1    
    58   28  152 1    
    59   28  153 1    
    60   29   30 am   BACKBONE|DICT|INTERRES
    61   29  154 1    
    62   30   31 2    
    63   30   32 1    
    64   32   33 1    
    65   32   34 1    
    66   32  155 1    
    67   33  156 1    
    68   33  157 1    
    69   33  158 1    
    70   34   35 am   BACKBONE|DICT|INTERRES
    71   34  159 1    
    72   35   36 2    
    73   35   37 1    
    74   37   38 1    
    75   37   39 1    
    76   37  160 1    
    77   38  161 1    
    78   38  162 1    
    79   38  163 1    
    80   39   40 am   BACKBONE|DICT|INTERRES
    81   39  164 1    
    82   40   41 2    
    83   40   42 1    
    84   42   43 1    
    85   42   44 1    
    86   42  165 1    
    87   43  166 1    
    88   43  167 1    
    89   43  168 1    
    90   44   45 am   BACKBONE|DICT|INTERRES
    91   44  169 1    
    92   45   46 2    
    93   45   47 1    
    94   47   48 1    
    95   47   49 1    
    96   47  170 1    
    97   48  171 1    
    98   48  172 1    
    99   48  173 1    
   100   49   50 am   BACKBONE|DICT|INTERRES
   101   49  174 1    
   102   50   51 2    
   103   50   52 1    
   104   52   53 1    
   105   52   54 1    
   106   52  175 1    
   107   53  176 1    
   108   53  177 1    
   109   53  178 1    
   110   54   55 am   BACKBONE|DICT|INTERRES
   111   54  179 1    
   112   55   56 2    
   113   55   57 1    
   114   57   58 1    
   115   57   59 1    
   116   57  180 1    
   117   58  181 1    
   118   58  182 1    
   119   58  183 1    
   120   59   60 am   BACKBONE|DICT|INTERRES
   121   59  184 1    
   122   60   61 2    
   123   60   62 1    
   124   62   63 1    
   125   62   64 1    
   126   62  185 1    
   127   63  186 1    
   128   63  187 1    
   129   63  188 1    
   130   64   65 am   BACKBONE|DICT|INTERRES
   131   64  189 1    
   132   65   66 2    
   133   67   68 2    
   134   67   69 am   BACKBONE|DICT|INTERRES
   135   69   70 1    
   136   69  190 1    
   137   70   71 1    
   138   70   72 1    
   139   70  191 1    
   140   71  192 1    
   141   71  193 1    
   142   71  194 1    
   143   72   73 2    
   144   72   74 am   BACKBONE|DICT|INTERRES
   145   74   75 1    
   146   74  195 1    
   147   75   76 1    
   148   75   77 1    
   149   75  196 1    
   150   76  197 1    
   151   76  198 1    
   152   76  199 1    
   153   77   78 2    
   154   77   79 am   BACKBONE|DICT|INTERRES
   155   79   80 1    
   156   79  200 1    
   157   80   81 1    
   158   80   82 1    
   159   80  201 1    
   160   81  202 1    
   161   81  203 1    
   162   81  204 1    
   163   82   83 2    
   164   82   84 am   BACKBONE|DICT|INTERRES
   165   84   85 1    
   166   84  205 1    
   167   85   86 1    
   168   85   87 1    
   169   85  206 1    
   170   86  207 1    
   171   86  208 1    
   172   86  209 1    
   173   87   88 2    
   174   87   89 am   BACKBONE|DICT|INTERRES
   175   89   90 1    
   176   89  210 1    
   177   90   91 1    
   178   90   92 1    
   179   90  211 1    
   180   91  212 1    
   181   91  213 1    
   182   91  214 1    
   183   92   93 2    
   184   92   94 am   BACKBONE|DICT|INTERRES
   185   94   95 1    
   186   94  215 1    
   187   95   96 1    
   188   95   97 1    
   189   95  216 1    
   190   96  217 1    
   191   96  218 1    
   192   96  219 1    
   193   97   98 2    
   194   97   99 am   BACKBONE|DICT|INTERRES
   195   99  100 1    
   196   99  220 1    
   197  100  101 1    
   198  100  102 1    
   199  100  221 1    
   200  101  222 1    
   201  101  223 1    
   202  101  224 1    
   203  102  103 2    
   204  102  104 am   BACKBONE|DICT|INTERRES
   205  104  105 1    
   206  104  225 1    
   207  105  106 1    
   208  105  107 1    
   209  105  226 1    
   210  106  227 1    
   211  106  228 1    
   212  106  229 1    
   213  107  108 2    
   214  107  109 am   BACKBONE|DICT|INTERRES
   215  109  110 1    
   216  109  230 1    
   217  110  111 1    
   218  110  112 1    
   219  110  231 1    
   220  111  232 1    
   221  111  233 1    
   222  111  234 1    
   223  112  113 2    
   224  112  114 am   BACKBONE|DICT|INTERRES
   225  114  115 1    
   226  114  235 1    
   227  115  116 1    
   228  115  117 1    
   229  115  236 1    
   230  116  237 1    
   231  116  238 1    
   232  116  239 1    
   233  117  118 2    
   234  117  119 am   BACKBONE|DICT|INTERRES
   235  119  120 1    
   236  119  240 1    
   237  120  121 1    
   238  120  124 1    
   239  120  241 1    
   240  121  122 am   BACKBONE|DICT|INTERRES
   241  121  123 2    
   242  122  242 1    
   243  122  243 1    
   244  124  125 1    
   245  124  244 1    
   246  124  245 1    
   247  125  126 1    
   248  126  246 1    
   249  126  247 1    
@<TRIPOS>SUBSTRUCTURE
     1 UNK         1 GROUP             0       ****    0 ROOT    
