@<TRIPOS>MOLECULE
3R540
247   249    1
SMALL
USER_CHARGES


@<TRIPOS>ATOM
      1 CA          2.6128  -11.5124  -45.6419 C.3       0 UNK        -0.1800 
      2 C           3.0647  -12.4685  -46.7352 C.2       0 UNK         0.5000 
      3 O           4.1886  -12.3527  -47.2240 O.2       0 UNK        -0.5000 
      4 N           2.1907  -13.4057  -47.1224 N.am      1 UNK        -0.5000 
      5 CA          2.4513  -14.4248  -48.1462 C.3       1 UNK         0.1400 
      6 C6          1.1651  -15.1566  -48.5952 C.3       23 UNK        -0.0398 
      7 S7         -0.0868  -14.0375  -49.3135 S.3       23 UNK        -0.2404 
      8 C8          0.0340  -14.4045  -51.0963 C.3       23 UNK        -0.0205 
      9 C9         -0.3830  -15.8332  -51.4146 C.ar      23 UNK        -0.0193 
     10 C10         0.5806  -16.7914  -51.7427 C.ar      23 UNK        -0.1150 
     11 C11         0.2201  -18.1203  -51.9797 C.ar      23 UNK        -0.0193 
     12 C12        -1.1298  -18.4796  -51.8877 C.ar      23 UNK        -0.1150 
     13 C13        -2.1073  -17.5310  -51.5753 C.ar      23 UNK        -0.0193 
     14 C14        -1.7289  -16.2041  -51.3550 C.ar      23 UNK        -0.1150 
     15 C15        -3.5662  -17.9550  -51.4599 C.3       23 UNK        -0.0205 
     16 S16        -4.3023  -17.6298  -49.8196 S.3       23 UNK        -0.2404 
     17 C17        -3.0183  -18.1440  -48.6282 C.3       23 UNK        -0.0398 
     18 CA         -2.5598  -19.6180  -48.7451 C.3       11 UNK         0.1400 
     19 N          -1.2111  -19.7938  -48.2053 N.am      11 UNK        -0.5000 
     20 C          -0.4412  -20.8705  -48.4064 C.2       10 UNK         0.5000 
     21 O          -0.7663  -21.8186  -49.1183 O.2       10 UNK        -0.5000 
     22 CA          0.9020  -20.9092  -47.6554 C.3       10 UNK         0.1400 
     23 CB          2.0225  -20.3163  -48.5200 C.3       10 UNK        -0.1800 
     24 N           0.8494  -20.2061  -46.3706 N.am      10 UNK        -0.5000 
     25 C           0.1984  -20.6666  -45.2939 C.2       9 UNK         0.5000 
     26 O          -0.4043  -21.7387  -45.2694 O.2       9 UNK        -0.5000 
     27 CA          0.1638  -19.7513  -44.0572 C.3       9 UNK         0.1400 
     28 CB          1.4320  -19.9249  -43.2137 C.3       9 UNK        -0.1800 
     29 N          -0.0341  -18.3318  -44.3725 N.am      9 UNK        -0.5000 
     30 C          -1.1311  -17.8493  -44.9786 C.2       8 UNK         0.5000 
     31 O          -2.0262  -18.5724  -45.4180 O.2       8 UNK        -0.5000 
     32 CA         -1.2563  -16.3232  -45.1220 C.3       8 UNK         0.1400 
     33 CB         -2.7212  -15.8446  -45.1199 C.3       8 UNK        -0.1800 
     34 N          -0.5167  -15.6291  -44.0716 N.am      8 UNK        -0.5000 
     35 C           0.0327  -14.4170  -44.1926 C.2       7 UNK         0.5000 
     36 O           0.0553  -13.7918  -45.2537 O.2       7 UNK        -0.5000 
     37 CA          0.6984  -13.8039  -42.9436 C.3       7 UNK         0.1400 
     38 CB          0.2519  -12.3479  -42.7014 C.3       7 UNK        -0.1800 
     39 N           0.5682  -14.6022  -41.7191 N.am      7 UNK        -0.5000 
     40 C          -0.5232  -14.8495  -40.9782 C.2       6 UNK         0.5000 
     41 O          -1.6544  -14.4518  -41.2544 O.2       6 UNK        -0.5000 
     42 CA         -0.3048  -15.6978  -39.7134 C.3       6 UNK         0.1400 
     43 CB         -0.2757  -17.1916  -40.0780 C.3       6 UNK        -0.1800 
     44 N           0.9563  -15.3398  -39.0641 N.am      6 UNK        -0.5000 
     45 C           1.0832  -14.5416  -37.9962 C.2       5 UNK         0.5000 
     46 O           0.1308  -14.0978  -37.3535 O.2       5 UNK        -0.5000 
     47 CA          2.5216  -14.1585  -37.5834 C.3       5 UNK         0.1400 
     48 CB          3.0937  -15.1936  -36.6031 C.3       5 UNK        -0.1800 
     49 N           3.4314  -14.0267  -38.7252 N.am      5 UNK        -0.5000 
     50 C           3.3299  -13.0853  -39.6738 C.2       4 UNK         0.5000 
     51 O           2.5382  -12.1446  -39.6089 O.2       4 UNK        -0.5000 
     52 CA          4.2375  -13.2103  -40.9190 C.3       4 UNK         0.1400 
     53 CB          5.4013  -12.2112  -40.8285 C.3       4 UNK        -0.1800 
     54 N           4.7858  -14.5409  -41.2279 N.am      4 UNK        -0.5000 
     55 C           4.1117  -15.6951  -41.3213 C.2       3 UNK         0.5000 
     56 O           2.9293  -15.8248  -41.0081 O.2       3 UNK        -0.5000 
     57 CA          4.8818  -16.8948  -41.9001 C.3       3 UNK         0.1400 
     58 CB          4.3146  -18.2382  -41.4047 C.3       3 UNK        -0.1800 
     59 N           4.9203  -16.8665  -43.3674 N.am      3 UNK        -0.5000 
     60 C           3.8912  -16.7724  -44.2242 C.2       2 UNK         0.5000 
     61 O           2.6991  -16.6944  -43.9083 O.2       2 UNK        -0.5000 
     62 CA          4.2584  -16.8003  -45.7113 C.3       2 UNK         0.1400 
     63 CB          4.1328  -18.2316  -46.2636 C.3       2 UNK        -0.1800 
     64 N           3.3584  -15.8915  -46.4097 N.am      2 UNK        -0.5000 
     65 C           3.4986  -15.4490  -47.6649 C.2       1 UNK         0.5000 
     66 O           4.4046  -15.7986  -48.4222 O.2       1 UNK        -0.5000 
     67 C          -3.5511  -20.6015  -48.0884 C.2       11 UNK         0.5000 
     68 O          -4.3790  -21.1989  -48.7782 O.2       11 UNK        -0.5000 
     69 N          -3.4099  -20.7831  -46.7692 N.am      12 UNK        -0.5000 
     70 CA         -4.1490  -21.7598  -45.9807 C.3       12 UNK         0.1400 
     71 CB         -3.9732  -21.4474  -44.4857 C.3       12 UNK        -0.1800 
     72 C          -3.7346  -23.2054  -46.3104 C.2       12 UNK         0.5000 
     73 O          -4.5786  -23.9892  -46.7439 O.2       12 UNK        -0.5000 
     74 N          -2.4562  -23.5358  -46.0866 N.am      13 UNK        -0.5000 
     75 CA         -1.9346  -24.8975  -46.1751 C.3       13 UNK         0.1400 
     76 CB         -0.6769  -25.0276  -45.2968 C.3       13 UNK        -0.1800 
     77 C          -1.6752  -25.3395  -47.6247 C.2       13 UNK         0.5000 
     78 O          -2.4391  -26.1434  -48.1595 O.2       13 UNK        -0.5000 
     79 N          -0.5866  -24.8342  -48.2216 N.am      14 UNK        -0.5000 
     80 CA         -0.0429  -25.2826  -49.5080 C.3       14 UNK         0.1400 
     81 CB          1.2935  -24.5718  -49.7755 C.3       14 UNK        -0.1800 
     82 C          -1.0049  -25.1047  -50.6959 C.2       14 UNK         0.5000 
     83 O          -1.0957  -25.9935  -51.5435 O.2       14 UNK        -0.5000 
     84 N          -1.7231  -23.9768  -50.7180 N.am      15 UNK        -0.5000 
     85 CA         -2.7241  -23.6509  -51.7325 C.3       15 UNK         0.1400 
     86 CB         -2.8058  -22.1286  -51.8732 C.3       15 UNK        -0.1800 
     87 C          -4.1161  -24.2510  -51.4515 C.2       15 UNK         0.5000 
     88 O          -5.0162  -24.0456  -52.2687 O.2       15 UNK        -0.5000 
     89 N          -4.2683  -24.9675  -50.3259 N.am      16 UNK        -0.5000 
     90 CA         -5.4667  -25.6772  -49.8695 C.3       16 UNK         0.1400 
     91 CB         -5.7584  -26.8789  -50.7923 C.3       16 UNK        -0.1800 
     92 C          -6.6770  -24.7388  -49.7050 C.2       16 UNK         0.5000 
     93 O          -7.6650  -24.8680  -50.4278 O.2       16 UNK        -0.5000 
     94 N          -6.5550  -23.7853  -48.7717 N.am      17 UNK        -0.5000 
     95 CA         -7.5264  -22.7309  -48.4564 C.3       17 UNK         0.1400 
     96 CB         -8.7799  -23.3291  -47.7851 C.3       17 UNK        -0.1800 
     97 C          -7.8516  -21.8481  -49.6795 C.2       17 UNK         0.5000 
     98 O          -9.0196  -21.5806  -49.9676 O.2       17 UNK        -0.5000 
     99 N          -6.7881  -21.4374  -50.3841 N.am      18 UNK        -0.5000 
    100 CA        -6.7774  -20.6142  -51.5963 C.3       18 UNK         0.1400 
    101 CB        -7.3342  -19.2065  -51.2993 C.3       18 UNK        -0.1800 
    102 C         -7.4637  -21.2563  -52.8232 C.2       18 UNK         0.5000 
    103 O         -7.7949  -20.5348  -53.7648 O.2       18 UNK        -0.5000 
    104 N         -7.6525  -22.5845  -52.8230 N.am      19 UNK        -0.5000 
    105 CA        -8.2593  -23.3274  -53.9303 C.3       19 UNK         0.1400 
    106 CB        -8.6259  -24.7466  -53.4737 C.3       19 UNK        -0.1800 
    107 C         -7.3492  -23.3752  -55.1689 C.2       19 UNK         0.5000 
    108 O         -7.8199  -23.1262  -56.2796 O.2       19 UNK        -0.5000 
    109 N         -6.0605  -23.6702  -54.9514 N.am      20 UNK        -0.5000 
    110 CA        -5.0317  -23.6486  -55.9941 C.3       20 UNK         0.1400 
    111 CB        -3.9437  -24.6752  -55.6469 C.3       20 UNK        -0.1800 
    112 C         -4.4144  -22.2482  -56.1640 C.2       20 UNK         0.5000 
    113 O         -3.8654  -21.9508  -57.2257 O.2       20 UNK        -0.5000 
    114 N         -4.4892  -21.4298  -55.1020 N.am      21 UNK        -0.5000 
    115 CA        -4.0182  -20.0406  -54.9885 C.3       21 UNK         0.1400 
    116 CB        -4.9263  -19.1123  -55.8193 C.3       21 UNK        -0.1800 
    117 C         -2.5183  -19.8361  -55.3103 C.2       21 UNK         0.5000 
    118 O         -2.1213  -18.7309  -55.6817 O.2       21 UNK        -0.5000 
    119 N         -1.7224  -20.9089  -55.1875 N.am      22 UNK        -0.5000 
    120 CA        -0.3226  -21.0094  -55.6412 C.3       22 UNK         0.1400 
    121 C         -0.1381  -20.8629  -57.1864 C.2       22 UNK         0.5000 
    122 N         -1.1642  -21.0840  -58.0013 N.am      22 UNK        -0.7600 
    123 O          0.9569  -20.5796  -57.6654 O.2       22 UNK        -0.5000 
    124 C124        0.6562  -20.1223  -54.8194 C.3       23 UNK        -0.0398 
    125 S125        0.7938  -20.6777  -53.0880 S.3       23 UNK        -0.2404 
    126 C126        1.3258  -19.1368  -52.2671 C.3       23 UNK        -0.0205 
    127 H127        2.9225  -11.8823  -44.6646 H         1 UNK         0.0600 
    128 H128        1.5289  -11.3981  -45.6457 H         1 UNK         0.0600 
    129 H129        3.0529  -10.5264  -45.7914 H         1 UNK         0.0600 
    130 H130        1.2862  -13.4589  -46.6589 H         1 UNK         0.3000 
    131 H131        2.8696  -13.9189  -49.0193 H         1 UNK         0.0600 
    132 H132        0.7056  -15.6675  -47.7498 H         1 UNK         0.0800 
    133 H133        1.4104  -15.9396  -49.3118 H         1 UNK         0.0800 
    134 H134       -0.6082  -13.7131  -51.6436 H         1 UNK         0.0800 
    135 H135        1.0524  -14.2102  -51.4363 H         1 UNK         0.0800 
    136 H136        1.6226  -16.5065  -51.7881 H         1 UNK         0.1150 
    137 H137       -1.4264  -19.5037  -52.0447 H         1 UNK         0.1150 
    138 H138       -2.4778  -15.4677  -51.0988 H         1 UNK         0.1150 
    139 H139       -4.1488  -17.4279  -52.2165 H         1 UNK         0.0800 
    140 H140       -3.6768  -19.0170  -51.6791 H         1 UNK         0.0800 
    141 H141       -3.3873  -17.9322  -47.6246 H         1 UNK         0.0800 
    142 H142       -2.1688  -17.4741  -48.7685 H         1 UNK         0.0800 
    143 H143       -2.4984  -19.8753  -49.8001 H         1 UNK         0.0600 
    144 H144       -0.8908  -19.0917  -47.5569 H         1 UNK         0.3000 
    145 H145        1.1423  -21.9573  -47.4649 H         1 UNK         0.0600 
    146 H146        2.9901  -20.4068  -48.0269 H         1 UNK         0.0600 
    147 H147        2.0975  -20.8478  -49.4694 H         1 UNK         0.0600 
    148 H148        1.8516  -19.2617  -48.7406 H         1 UNK         0.0600 
    149 H149        1.3115  -19.3118  -46.3114 H         1 UNK         0.3000 
    150 H150       -0.6848  -20.0714  -43.4487 H         1 UNK         0.0600 
    151 H151        1.6162  -20.9767  -42.9908 H         1 UNK         0.0600 
    152 H152        1.3307  -19.4073  -42.2605 H         1 UNK         0.0600 
    153 H153        2.3144  -19.5361  -43.7228 H         1 UNK         0.0600 
    154 H154        0.7005  -17.6939  -44.0867 H         1 UNK         0.3000 
    155 H155       -0.8222  -16.0791  -46.0916 H         1 UNK         0.0600 
    156 H156       -3.2171  -16.0859  -44.1790 H         1 UNK         0.0600 
    157 H157       -3.2949  -16.3058  -45.9233 H         1 UNK         0.0600 
    158 H158       -2.7845  -14.7659  -45.2634 H         1 UNK         0.0600 
    159 H159       -0.4831  -16.0800  -43.1689 H         1 UNK         0.3000 
    160 H160        1.7658  -13.7871  -43.1662 H         1 UNK         0.0600 
    161 H161        0.7641  -11.9173  -41.8410 H         1 UNK         0.0600 
    162 H162       -0.8212  -12.2761  -42.5240 H         1 UNK         0.0600 
    163 H163        0.4768  -11.7156  -43.5592 H         1 UNK         0.0600 
    164 H164        1.4349  -15.0529  -41.4267 H         1 UNK         0.3000 
    165 H165       -1.1448  -15.5250  -39.0374 H         1 UNK         0.0600 
    166 H166       -0.1662  -17.8100  -39.1870 H         1 UNK         0.0600 
    167 H167       -1.2005  -17.4929  -40.5715 H         1 UNK         0.0600 
    168 H168        0.5496  -17.4288  -40.7510 H         1 UNK         0.0600 
    169 H169        1.7996  -15.6155  -39.5602 H         1 UNK         0.3000 
    170 H170        2.4749  -13.1939  -37.0736 H         1 UNK         0.0600 
    171 H171        2.4504  -15.2999  -35.7285 H         1 UNK         0.0600 
    172 H172        3.1855  -16.1776  -37.0647 H         1 UNK         0.0600 
    173 H173        4.0796  -14.8961  -36.2457 H         1 UNK         0.0600 
    174 H174        4.1069  -14.7646  -38.8570 H         1 UNK         0.3000 
    175 H175        3.6216  -12.9246  -41.7735 H         1 UNK         0.0600 
    176 H176        6.0904  -12.4718  -40.0242 H         1 UNK         0.0600 
    177 H177        5.9674  -12.1768  -41.7595 H         1 UNK         0.0600 
    178 H178        5.0392  -11.2002  -40.6357 H         1 UNK         0.0600 
    179 H179        5.7579  -14.5474  -41.5017 H         1 UNK         0.3000 
    180 H180        5.9133  -16.8246  -41.5515 H         1 UNK         0.0600 
    181 H181        3.2721  -18.3623  -41.6905 H         1 UNK         0.0600 
    182 H182        4.3625  -18.3037  -40.3172 H         1 UNK         0.0600 
    183 H183        4.8763  -19.0800  -41.8092 H         1 UNK         0.0600 
    184 H184        5.8493  -16.9171  -43.7618 H         1 UNK         0.3000 
    185 H185        5.2833  -16.4452  -45.8375 H         1 UNK         0.0600 
    186 H186        4.7800  -18.9196  -45.7183 H         1 UNK         0.0600 
    187 H187        3.1128  -18.6012  -46.1733 H         1 UNK         0.0600 
    188 H188        4.4184  -18.2859  -47.3138 H         1 UNK         0.0600 
    189 H189        2.6023  -15.5404  -45.8367 H         1 UNK         0.3000 
    190 H190       -2.7367  -20.2100  -46.2701 H         1 UNK         0.3000 
    191 H191       -5.2091  -21.6543  -46.2176 H         1 UNK         0.0600 
    192 H192       -2.9267  -21.4771  -44.1816 H         1 UNK         0.0600 
    193 H193       -4.5159  -22.1656  -43.8699 H         1 UNK         0.0600 
    194 H194       -4.3581  -20.4560  -44.2455 H         1 UNK         0.0600 
    195 H195       -1.8040  -22.8228  -45.7663 H         1 UNK         0.3000 
    196 H196       -2.6825  -25.5779  -45.7614 H         1 UNK         0.0600 
    197 H197       -0.2727  -26.0396  -45.3414 H         1 UNK         0.0600 
    198 H198       -0.9075  -24.8171  -44.2523 H         1 UNK         0.0600 
    199 H199        0.1154  -24.3440  -45.6024 H         1 UNK         0.0600 
    200 H200       -0.0490  -24.1398  -47.7264 H         1 UNK         0.3000 
    201 H201        0.1602  -26.3515  -49.4151 H         1 UNK         0.0600 
    202 H202        2.0089  -24.7584  -48.9745 H         1 UNK         0.0600 
    203 H203        1.1684  -23.4930  -49.8700 H         1 UNK         0.0600 
    204 H204        1.7447  -24.9285  -50.7022 H         1 UNK         0.0600 
    205 H205       -1.5326  -23.2674  -50.0124 H         1 UNK         0.3000 
    206 H206       -2.3903  -24.0521  -52.6902 H         1 UNK         0.0600 
    207 H207       -1.8343  -21.7128  -52.1330 H         1 UNK         0.0600 
    208 H208       -3.5093  -21.8375  -52.6485 H         1 UNK         0.0600 
    209 H209       -3.1373  -21.6686  -50.9479 H         1 UNK         0.0600 
    210 H210       -3.4609  -25.0738  -49.7233 H         1 UNK         0.3000 
    211 H211       -5.2374  -26.0706  -48.8779 H         1 UNK         0.0600 
    212 H212       -6.6102  -27.4531  -50.4262 H         1 UNK         0.0600 
    213 H213       -4.9048  -27.5553  -50.8364 H         1 UNK         0.0600 
    214 H214       -5.9891  -26.5655  -51.8108 H         1 UNK         0.0600 
    215 H215       -5.7111  -23.7816  -48.2026 H         1 UNK         0.3000 
    216 H216       -7.0452  -22.0762  -47.7294 H         1 UNK         0.0600 
    217 H217       -9.4551  -22.5419  -47.4479 H         1 UNK         0.0600 
    218 H218       -8.5121  -23.9228  -46.9111 H         1 UNK         0.0600 
    219 H219       -9.3394  -23.9697  -48.4674 H         1 UNK         0.0600 
    220 H220       -5.8733  -21.6662  -50.0051 H         1 UNK         0.3000 
    221 H221       -5.7260  -20.5027  -51.8622 H         1 UNK         0.0600 
    222 H222       -8.4194  -19.2163  -51.1926 H         1 UNK         0.0600 
    223 H223       -6.9170  -18.7991  -50.3796 H         1 UNK         0.0600 
    224 H224       -7.0908  -18.5114  -52.1037 H         1 UNK         0.0600 
    225 H225       -7.3410  -23.1285  -52.0273 H         1 UNK         0.3000 
    226 H226       -9.1830  -22.8183  -54.2136 H         1 UNK         0.0600 
    227 H227       -9.3316  -24.7222  -52.6432 H         1 UNK         0.0600 
    228 H228       -9.0944  -25.3093  -54.2820 H         1 UNK         0.0600 
    229 H229       -7.7467  -25.3051  -53.1506 H         1 UNK         0.0600 
    230 H230       -5.7576  -23.8768  -54.0014 H         1 UNK         0.3000 
    231 H231       -5.4714  -23.9361  -56.9516 H         1 UNK         0.0600 
    232 H232       -4.3620  -25.6785  -55.5640 H         1 UNK         0.0600 
    233 H233       -3.4532  -24.4395  -54.7040 H         1 UNK         0.0600 
    234 H234       -3.1742  -24.7065  -56.4194 H         1 UNK         0.0600 
    235 H235       -4.9740  -21.7944  -54.2962 H         1 UNK         0.3000 
    236 H236       -4.1394  -19.7621  -53.9420 H         1 UNK         0.0600 
    237 H237       -4.8175  -19.2960  -56.8886 H         1 UNK         0.0600 
    238 H238       -5.9758  -19.2533  -55.5603 H         1 UNK         0.0600 
    239 H239       -4.6893  -18.0630  -55.6396 H         1 UNK         0.0600 
    240 H240       -2.1423  -21.7740  -54.8856 H         1 UNK         0.3000 
    241 H241       -0.0384  -22.0454  -55.4536 H         1 UNK         0.0600 
    242 H242       -2.0805  -21.3397  -57.6440 H         1 UNK         0.3800 
    243 H243       -1.0289  -20.9976  -58.9959 H         1 UNK         0.3800 
    244 H244        1.6633  -20.1583  -55.2369 H         1 UNK         0.0800 
    245 H245        0.3521  -19.0756  -54.8517 H         1 UNK         0.0800 
    246 H246        2.1081  -18.6741  -52.8710 H         1 UNK         0.0800 
    247 H247        1.7916  -19.4010  -51.3190 H         1 UNK         0.0800 
@<TRIPOS>BOND
     1    1    2 1    
     2    1  127 1    
     3    1  128 1    
     4    1  129 1    
     5    2    3 2    
     6    2    4 am   BACKBONE|DICT|INTERRES
     7    4    5 1    
     8    4  130 1    
     9    5    6 1    
    10    5   65 1    
    11    5  131 1    
    12    6    7 1    
    13    6  132 1    
    14    6  133 1    
    15    7    8 1    
    16    8    9 1    
    17    8  134 1    
    18    8  135 1    
    19    9   10 ar   
    20    9   14 ar   
    21   10   11 ar   
    22   10  136 1    
    23   11   12 ar   
    24   11  126 1    
    25   12   13 ar   
    26   12  137 1    
    27   13   14 ar   
    28   13   15 1    
    29   14  138 1    
    30   15   16 1    
    31   15  139 1    
    32   15  140 1    
    33   16   17 1    
    34   17   18 1    
    35   17  141 1    
    36   17  142 1    
    37   18   19 1    
    38   18   67 1    
    39   18  143 1    
    40   19   20 am   BACKBONE|DICT|INTERRES
    41   19  144 1    
    42   20   21 2    
    43   20   22 1    
    44   22   23 1    
    45   22   24 1    
    46   22  145 1    
    47   23  146 1    
    48   23  147 1    
    49   23  148 1    
    50   24   25 am   BACKBONE|DICT|INTERRES
    51   24  149 1    
    52   25   26 2    
    53   25   27 1    
    54   27   28 1    
    55   27   29 1    
    56   27  150 1    
    57   28  151 1    
    58   28  152 1    
    59   28  153 1    
    60   29   30 am   BACKBONE|DICT|INTERRES
    61   29  154 1    
    62   30   31 2    
    63   30   32 1    
    64   32   33 1    
    65   32   34 1    
    66   32  155 1    
    67   33  156 1    
    68   33  157 1    
    69   33  158 1    
    70   34   35 am   BACKBONE|DICT|INTERRES
    71   34  159 1    
    72   35   36 2    
    73   35   37 1    
    74   37   38 1    
    75   37   39 1    
    76   37  160 1    
    77   38  161 1    
    78   38  162 1    
    79   38  163 1    
    80   39   40 am   BACKBONE|DICT|INTERRES
    81   39  164 1    
    82   40   41 2    
    83   40   42 1    
    84   42   43 1    
    85   42   44 1    
    86   42  165 1    
    87   43  166 1    
    88   43  167 1    
    89   43  168 1    
    90   44   45 am   BACKBONE|DICT|INTERRES
    91   44  169 1    
    92   45   46 2    
    93   45   47 1    
    94   47   48 1    
    95   47   49 1    
    96   47  170 1    
    97   48  171 1    
    98   48  172 1    
    99   48  173 1    
   100   49   50 am   BACKBONE|DICT|INTERRES
   101   49  174 1    
   102   50   51 2    
   103   50   52 1    
   104   52   53 1    
   105   52   54 1    
   106   52  175 1    
   107   53  176 1    
   108   53  177 1    
   109   53  178 1    
   110   54   55 am   BACKBONE|DICT|INTERRES
   111   54  179 1    
   112   55   56 2    
   113   55   57 1    
   114   57   58 1    
   115   57   59 1    
   116   57  180 1    
   117   58  181 1    
   118   58  182 1    
   119   58  183 1    
   120   59   60 am   BACKBONE|DICT|INTERRES
   121   59  184 1    
   122   60   61 2    
   123   60   62 1    
   124   62   63 1    
   125   62   64 1    
   126   62  185 1    
   127   63  186 1    
   128   63  187 1    
   129   63  188 1    
   130   64   65 am   BACKBONE|DICT|INTERRES
   131   64  189 1    
   132   65   66 2    
   133   67   68 2    
   134   67   69 am   BACKBONE|DICT|INTERRES
   135   69   70 1    
   136   69  190 1    
   137   70   71 1    
   138   70   72 1    
   139   70  191 1    
   140   71  192 1    
   141   71  193 1    
   142   71  194 1    
   143   72   73 2    
   144   72   74 am   BACKBONE|DICT|INTERRES
   145   74   75 1    
   146   74  195 1    
   147   75   76 1    
   148   75   77 1    
   149   75  196 1    
   150   76  197 1    
   151   76  198 1    
   152   76  199 1    
   153   77   78 2    
   154   77   79 am   BACKBONE|DICT|INTERRES
   155   79   80 1    
   156   79  200 1    
   157   80   81 1    
   158   80   82 1    
   159   80  201 1    
   160   81  202 1    
   161   81  203 1    
   162   81  204 1    
   163   82   83 2    
   164   82   84 am   BACKBONE|DICT|INTERRES
   165   84   85 1    
   166   84  205 1    
   167   85   86 1    
   168   85   87 1    
   169   85  206 1    
   170   86  207 1    
   171   86  208 1    
   172   86  209 1    
   173   87   88 2    
   174   87   89 am   BACKBONE|DICT|INTERRES
   175   89   90 1    
   176   89  210 1    
   177   90   91 1    
   178   90   92 1    
   179   90  211 1    
   180   91  212 1    
   181   91  213 1    
   182   91  214 1    
   183   92   93 2    
   184   92   94 am   BACKBONE|DICT|INTERRES
   185   94   95 1    
   186   94  215 1    
   187   95   96 1    
   188   95   97 1    
   189   95  216 1    
   190   96  217 1    
   191   96  218 1    
   192   96  219 1    
   193   97   98 2    
   194   97   99 am   BACKBONE|DICT|INTERRES
   195   99  100 1    
   196   99  220 1    
   197  100  101 1    
   198  100  102 1    
   199  100  221 1    
   200  101  222 1    
   201  101  223 1    
   202  101  224 1    
   203  102  103 2    
   204  102  104 am   BACKBONE|DICT|INTERRES
   205  104  105 1    
   206  104  225 1    
   207  105  106 1    
   208  105  107 1    
   209  105  226 1    
   210  106  227 1    
   211  106  228 1    
   212  106  229 1    
   213  107  108 2    
   214  107  109 am   BACKBONE|DICT|INTERRES
   215  109  110 1    
   216  109  230 1    
   217  110  111 1    
   218  110  112 1    
   219  110  231 1    
   220  111  232 1    
   221  111  233 1    
   222  111  234 1    
   223  112  113 2    
   224  112  114 am   BACKBONE|DICT|INTERRES
   225  114  115 1    
   226  114  235 1    
   227  115  116 1    
   228  115  117 1    
   229  115  236 1    
   230  116  237 1    
   231  116  238 1    
   232  116  239 1    
   233  117  118 2    
   234  117  119 am   BACKBONE|DICT|INTERRES
   235  119  120 1    
   236  119  240 1    
   237  120  121 1    
   238  120  124 1    
   239  120  241 1    
   240  121  122 am   BACKBONE|DICT|INTERRES
   241  121  123 2    
   242  122  242 1    
   243  122  243 1    
   244  124  125 1    
   245  124  244 1    
   246  124  245 1    
   247  125  126 1    
   248  126  246 1    
   249  126  247 1    
@<TRIPOS>SUBSTRUCTURE
     1 UNK         1 GROUP             0       ****    0 ROOT    
