@<TRIPOS>MOLECULE
3R540
247   249    1
SMALL
USER_CHARGES


@<TRIPOS>ATOM
      1 CA         -1.3642  -10.4549  -48.1679 C.3       0 UNK        -0.1800 
      2 C          -0.8270  -11.7819  -47.6537 C.2       0 UNK         0.5000 
      3 O          -0.5488  -11.9098  -46.4621 O.2       0 UNK        -0.5000 
      4 N          -0.7021  -12.7802  -48.5381 N.am      1 UNK        -0.5000 
      5 CA         -0.1859  -14.1261  -48.2453 C.3       1 UNK         0.1400 
      6 C6         -0.0061  -14.9717  -49.5311 C.3       23 UNK        -0.0398 
      7 S7         -1.5180  -15.1178  -50.5550 S.3       23 UNK        -0.2404 
      8 C8         -2.0412  -16.8321  -50.2259 C.3       23 UNK        -0.0205 
      9 C9         -1.0787  -17.8483  -50.8228 C.ar      23 UNK        -0.0193 
     10 C10        -1.0053  -18.0086  -52.2075 C.ar      23 UNK        -0.1150 
     11 C11        -0.1218  -18.9319  -52.7700 C.ar      23 UNK        -0.0193 
     12 C12         0.6827  -19.7082  -51.9320 C.ar      23 UNK        -0.1150 
     13 C13         0.6259  -19.5638  -50.5417 C.ar      23 UNK        -0.0193 
     14 C14        -0.2636  -18.6265  -49.9957 C.ar      23 UNK        -0.1150 
     15 C15         1.5422  -20.4494  -49.6927 C.3       23 UNK        -0.0205 
     16 S16         1.7147  -19.9856  -47.9350 S.3       23 UNK        -0.2404 
     17 C17         0.1892  -20.6891  -47.2250 C.3       23 UNK        -0.0398 
     18 CA          0.4315  -22.0703  -46.5733 C.3       11 UNK         0.1400 
     19 N           1.2674  -22.0004  -45.3714 N.am      11 UNK        -0.5000 
     20 C           1.7892  -23.0673  -44.7494 C.2       10 UNK         0.5000 
     21 O           1.6925  -24.2187  -45.1743 O.2       10 UNK        -0.5000 
     22 CA          2.4998  -22.8177  -43.4052 C.3       10 UNK         0.1400 
     23 CB          3.9537  -22.3732  -43.6235 C.3       10 UNK        -0.1800 
     24 N           1.8012  -21.8412  -42.5664 N.am      10 UNK        -0.5000 
     25 C           0.5744  -22.0238  -42.0556 C.2       9 UNK         0.5000 
     26 O          -0.0771  -23.0584  -42.1994 O.2       9 UNK        -0.5000 
     27 CA         -0.0527  -20.8355  -41.3013 C.3       9 UNK         0.1400 
     28 CB          0.4721  -20.7571  -39.8601 C.3       9 UNK        -0.1800 
     29 N           0.1713  -19.5576  -41.9775 N.am      9 UNK        -0.5000 
     30 C          -0.2836  -19.2564  -43.2021 C.2       8 UNK         0.5000 
     31 O          -0.9945  -20.0022  -43.8727 O.2       8 UNK        -0.5000 
     32 CA          0.1818  -17.9226  -43.8051 C.3       8 UNK         0.1400 
     33 CB         -0.6830  -16.7673  -43.2892 C.3       8 UNK        -0.1800 
     34 N           1.5981  -17.6629  -43.5415 N.am      8 UNK        -0.5000 
     35 C           2.5955  -18.4175  -44.0260 C.2       7 UNK         0.5000 
     36 O           2.4214  -19.3752  -44.7760 O.2       7 UNK        -0.5000 
     37 CA          4.0156  -18.0998  -43.5319 C.3       7 UNK         0.1400 
     38 CB          4.6635  -16.9920  -44.3748 C.3       7 UNK        -0.1800 
     39 N           4.0174  -17.7307  -42.1162 N.am      7 UNK        -0.5000 
     40 C           3.8179  -18.6139  -41.1265 C.2       6 UNK         0.5000 
     41 O           3.6701  -19.8216  -41.3155 O.2       6 UNK        -0.5000 
     42 CA          3.7285  -18.0620  -39.6913 C.3       6 UNK         0.1400 
     43 CB          5.1180  -18.0339  -39.0380 C.3       6 UNK        -0.1800 
     44 N           3.1317  -16.7279  -39.6122 N.am      6 UNK        -0.5000 
     45 C           1.8713  -16.4265  -39.9533 C.2       5 UNK         0.5000 
     46 O           1.0687  -17.2604  -40.3740 O.2       5 UNK        -0.5000 
     47 CA          1.4336  -14.9499  -39.8224 C.3       5 UNK         0.1400 
     48 CB          2.4125  -14.0835  -38.9994 C.3       5 UNK        -0.1800 
     49 N           1.1764  -14.2990  -41.1133 N.am      5 UNK        -0.5000 
     50 C           1.9730  -14.2633  -42.1902 C.2       4 UNK         0.5000 
     51 O           3.0253  -14.8992  -42.2665 O.2       4 UNK        -0.5000 
     52 CA          1.5405  -13.3644  -43.3762 C.3       4 UNK         0.1400 
     53 CB          2.2006  -13.7941  -44.6994 C.3       4 UNK        -0.1800 
     54 N           0.0959  -13.2647  -43.6070 N.am      4 UNK        -0.5000 
     55 C          -0.8062  -12.6104  -42.8631 C.2       3 UNK         0.5000 
     56 O          -0.5362  -12.0857  -41.7823 O.2       3 UNK        -0.5000 
     57 CA         -2.2477  -12.5255  -43.4025 C.3       3 UNK         0.1400 
     58 CB         -2.6248  -11.0647  -43.7005 C.3       3 UNK        -0.1800 
     59 N          -2.4352  -13.3100  -44.6264 N.am      3 UNK        -0.5000 
     60 C          -3.1127  -14.4642  -44.7046 C.2       2 UNK         0.5000 
     61 O          -3.6561  -14.9977  -43.7373 O.2       2 UNK        -0.5000 
     62 CA         -3.2198  -15.1445  -46.0860 C.3       2 UNK         0.1400 
     63 CB         -4.6518  -15.0349  -46.6323 C.3       2 UNK        -0.1800 
     64 N          -2.3021  -14.5908  -47.0811 N.am      2 UNK        -0.5000 
     65 C          -0.9997  -14.8892  -47.1767 C.2       1 UNK         0.5000 
     66 O          -0.4313  -15.7004  -46.4482 O.2       1 UNK        -0.5000 
     67 C          -0.9035  -22.7858  -46.2891 C.2       11 UNK         0.5000 
     68 O          -1.2638  -23.6928  -47.0359 O.2       11 UNK        -0.5000 
     69 N          -1.5889  -22.4076  -45.2000 N.am      12 UNK        -0.5000 
     70 CA         -2.8611  -22.9904  -44.7629 C.3       12 UNK         0.1400 
     71 CB         -3.4015  -22.2086  -43.5569 C.3       12 UNK        -0.1800 
     72 C          -2.7722  -24.4928  -44.4380 C.2       12 UNK         0.5000 
     73 O          -3.7142  -25.2301  -44.7287 O.2       12 UNK        -0.5000 
     74 N          -1.6262  -24.9368  -43.9028 N.am      13 UNK        -0.5000 
     75 CA         -1.3050  -26.3473  -43.6638 C.3       13 UNK         0.1400 
     76 CB         -0.0089  -26.4385  -42.8444 C.3       13 UNK        -0.1800 
     77 C          -1.1955  -27.1888  -44.9549 C.2       13 UNK         0.5000 
     78 O          -1.3683  -28.4065  -44.8955 O.2       13 UNK        -0.5000 
     79 N          -0.9438  -26.5300  -46.0935 N.am      14 UNK        -0.5000 
     80 CA         -0.9288  -27.1074  -47.4384 C.3       14 UNK         0.1400 
     81 CB          0.3660  -26.6595  -48.1395 C.3       14 UNK        -0.1800 
     82 C          -2.1787  -26.6910  -48.2458 C.2       14 UNK         0.5000 
     83 O          -2.1817  -26.8266  -49.4710 O.2       14 UNK        -0.5000 
     84 N          -3.2062  -26.1705  -47.5565 N.am      15 UNK        -0.5000 
     85 CA         -4.4309  -25.5387  -48.0553 C.3       15 UNK         0.1400 
     86 CB         -5.2735  -26.4939  -48.9243 C.3       15 UNK        -0.1800 
     87 C          -4.1598  -24.1941  -48.7545 C.2       15 UNK         0.5000 
     88 O          -4.5924  -23.1571  -48.2488 O.2       15 UNK        -0.5000 
     89 N          -3.4522  -24.2432  -49.8921 N.am      16 UNK        -0.5000 
     90 CA         -3.0082  -23.1562  -50.7775 C.3       16 UNK         0.1400 
     91 CB         -2.0209  -22.2215  -50.0555 C.3       16 UNK        -0.1800 
     92 C          -4.1315  -22.3448  -51.4572 C.2       16 UNK         0.5000 
     93 O          -4.0588  -22.1242  -52.6661 O.2       16 UNK        -0.5000 
     94 N          -5.1381  -21.9273  -50.6785 N.am      17 UNK        -0.5000 
     95 CA         -6.2362  -21.0239  -51.0309 C.3       17 UNK         0.1400 
     96 CB         -7.1580  -21.6614  -52.0959 C.3       17 UNK        -0.1800 
     97 C          -5.7249  -19.6120  -51.3989 C.2       17 UNK         0.5000 
     98 O          -4.7015  -19.1745  -50.8675 O.2       17 UNK        -0.5000 
     99 N          -6.4621  -18.9028  -52.2618 N.am      18 UNK        -0.5000 
    100 CA        -6.0728  -17.6047  -52.8105 C.3       18 UNK         0.1400 
    101 CB        -7.3245  -16.9174  -53.3789 C.3       18 UNK        -0.1800 
    102 C         -5.0112  -17.7674  -53.9120 C.2       18 UNK         0.5000 
    103 O         -4.9450  -18.8193  -54.5499 O.2       18 UNK        -0.5000 
    104 N         -4.2496  -16.6970  -54.1756 N.am      19 UNK        -0.5000 
    105 CA        -3.1900  -16.6504  -55.1916 C.3       19 UNK         0.1400 
    106 CB        -2.4650  -15.2998  -55.1027 C.3       19 UNK        -0.1800 
    107 C         -3.6605  -16.9296  -56.6338 C.2       19 UNK         0.5000 
    108 O         -2.8561  -17.3669  -57.4560 O.2       19 UNK        -0.5000 
    109 N         -4.9566  -16.7252  -56.9054 N.am      20 UNK        -0.5000 
    110 CA        -5.6182  -17.0937  -58.1576 C.3       20 UNK         0.1400 
    111 CB        -7.0386  -16.5086  -58.1608 C.3       20 UNK        -0.1800 
    112 C         -5.6628  -18.6170  -58.4047 C.2       20 UNK         0.5000 
    113 O         -5.6644  -19.0366  -59.5626 O.2       20 UNK        -0.5000 
    114 N         -5.6782  -19.4197  -57.3293 N.am      21 UNK        -0.5000 
    115 CA        -5.6624  -20.8836  -57.3931 C.3       21 UNK         0.1400 
    116 CB        -6.2433  -21.4555  -56.0900 C.3       21 UNK        -0.1800 
    117 C         -4.2525  -21.4511  -57.6485 C.2       21 UNK         0.5000 
    118 O         -4.1357  -22.5991  -58.0793 O.2       21 UNK        -0.5000 
    119 N         -3.2134  -20.6471  -57.3879 N.am      22 UNK        -0.5000 
    120 CA        -1.7993  -20.9988  -57.5952 C.3       22 UNK         0.1400 
    121 C         -1.3401  -20.9615  -59.0839 C.2       22 UNK         0.5000 
    122 N         -2.1399  -20.4669  -60.0218 N.am      22 UNK        -0.7600 
    123 O         -0.2364  -21.4002  -59.3966 O.2       22 UNK        -0.5000 
    124 C124       -0.8544  -20.1449  -56.7102 C.3       23 UNK        -0.0398 
    125 S125       -1.2419  -20.2463  -54.9300 S.3       23 UNK        -0.2404 
    126 C126       -0.0164  -19.0721  -54.2801 C.3       23 UNK        -0.0205 
    127 H127       -0.6288   -9.6666  -48.0072 H         1 UNK         0.0600 
    128 H128       -2.2749  -10.1871  -47.6323 H         1 UNK         0.0600 
    129 H129       -1.5938  -10.4956  -49.2329 H         1 UNK         0.0600 
    130 H130       -0.9688  -12.6241  -49.5003 H         1 UNK         0.3000 
    131 H131        0.8080  -13.9847  -47.8153 H         1 UNK         0.0600 
    132 H132        0.3864  -15.9600  -49.2878 H         1 UNK         0.0800 
    133 H133        0.7601  -14.5096  -50.1547 H         1 UNK         0.0800 
    134 H134       -2.1543  -16.9824  -49.1512 H         1 UNK         0.0800 
    135 H135       -3.0304  -16.9857  -50.6592 H         1 UNK         0.0800 
    136 H136       -1.6315  -17.4015  -52.8428 H         1 UNK         0.1150 
    137 H137        1.3638  -20.4265  -52.3670 H         1 UNK         0.1150 
    138 H138       -0.3302  -18.4875  -48.9273 H         1 UNK         0.1150 
    139 H139        1.2006  -21.4833  -49.7597 H         1 UNK         0.0800 
    140 H140        2.5416  -20.4303  -50.1302 H         1 UNK         0.0800 
    141 H141       -0.5615  -20.7581  -48.0129 H         1 UNK         0.0800 
    142 H142       -0.2069  -19.9830  -46.4941 H         1 UNK         0.0800 
    143 H143        0.9638  -22.6879  -47.3004 H         1 UNK         0.0600 
    144 H144        1.4633  -21.0727  -45.0060 H         1 UNK         0.3000 
    145 H145        2.5169  -23.7649  -42.8621 H         1 UNK         0.0600 
    146 H146        4.4754  -22.2505  -42.6741 H         1 UNK         0.0600 
    147 H147        4.5039  -23.1145  -44.2043 H         1 UNK         0.0600 
    148 H148        4.0119  -21.4277  -44.1617 H         1 UNK         0.0600 
    149 H149        2.2932  -20.9778  -42.3647 H         1 UNK         0.3000 
    150 H150       -1.1310  -21.0004  -41.2587 H         1 UNK         0.0600 
    151 H151        0.2582  -21.6790  -39.3181 H         1 UNK         0.0600 
    152 H152        0.0017  -19.9400  -39.3126 H         1 UNK         0.0600 
    153 H153        1.5503  -20.6027  -39.8299 H         1 UNK         0.0600 
    154 H154        0.6991  -18.8531  -41.4709 H         1 UNK         0.3000 
    155 H155        0.0497  -17.9835  -44.8875 H         1 UNK         0.0600 
    156 H156       -0.4265  -15.8408  -43.7949 H         1 UNK         0.0600 
    157 H157       -0.5753  -16.6088  -42.2174 H         1 UNK         0.0600 
    158 H158       -1.7380  -16.9617  -43.4845 H         1 UNK         0.0600 
    159 H159        1.8228  -16.9252  -42.8889 H         1 UNK         0.3000 
    160 H160        4.6203  -19.0014  -43.6518 H         1 UNK         0.0600 
    161 H161        4.0926  -16.0660  -44.3385 H         1 UNK         0.0600 
    162 H162        4.7291  -17.2917  -45.4215 H         1 UNK         0.0600 
    163 H163        5.6758  -16.7764  -44.0332 H         1 UNK         0.0600 
    164 H164        4.0503  -16.7403  -41.9017 H         1 UNK         0.3000 
    165 H165        3.0967  -18.7424  -39.1170 H         1 UNK         0.0600 
    166 H166        5.0572  -17.7283  -37.9933 H         1 UNK         0.0600 
    167 H167        5.5794  -19.0222  -39.0598 H         1 UNK         0.0600 
    168 H168        5.7906  -17.3460  -39.5518 H         1 UNK         0.0600 
    169 H169        3.7342  -15.9809  -39.2990 H         1 UNK         0.3000 
    170 H170        0.4813  -14.9661  -39.2905 H         1 UNK         0.0600 
    171 H171        2.5912  -14.5137  -38.0129 H         1 UNK         0.0600 
    172 H172        3.3763  -13.9661  -39.4966 H         1 UNK         0.0600 
    173 H173        2.0043  -13.0852  -38.8404 H         1 UNK         0.0600 
    174 H174        0.3511  -13.7102  -41.1500 H         1 UNK         0.3000 
    175 H175        1.9018  -12.3615  -43.1414 H         1 UNK         0.0600 
    176 H176        1.9129  -14.8086  -44.9793 H         1 UNK         0.0600 
    177 H177        1.9180  -13.1290  -45.5158 H         1 UNK         0.0600 
    178 H178        3.2883  -13.7639  -44.6276 H         1 UNK         0.0600 
    179 H179       -0.2317  -13.6689  -44.4722 H         1 UNK         0.3000 
    180 H180       -2.9060  -12.8872  -42.6102 H         1 UNK         0.0600 
    181 H181       -3.6546  -10.9879  -44.0500 H         1 UNK         0.0600 
    182 H182       -1.9787  -10.6288  -44.4635 H         1 UNK         0.0600 
    183 H183       -2.5398  -10.4464  -42.8060 H         1 UNK         0.0600 
    184 H184       -1.9905  -12.9364  -45.4583 H         1 UNK         0.3000 
    185 H185       -2.9892  -16.2030  -45.9463 H         1 UNK         0.0600 
    186 H186       -4.9428  -13.9961  -46.7930 H         1 UNK         0.0600 
    187 H187       -4.7533  -15.5635  -47.5804 H         1 UNK         0.0600 
    188 H188       -5.3705  -15.4740  -45.9391 H         1 UNK         0.0600 
    189 H189       -2.6836  -13.9123  -47.7244 H         1 UNK         0.3000 
    190 H190       -1.2423  -21.6253  -44.6474 H         1 UNK         0.3000 
    191 H191       -3.5698  -22.8768  -45.5858 H         1 UNK         0.0600 
    192 H192       -4.3623  -22.6082  -43.2302 H         1 UNK         0.0600 
    193 H193       -3.5541  -21.1580  -43.8043 H         1 UNK         0.0600 
    194 H194       -2.7190  -22.2579  -42.7085 H         1 UNK         0.0600 
    195 H195       -0.9243  -24.2569  -43.6283 H         1 UNK         0.3000 
    196 H196       -2.1134  -26.7740  -43.0668 H         1 UNK         0.0600 
    197 H197        0.8387  -26.0156  -43.3834 H         1 UNK         0.0600 
    198 H198       -0.1024  -25.9066  -41.8974 H         1 UNK         0.0600 
    199 H199        0.2348  -27.4758  -42.6117 H         1 UNK         0.0600 
    200 H200       -0.8416  -25.5214  -46.0598 H         1 UNK         0.3000 
    201 H201       -0.9290  -28.1976  -47.3865 H         1 UNK         0.0600 
    202 H202        0.3947  -25.5775  -48.2753 H         1 UNK         0.0600 
    203 H203        0.4615  -27.1184  -49.1243 H         1 UNK         0.0600 
    204 H204        1.2453  -26.9464  -47.5625 H         1 UNK         0.0600 
    205 H205       -3.0842  -26.0808  -46.5547 H         1 UNK         0.3000 
    206 H206       -5.0237  -25.3126  -47.1676 H         1 UNK         0.0600 
    207 H207       -5.5097  -27.4098  -48.3828 H         1 UNK         0.0600 
    208 H208       -6.2197  -26.0278  -49.2017 H         1 UNK         0.0600 
    209 H209       -4.7694  -26.7741  -49.8491 H         1 UNK         0.0600 
    210 H210       -3.1204  -25.1657  -50.1555 H         1 UNK         0.3000 
    211 H211       -2.4555  -23.6471  -51.5801 H         1 UNK         0.0600 
    212 H212       -1.6527  -21.4492  -50.7320 H         1 UNK         0.0600 
    213 H213       -1.1559  -22.7723  -49.6863 H         1 UNK         0.0600 
    214 H214       -2.4861  -21.7163  -49.2089 H         1 UNK         0.0600 
    215 H215       -5.0698  -22.1750  -49.6934 H         1 UNK         0.3000 
    216 H216       -6.8229  -20.9025  -50.1194 H         1 UNK         0.0600 
    217 H217       -8.0873  -21.1016  -52.2053 H         1 UNK         0.0600 
    218 H218       -6.6795  -21.7056  -53.0744 H         1 UNK         0.0600 
    219 H219       -7.4330  -22.6785  -51.8162 H         1 UNK         0.0600 
    220 H220       -7.2678  -19.3423  -52.6809 H         1 UNK         0.3000 
    221 H221       -5.6609  -16.9860  -52.0103 H         1 UNK         0.0600 
    222 H222       -8.0871  -16.7896  -52.6103 H         1 UNK         0.0600 
    223 H223       -7.7647  -17.4916  -54.1955 H         1 UNK         0.0600 
    224 H224       -7.0880  -15.9254  -53.7657 H         1 UNK         0.0600 
    225 H225       -4.3825  -15.8563  -53.6320 H         1 UNK         0.3000 
    226 H226       -2.4762  -17.4375  -54.9500 H         1 UNK         0.0600 
    227 H227       -3.1396  -14.4678  -55.3075 H         1 UNK         0.0600 
    228 H228       -2.0324  -15.1477  -54.1134 H         1 UNK         0.0600 
    229 H229       -1.6481  -15.2462  -55.8237 H         1 UNK         0.0600 
    230 H230       -5.5449  -16.3595  -56.1719 H         1 UNK         0.3000 
    231 H231       -5.0589  -16.6426  -58.9799 H         1 UNK         0.0600 
    232 H232       -7.6398  -16.9069  -57.3423 H         1 UNK         0.0600 
    233 H233       -7.5556  -16.7433  -59.0923 H         1 UNK         0.0600 
    234 H234       -7.0189  -15.4227  -58.0666 H         1 UNK         0.0600 
    235 H235       -5.6082  -19.0166  -56.3996 H         1 UNK         0.3000 
    236 H236       -6.3043  -21.2053  -58.2160 H         1 UNK         0.0600 
    237 H237       -6.3621  -22.5374  -56.1601 H         1 UNK         0.0600 
    238 H238       -5.5915  -21.2575  -55.2385 H         1 UNK         0.0600 
    239 H239       -7.2240  -21.0331  -55.8705 H         1 UNK         0.0600 
    240 H240       -3.3937  -19.7155  -57.0421 H         1 UNK         0.3000 
    241 H241       -1.6768  -22.0368  -57.2796 H         1 UNK         0.0600 
    242 H242       -1.8316  -20.4538  -60.9815 H         1 UNK         0.3800 
    243 H243       -3.0489  -20.1027  -59.7813 H         1 UNK         0.3800 
    244 H244       -0.8893  -19.0990  -57.0179 H         1 UNK         0.0800 
    245 H245        0.1802  -20.4671  -56.8414 H         1 UNK         0.0800 
    246 H246       -0.1529  -18.0983  -54.7525 H         1 UNK         0.0800 
    247 H247        0.9848  -19.4073  -54.5555 H         1 UNK         0.0800 
@<TRIPOS>BOND
     1    1    2 1    
     2    1  127 1    
     3    1  128 1    
     4    1  129 1    
     5    2    3 2    
     6    2    4 am   BACKBONE|DICT|INTERRES
     7    4    5 1    
     8    4  130 1    
     9    5    6 1    
    10    5   65 1    
    11    5  131 1    
    12    6    7 1    
    13    6  132 1    
    14    6  133 1    
    15    7    8 1    
    16    8    9 1    
    17    8  134 1    
    18    8  135 1    
    19    9   10 ar   
    20    9   14 ar   
    21   10   11 ar   
    22   10  136 1    
    23   11   12 ar   
    24   11  126 1    
    25   12   13 ar   
    26   12  137 1    
    27   13   14 ar   
    28   13   15 1    
    29   14  138 1    
    30   15   16 1    
    31   15  139 1    
    32   15  140 1    
    33   16   17 1    
    34   17   18 1    
    35   17  141 1    
    36   17  142 1    
    37   18   19 1    
    38   18   67 1    
    39   18  143 1    
    40   19   20 am   BACKBONE|DICT|INTERRES
    41   19  144 1    
    42   20   21 2    
    43   20   22 1    
    44   22   23 1    
    45   22   24 1    
    46   22  145 1    
    47   23  146 1    
    48   23  147 1    
    49   23  148 1    
    50   24   25 am   BACKBONE|DICT|INTERRES
    51   24  149 1    
    52   25   26 2    
    53   25   27 1    
    54   27   28 1    
    55   27   29 1    
    56   27  150 1    
    57   28  151 1    
    58   28  152 1    
    59   28  153 1    
    60   29   30 am   BACKBONE|DICT|INTERRES
    61   29  154 1    
    62   30   31 2    
    63   30   32 1    
    64   32   33 1    
    65   32   34 1    
    66   32  155 1    
    67   33  156 1    
    68   33  157 1    
    69   33  158 1    
    70   34   35 am   BACKBONE|DICT|INTERRES
    71   34  159 1    
    72   35   36 2    
    73   35   37 1    
    74   37   38 1    
    75   37   39 1    
    76   37  160 1    
    77   38  161 1    
    78   38  162 1    
    79   38  163 1    
    80   39   40 am   BACKBONE|DICT|INTERRES
    81   39  164 1    
    82   40   41 2    
    83   40   42 1    
    84   42   43 1    
    85   42   44 1    
    86   42  165 1    
    87   43  166 1    
    88   43  167 1    
    89   43  168 1    
    90   44   45 am   BACKBONE|DICT|INTERRES
    91   44  169 1    
    92   45   46 2    
    93   45   47 1    
    94   47   48 1    
    95   47   49 1    
    96   47  170 1    
    97   48  171 1    
    98   48  172 1    
    99   48  173 1    
   100   49   50 am   BACKBONE|DICT|INTERRES
   101   49  174 1    
   102   50   51 2    
   103   50   52 1    
   104   52   53 1    
   105   52   54 1    
   106   52  175 1    
   107   53  176 1    
   108   53  177 1    
   109   53  178 1    
   110   54   55 am   BACKBONE|DICT|INTERRES
   111   54  179 1    
   112   55   56 2    
   113   55   57 1    
   114   57   58 1    
   115   57   59 1    
   116   57  180 1    
   117   58  181 1    
   118   58  182 1    
   119   58  183 1    
   120   59   60 am   BACKBONE|DICT|INTERRES
   121   59  184 1    
   122   60   61 2    
   123   60   62 1    
   124   62   63 1    
   125   62   64 1    
   126   62  185 1    
   127   63  186 1    
   128   63  187 1    
   129   63  188 1    
   130   64   65 am   BACKBONE|DICT|INTERRES
   131   64  189 1    
   132   65   66 2    
   133   67   68 2    
   134   67   69 am   BACKBONE|DICT|INTERRES
   135   69   70 1    
   136   69  190 1    
   137   70   71 1    
   138   70   72 1    
   139   70  191 1    
   140   71  192 1    
   141   71  193 1    
   142   71  194 1    
   143   72   73 2    
   144   72   74 am   BACKBONE|DICT|INTERRES
   145   74   75 1    
   146   74  195 1    
   147   75   76 1    
   148   75   77 1    
   149   75  196 1    
   150   76  197 1    
   151   76  198 1    
   152   76  199 1    
   153   77   78 2    
   154   77   79 am   BACKBONE|DICT|INTERRES
   155   79   80 1    
   156   79  200 1    
   157   80   81 1    
   158   80   82 1    
   159   80  201 1    
   160   81  202 1    
   161   81  203 1    
   162   81  204 1    
   163   82   83 2    
   164   82   84 am   BACKBONE|DICT|INTERRES
   165   84   85 1    
   166   84  205 1    
   167   85   86 1    
   168   85   87 1    
   169   85  206 1    
   170   86  207 1    
   171   86  208 1    
   172   86  209 1    
   173   87   88 2    
   174   87   89 am   BACKBONE|DICT|INTERRES
   175   89   90 1    
   176   89  210 1    
   177   90   91 1    
   178   90   92 1    
   179   90  211 1    
   180   91  212 1    
   181   91  213 1    
   182   91  214 1    
   183   92   93 2    
   184   92   94 am   BACKBONE|DICT|INTERRES
   185   94   95 1    
   186   94  215 1    
   187   95   96 1    
   188   95   97 1    
   189   95  216 1    
   190   96  217 1    
   191   96  218 1    
   192   96  219 1    
   193   97   98 2    
   194   97   99 am   BACKBONE|DICT|INTERRES
   195   99  100 1    
   196   99  220 1    
   197  100  101 1    
   198  100  102 1    
   199  100  221 1    
   200  101  222 1    
   201  101  223 1    
   202  101  224 1    
   203  102  103 2    
   204  102  104 am   BACKBONE|DICT|INTERRES
   205  104  105 1    
   206  104  225 1    
   207  105  106 1    
   208  105  107 1    
   209  105  226 1    
   210  106  227 1    
   211  106  228 1    
   212  106  229 1    
   213  107  108 2    
   214  107  109 am   BACKBONE|DICT|INTERRES
   215  109  110 1    
   216  109  230 1    
   217  110  111 1    
   218  110  112 1    
   219  110  231 1    
   220  111  232 1    
   221  111  233 1    
   222  111  234 1    
   223  112  113 2    
   224  112  114 am   BACKBONE|DICT|INTERRES
   225  114  115 1    
   226  114  235 1    
   227  115  116 1    
   228  115  117 1    
   229  115  236 1    
   230  116  237 1    
   231  116  238 1    
   232  116  239 1    
   233  117  118 2    
   234  117  119 am   BACKBONE|DICT|INTERRES
   235  119  120 1    
   236  119  240 1    
   237  120  121 1    
   238  120  124 1    
   239  120  241 1    
   240  121  122 am   BACKBONE|DICT|INTERRES
   241  121  123 2    
   242  122  242 1    
   243  122  243 1    
   244  124  125 1    
   245  124  244 1    
   246  124  245 1    
   247  125  126 1    
   248  126  246 1    
   249  126  247 1    
@<TRIPOS>SUBSTRUCTURE
     1 UNK         1 GROUP             0       ****    0 ROOT    
