@<TRIPOS>MOLECULE
3R540
247   249    1
SMALL
USER_CHARGES


@<TRIPOS>ATOM
      1 CA          7.5531  -12.2040  -48.1572 C.3       0 UNK        -0.1800 
      2 C           6.6333  -13.3750  -48.4721 C.2       0 UNK         0.5000 
      3 O           5.4235  -13.2544  -48.2831 O.2       0 UNK        -0.5000 
      4 N           7.2174  -14.4902  -48.9361 N.am      1 UNK        -0.5000 
      5 CA          6.6134  -15.7786  -49.3109 C.3       1 UNK         0.1400 
      6 C6          6.1333  -15.8626  -50.7881 C.3       23 UNK        -0.0398 
      7 S7          4.8104  -14.7112  -51.3103 S.3       23 UNK        -0.2404 
      8 C8          3.9639  -15.6908  -52.5928 C.3       23 UNK        -0.0205 
      9 C9          2.8216  -16.5256  -52.0290 C.ar      23 UNK        -0.0193 
     10 C10         1.5140  -16.0297  -52.0587 C.ar      23 UNK        -0.1150 
     11 C11         0.4455  -16.7951  -51.5812 C.ar      23 UNK        -0.0193 
     12 C12         0.7031  -18.0672  -51.0577 C.ar      23 UNK        -0.1150 
     13 C13         2.0043  -18.5699  -51.0070 C.ar      23 UNK        -0.0193 
     14 C14         3.0591  -17.7996  -51.5039 C.ar      23 UNK        -0.1150 
     15 C15         2.2656  -19.9509  -50.4275 C.3       23 UNK        -0.0205 
     16 S16         2.7044  -19.8846  -48.6597 S.3       23 UNK        -0.2404 
     17 C17         1.1099  -19.5066  -47.8464 C.3       23 UNK        -0.0398 
     18 CA          0.4039  -20.7696  -47.3007 C.3       11 UNK         0.1400 
     19 N          -0.5044  -20.4644  -46.1923 N.am      11 UNK        -0.5000 
     20 C          -1.0470  -21.3933  -45.3926 C.2       10 UNK         0.5000 
     21 O          -0.9024  -22.6037  -45.5576 O.2       10 UNK        -0.5000 
     22 CA         -1.8999  -20.8924  -44.2188 C.3       10 UNK         0.1400 
     23 CB         -1.0113  -20.3912  -43.0715 C.3       10 UNK        -0.1800 
     24 N          -2.8182  -19.8351  -44.6295 N.am      10 UNK        -0.5000 
     25 C          -3.9733  -20.0544  -45.2704 C.2       9 UNK         0.5000 
     26 O          -4.4030  -21.1704  -45.5585 O.2       9 UNK        -0.5000 
     27 CA         -4.7632  -18.8085  -45.7003 C.3       9 UNK         0.1400 
     28 CB         -5.6316  -18.2820  -44.5489 C.3       9 UNK        -0.1800 
     29 N          -3.8952  -17.7452  -46.2057 N.am      9 UNK        -0.5000 
     30 C          -3.1733  -17.8444  -47.3324 C.2       8 UNK         0.5000 
     31 O          -3.1761  -18.8400  -48.0573 O.2       8 UNK        -0.5000 
     32 CA         -2.2825  -16.6466  -47.7059 C.3       8 UNK         0.1400 
     33 CB         -3.0866  -15.6347  -48.5362 C.3       8 UNK        -0.1800 
     34 N          -1.7135  -15.9439  -46.5574 N.am      8 UNK        -0.5000 
     35 C          -0.9681  -16.4737  -45.5786 C.2       7 UNK         0.5000 
     36 O          -0.6654  -17.6672  -45.5166 O.2       7 UNK        -0.5000 
     37 CA         -0.5053  -15.5085  -44.4675 C.3       7 UNK         0.1400 
     38 CB         -0.7725  -14.0184  -44.7770 C.3       7 UNK        -0.1800 
     39 N          -1.0752  -15.8409  -43.1628 N.am      7 UNK        -0.5000 
     40 C          -2.3692  -16.0294  -42.8604 C.2       6 UNK         0.5000 
     41 O          -3.2788  -16.0430  -43.6911 O.2       6 UNK        -0.5000 
     42 CA         -2.7103  -16.2106  -41.3678 C.3       6 UNK         0.1400 
     43 CB         -2.8058  -17.7012  -41.0130 C.3       6 UNK        -0.1800 
     44 N          -1.7439  -15.5693  -40.4716 N.am      6 UNK        -0.5000 
     45 C          -1.5470  -14.2470  -40.3790 C.2       5 UNK         0.5000 
     46 O          -2.2207  -13.4130  -40.9867 O.2       5 UNK        -0.5000 
     47 CA         -0.4001  -13.7578  -39.4727 C.3       5 UNK         0.1400 
     48 CB          0.2718  -14.8647  -38.6272 C.3       5 UNK        -0.1800 
     49 N           0.5963  -13.0096  -40.2460 N.am      5 UNK        -0.5000 
     50 C           1.3688  -13.4650  -41.2444 C.2       4 UNK         0.5000 
     51 O           1.3562  -14.6326  -41.6436 O.2       4 UNK        -0.5000 
     52 CA          2.3075  -12.4260  -41.8941 C.3       4 UNK         0.1400 
     53 CB          3.0544  -11.5859  -40.8394 C.3       4 UNK        -0.1800 
     54 N           3.3102  -13.0574  -42.7522 N.am      4 UNK        -0.5000 
     55 C           3.2461  -13.1680  -44.0842 C.2       3 UNK         0.5000 
     56 O           2.2956  -12.7659  -44.7582 O.2       3 UNK        -0.5000 
     57 CA          4.4865  -13.7566  -44.7947 C.3       3 UNK         0.1400 
     58 CB          5.4261  -14.5678  -43.8731 C.3       3 UNK        -0.1800 
     59 N           4.1469  -14.5258  -45.9930 N.am      3 UNK        -0.5000 
     60 C           3.4427  -15.6650  -46.0565 C.2       2 UNK         0.5000 
     61 O           2.9627  -16.2369  -45.0784 O.2       2 UNK        -0.5000 
     62 CA          3.2669  -16.2969  -47.4513 C.3       2 UNK         0.1400 
     63 CB          1.9294  -15.8728  -48.0728 C.3       2 UNK        -0.1800 
     64 N           4.3405  -15.9672  -48.3866 N.am      2 UNK        -0.5000 
     65 C           5.6202  -16.3387  -48.2679 C.2       1 UNK         0.5000 
     66 O           6.0386  -17.0728  -47.3710 O.2       1 UNK        -0.5000 
     67 C          -0.2799  -21.5813  -48.4190 C.2       11 UNK         0.5000 
     68 O           0.3004  -22.5585  -48.8919 O.2       11 UNK        -0.5000 
     69 N          -1.5101  -21.2051  -48.8005 N.am      12 UNK        -0.5000 
     70 CA         -2.2794  -21.9348  -49.8108 C.3       12 UNK         0.1400 
     71 CB         -3.4723  -21.0913  -50.2687 C.3       12 UNK        -0.1800 
     72 C          -2.7346  -23.3206  -49.3145 C.2       12 UNK         0.5000 
     73 O          -2.7368  -24.2684  -50.0989 O.2       12 UNK        -0.5000 
     74 N          -3.0490  -23.4330  -48.0147 N.am      13 UNK        -0.5000 
     75 CA         -3.3658  -24.7029  -47.3588 C.3       13 UNK         0.1400 
     76 CB         -3.9434  -24.4442  -45.9602 C.3       13 UNK        -0.1800 
     77 C          -2.1506  -25.6466  -47.2977 C.2       13 UNK         0.5000 
     78 O          -2.2934  -26.8355  -47.5827 O.2       13 UNK        -0.5000 
     79 N          -0.9662  -25.0972  -46.9902 N.am      14 UNK        -0.5000 
     80 CA          0.3178  -25.8050  -47.0185 C.3       14 UNK         0.1400 
     81 CB          1.4097  -24.9124  -46.4099 C.3       14 UNK        -0.1800 
     82 C           0.7169  -26.2730  -48.4329 C.2       14 UNK         0.5000 
     83 O           1.3244  -27.3346  -48.5732 O.2       14 UNK        -0.5000 
     84 N           0.3233  -25.5014  -49.4553 N.am      15 UNK        -0.5000 
     85 CA          0.4520  -25.8368  -50.8758 C.3       15 UNK         0.1400 
     86 CB          0.4114  -24.5375  -51.6977 C.3       15 UNK        -0.1800 
     87 C          -0.6087  -26.8457  -51.3763 C.2       15 UNK         0.5000 
     88 O          -0.5855  -27.1956  -52.5570 O.2       15 UNK        -0.5000 
     89 N          -1.5067  -27.2974  -50.4868 N.am      16 UNK        -0.5000 
     90 CA         -2.5852  -28.2675  -50.7035 C.3       16 UNK         0.1400 
     91 CB         -2.0309  -29.6352  -51.1569 C.3       16 UNK        -0.1800 
     92 C          -3.7295  -27.7472  -51.5986 C.2       16 UNK         0.5000 
     93 O          -4.4375  -28.5480  -52.2131 O.2       16 UNK        -0.5000 
     94 N          -3.9189  -26.4236  -51.6282 N.am      17 UNK        -0.5000 
     95 CA         -5.0776  -25.7516  -52.2101 C.3       17 UNK         0.1400 
     96 CB         -4.5832  -24.5219  -52.9936 C.3       17 UNK        -0.1800 
     97 C          -6.0552  -25.3506  -51.0870 C.2       17 UNK         0.5000 
     98 O          -5.8244  -25.6616  -49.9148 O.2       17 UNK        -0.5000 
     99 N          -7.1386  -24.6568  -51.4563 N.am      18 UNK        -0.5000 
    100 CA        -8.0305  -23.9884  -50.5071 C.3       18 UNK         0.1400 
    101 CB        -9.3379  -23.6126  -51.2218 C.3       18 UNK        -0.1800 
    102 C         -7.3520  -22.7408  -49.9079 C.2       18 UNK         0.5000 
    103 O         -6.4652  -22.1626  -50.5406 O.2       18 UNK        -0.5000 
    104 N         -7.7862  -22.3367  -48.7078 N.am      19 UNK        -0.5000 
    105 CA        -7.2660  -21.1768  -47.9817 C.3       19 UNK         0.1400 
    106 CB        -7.9869  -21.0598  -46.6297 C.3       19 UNK        -0.1800 
    107 C         -7.3955  -19.8732  -48.7954 C.2       19 UNK         0.5000 
    108 O         -8.5092  -19.4880  -49.1560 O.2       19 UNK        -0.5000 
    109 N         -6.2456  -19.2470  -49.0791 N.am      20 UNK        -0.5000 
    110 CA        -6.0652  -18.0256  -49.8658 C.3       20 UNK         0.1400 
    111 CB        -6.7101  -16.8133  -49.1639 C.3       20 UNK        -0.1800 
    112 C         -6.4592  -18.1534  -51.3534 C.2       20 UNK         0.5000 
    113 O         -6.7148  -17.1358  -52.0007 O.2       20 UNK        -0.5000 
    114 N         -6.4331  -19.3802  -51.9032 N.am      21 UNK        -0.5000 
    115 CA        -6.6566  -19.6654  -53.3300 C.3       21 UNK         0.1400 
    116 CB        -6.6691  -21.1844  -53.5509 C.3       21 UNK        -0.1800 
    117 C         -5.6264  -19.0056  -54.2715 C.2       21 UNK         0.5000 
    118 O         -5.9162  -18.8041  -55.4513 O.2       21 UNK        -0.5000 
    119 N         -4.4570  -18.6633  -53.7209 N.am      22 UNK        -0.5000 
    120 CA        -3.4119  -17.8374  -54.3379 C.3       22 UNK         0.1400 
    121 C         -3.8086  -16.3514  -54.6005 C.2       22 UNK         0.5000 
    122 N         -4.8943  -15.8332  -54.0353 N.am      22 UNK        -0.7600 
    123 O         -3.1184  -15.6578  -55.3423 O.2       22 UNK        -0.5000 
    124 C124       -2.0946  -17.9411  -53.5274 C.3       23 UNK        -0.0398 
    125 S125       -2.2941  -17.4437  -51.7773 S.3       23 UNK        -0.2404 
    126 C126       -0.9637  -16.2071  -51.6003 C.3       23 UNK        -0.0205 
    127 H127        8.5975  -12.4382  -48.3647 H         1 UNK         0.0600 
    128 H128        7.4676  -11.9337  -47.1046 H         1 UNK         0.0600 
    129 H129        7.2735  -11.3375  -48.7564 H         1 UNK         0.0600 
    130 H130        8.2233  -14.4753  -49.0286 H         1 UNK         0.3000 
    131 H131        7.4574  -16.4690  -49.2597 H         1 UNK         0.0600 
    132 H132        6.9857  -15.6776  -51.4429 H         1 UNK         0.0800 
    133 H133        5.8300  -16.8859  -51.0059 H         1 UNK         0.0800 
    134 H134        3.5773  -15.0049  -53.3481 H         1 UNK         0.0800 
    135 H135        4.6791  -16.3298  -53.1128 H         1 UNK         0.0800 
    136 H136        1.3281  -15.0421  -52.4573 H         1 UNK         0.1150 
    137 H137       -0.1084  -18.6706  -50.6784 H         1 UNK         0.1150 
    138 H138        4.0622  -18.1984  -51.4811 H         1 UNK         0.1150 
    139 H139        1.4013  -20.5982  -50.5780 H         1 UNK         0.0800 
    140 H140        3.0867  -20.4217  -50.9700 H         1 UNK         0.0800 
    141 H141        0.4543  -18.9259  -48.4926 H         1 UNK         0.0800 
    142 H142        1.3491  -18.8443  -47.0136 H         1 UNK         0.0800 
    143 H143        1.1764  -21.4149  -46.8758 H         1 UNK         0.0600 
    144 H144       -0.6507  -19.4812  -45.9747 H         1 UNK         0.3000 
    145 H145       -2.4786  -21.7405  -43.8458 H         1 UNK         0.0600 
    146 H146       -0.2530  -21.1307  -42.8107 H         1 UNK         0.0600 
    147 H147       -0.4947  -19.4656  -43.3289 H         1 UNK         0.0600 
    148 H148       -1.6039  -20.2125  -42.1756 H         1 UNK         0.0600 
    149 H149       -2.5067  -18.8820  -44.5034 H         1 UNK         0.3000 
    150 H150       -5.4314  -19.1036  -46.5077 H         1 UNK         0.0600 
    151 H151       -6.2105  -17.4112  -44.8568 H         1 UNK         0.0600 
    152 H152       -5.0320  -17.9991  -43.6843 H         1 UNK         0.0600 
    153 H153       -6.3389  -19.0427  -44.2165 H         1 UNK         0.0600 
    154 H154       -3.7940  -16.9215  -45.6231 H         1 UNK         0.3000 
    155 H155       -1.4554  -17.0216  -48.3122 H         1 UNK         0.0600 
    156 H156       -3.4892  -16.0935  -49.4382 H         1 UNK         0.0600 
    157 H157       -2.4654  -14.7962  -48.8508 H         1 UNK         0.0600 
    158 H158       -3.9293  -15.2315  -47.9730 H         1 UNK         0.0600 
    159 H159       -1.9282  -14.9595  -46.4942 H         1 UNK         0.3000 
    160 H160        0.5716  -15.6376  -44.3718 H         1 UNK         0.0600 
    161 H161       -0.2948  -13.7159  -45.7100 H         1 UNK         0.0600 
    162 H162       -0.3605  -13.3839  -43.9921 H         1 UNK         0.0600 
    163 H163       -1.8373  -13.7937  -44.8493 H         1 UNK         0.0600 
    164 H164       -0.4077  -15.8368  -42.4014 H         1 UNK         0.3000 
    165 H165       -3.6881  -15.7544  -41.1998 H         1 UNK         0.0600 
    166 H166       -3.1935  -17.8407  -40.0037 H         1 UNK         0.0600 
    167 H167       -3.4749  -18.2296  -41.6934 H         1 UNK         0.0600 
    168 H168       -1.8300  -18.1836  -41.0654 H         1 UNK         0.0600 
    169 H169       -1.1434  -16.1820  -39.9392 H         1 UNK         0.3000 
    170 H170       -0.8486  -13.0462  -38.7779 H         1 UNK         0.0600 
    171 H171        1.0362  -14.4420  -37.9752 H         1 UNK         0.0600 
    172 H172       -0.4543  -15.3628  -37.9835 H         1 UNK         0.0600 
    173 H173        0.7519  -15.6273  -39.2410 H         1 UNK         0.0600 
    174 H174        0.6591  -12.0280  -40.0159 H         1 UNK         0.3000 
    175 H175        1.6850  -11.7529  -42.4872 H         1 UNK         0.0600 
    176 H176        3.6126  -12.2153  -40.1450 H         1 UNK         0.0600 
    177 H177        3.7617  -10.9031  -41.3109 H         1 UNK         0.0600 
    178 H178        2.3702  -10.9718  -40.2532 H         1 UNK         0.0600 
    179 H179        4.1018  -13.4653  -42.2773 H         1 UNK         0.3000 
    180 H180        5.0528  -12.8970  -45.1556 H         1 UNK         0.0600 
    181 H181        6.2545  -14.9939  -44.4396 H         1 UNK         0.0600 
    182 H182        4.9050  -15.3901  -43.3813 H         1 UNK         0.0600 
    183 H183        5.8648  -13.9387  -43.0979 H         1 UNK         0.0600 
    184 H184        4.4802  -14.1290  -46.8685 H         1 UNK         0.3000 
    185 H185        3.2653  -17.3784  -47.3180 H         1 UNK         0.0600 
    186 H186        1.7848  -16.3383  -49.0455 H         1 UNK         0.0600 
    187 H187        1.0958  -16.1779  -47.4450 H         1 UNK         0.0600 
    188 H188        1.8690  -14.7919  -48.2048 H         1 UNK         0.0600 
    189 H189        4.1081  -15.3305  -49.1383 H         1 UNK         0.3000 
    190 H190       -1.9562  -20.3950  -48.3809 H         1 UNK         0.3000 
    191 H191       -1.6335  -22.0860  -50.6781 H         1 UNK         0.0600 
    192 H192       -4.2070  -20.9918  -49.4720 H         1 UNK         0.0600 
    193 H193       -3.9670  -21.5542  -51.1227 H         1 UNK         0.0600 
    194 H194       -3.1623  -20.0928  -50.5748 H         1 UNK         0.0600 
    195 H195       -3.0031  -22.6148  -47.4246 H         1 UNK         0.3000 
    196 H196       -4.1368  -25.2013  -47.9484 H         1 UNK         0.0600 
    197 H197       -4.1866  -25.3819  -45.4593 H         1 UNK         0.0600 
    198 H198       -4.8621  -23.8603  -46.0184 H         1 UNK         0.0600 
    199 H199       -3.2430  -23.9038  -45.3236 H         1 UNK         0.0600 
    200 H200       -0.9393  -24.1220  -46.7037 H         1 UNK         0.3000 
    201 H201        0.2196  -26.6946  -46.3931 H         1 UNK         0.0600 
    202 H202        1.1632  -24.6306  -45.3861 H         1 UNK         0.0600 
    203 H203        1.5488  -23.9964  -46.9841 H         1 UNK         0.0600 
    204 H204        2.3684  -25.4316  -46.3831 H         1 UNK         0.0600 
    205 H205       -0.1080  -24.6089  -49.2424 H         1 UNK         0.3000 
    206 H206        1.4290  -26.2987  -51.0306 H         1 UNK         0.0600 
    207 H207        1.1597  -23.8248  -51.3502 H         1 UNK         0.0600 
    208 H208        0.6154  -24.7336  -52.7509 H         1 UNK         0.0600 
    209 H209       -0.5636  -24.0551  -51.6398 H         1 UNK         0.0600 
    210 H210       -1.4628  -26.9254  -49.5457 H         1 UNK         0.3000 
    211 H211       -3.0370  -28.4192  -49.7226 H         1 UNK         0.0600 
    212 H212       -1.6410  -29.5997  -52.1743 H         1 UNK         0.0600 
    213 H213       -2.8092  -30.3987  -51.1347 H         1 UNK         0.0600 
    214 H214       -1.2293  -29.9733  -50.5002 H         1 UNK         0.0600 
    215 H215       -3.3354  -25.8315  -51.0420 H         1 UNK         0.3000 
    216 H216       -5.6033  -26.4159  -52.8986 H         1 UNK         0.0600 
    217 H217       -5.3905  -24.0707  -53.5705 H         1 UNK         0.0600 
    218 H218       -3.7987  -24.7938  -53.7001 H         1 UNK         0.0600 
    219 H219       -4.1832  -23.7540  -52.3309 H         1 UNK         0.0600 
    220 H220       -7.2553  -24.4117  -52.4279 H         1 UNK         0.3000 
    221 H221       -8.2658  -24.6809  -49.6960 H         1 UNK         0.0600 
    222 H222       -9.1678  -22.9242  -52.0490 H         1 UNK         0.0600 
    223 H223       -9.8361  -24.4967  -51.6199 H         1 UNK         0.0600 
    224 H224      -10.0348  -23.1308  -50.5349 H         1 UNK         0.0600 
    225 H225       -8.5391  -22.8414  -48.2638 H         1 UNK         0.3000 
    226 H226       -6.2088  -21.3655  -47.7821 H         1 UNK         0.0600 
    227 H227       -7.8038  -21.9371  -46.0088 H         1 UNK         0.0600 
    228 H228       -7.6371  -20.1909  -46.0720 H         1 UNK         0.0600 
    229 H229       -9.0651  -20.9541  -46.7559 H         1 UNK         0.0600 
    230 H230       -5.3811  -19.6592  -48.7547 H         1 UNK         0.3000 
    231 H231       -4.9896  -17.8522  -49.8809 H         1 UNK         0.0600 
    232 H232       -7.7985  -16.8746  -49.1674 H         1 UNK         0.0600 
    233 H233       -6.3799  -16.7375  -48.1277 H         1 UNK         0.0600 
    234 H234       -6.4336  -15.8813  -49.6582 H         1 UNK         0.0600 
    235 H235       -6.2543  -20.1835  -51.3097 H         1 UNK         0.3000 
    236 H236       -7.6389  -19.2714  -53.5979 H         1 UNK         0.0600 
    237 H237       -5.7336  -21.6415  -53.2272 H         1 UNK         0.0600 
    238 H238       -7.4821  -21.6521  -52.9993 H         1 UNK         0.0600 
    239 H239       -6.8110  -21.4309  -54.6039 H         1 UNK         0.0600 
    240 H240       -4.3188  -18.8688  -52.7432 H         1 UNK         0.3000 
    241 H241       -3.2179  -18.2653  -55.3231 H         1 UNK         0.0600 
    242 H242       -5.1352  -14.8732  -54.2224 H         1 UNK         0.3800 
    243 H243       -5.4738  -16.3786  -53.4066 H         1 UNK         0.3800 
    244 H244       -1.3048  -17.3547  -54.0001 H         1 UNK         0.0800 
    245 H245       -1.7376  -18.9716  -53.5400 H         1 UNK         0.0800 
    246 H246       -1.1121  -15.6655  -50.6671 H         1 UNK         0.0800 
    247 H247       -1.0609  -15.4719  -52.4008 H         1 UNK         0.0800 
@<TRIPOS>BOND
     1    1    2 1    
     2    1  127 1    
     3    1  128 1    
     4    1  129 1    
     5    2    3 2    
     6    2    4 am   BACKBONE|DICT|INTERRES
     7    4    5 1    
     8    4  130 1    
     9    5    6 1    
    10    5   65 1    
    11    5  131 1    
    12    6    7 1    
    13    6  132 1    
    14    6  133 1    
    15    7    8 1    
    16    8    9 1    
    17    8  134 1    
    18    8  135 1    
    19    9   10 ar   
    20    9   14 ar   
    21   10   11 ar   
    22   10  136 1    
    23   11   12 ar   
    24   11  126 1    
    25   12   13 ar   
    26   12  137 1    
    27   13   14 ar   
    28   13   15 1    
    29   14  138 1    
    30   15   16 1    
    31   15  139 1    
    32   15  140 1    
    33   16   17 1    
    34   17   18 1    
    35   17  141 1    
    36   17  142 1    
    37   18   19 1    
    38   18   67 1    
    39   18  143 1    
    40   19   20 am   BACKBONE|DICT|INTERRES
    41   19  144 1    
    42   20   21 2    
    43   20   22 1    
    44   22   23 1    
    45   22   24 1    
    46   22  145 1    
    47   23  146 1    
    48   23  147 1    
    49   23  148 1    
    50   24   25 am   BACKBONE|DICT|INTERRES
    51   24  149 1    
    52   25   26 2    
    53   25   27 1    
    54   27   28 1    
    55   27   29 1    
    56   27  150 1    
    57   28  151 1    
    58   28  152 1    
    59   28  153 1    
    60   29   30 am   BACKBONE|DICT|INTERRES
    61   29  154 1    
    62   30   31 2    
    63   30   32 1    
    64   32   33 1    
    65   32   34 1    
    66   32  155 1    
    67   33  156 1    
    68   33  157 1    
    69   33  158 1    
    70   34   35 am   BACKBONE|DICT|INTERRES
    71   34  159 1    
    72   35   36 2    
    73   35   37 1    
    74   37   38 1    
    75   37   39 1    
    76   37  160 1    
    77   38  161 1    
    78   38  162 1    
    79   38  163 1    
    80   39   40 am   BACKBONE|DICT|INTERRES
    81   39  164 1    
    82   40   41 2    
    83   40   42 1    
    84   42   43 1    
    85   42   44 1    
    86   42  165 1    
    87   43  166 1    
    88   43  167 1    
    89   43  168 1    
    90   44   45 am   BACKBONE|DICT|INTERRES
    91   44  169 1    
    92   45   46 2    
    93   45   47 1    
    94   47   48 1    
    95   47   49 1    
    96   47  170 1    
    97   48  171 1    
    98   48  172 1    
    99   48  173 1    
   100   49   50 am   BACKBONE|DICT|INTERRES
   101   49  174 1    
   102   50   51 2    
   103   50   52 1    
   104   52   53 1    
   105   52   54 1    
   106   52  175 1    
   107   53  176 1    
   108   53  177 1    
   109   53  178 1    
   110   54   55 am   BACKBONE|DICT|INTERRES
   111   54  179 1    
   112   55   56 2    
   113   55   57 1    
   114   57   58 1    
   115   57   59 1    
   116   57  180 1    
   117   58  181 1    
   118   58  182 1    
   119   58  183 1    
   120   59   60 am   BACKBONE|DICT|INTERRES
   121   59  184 1    
   122   60   61 2    
   123   60   62 1    
   124   62   63 1    
   125   62   64 1    
   126   62  185 1    
   127   63  186 1    
   128   63  187 1    
   129   63  188 1    
   130   64   65 am   BACKBONE|DICT|INTERRES
   131   64  189 1    
   132   65   66 2    
   133   67   68 2    
   134   67   69 am   BACKBONE|DICT|INTERRES
   135   69   70 1    
   136   69  190 1    
   137   70   71 1    
   138   70   72 1    
   139   70  191 1    
   140   71  192 1    
   141   71  193 1    
   142   71  194 1    
   143   72   73 2    
   144   72   74 am   BACKBONE|DICT|INTERRES
   145   74   75 1    
   146   74  195 1    
   147   75   76 1    
   148   75   77 1    
   149   75  196 1    
   150   76  197 1    
   151   76  198 1    
   152   76  199 1    
   153   77   78 2    
   154   77   79 am   BACKBONE|DICT|INTERRES
   155   79   80 1    
   156   79  200 1    
   157   80   81 1    
   158   80   82 1    
   159   80  201 1    
   160   81  202 1    
   161   81  203 1    
   162   81  204 1    
   163   82   83 2    
   164   82   84 am   BACKBONE|DICT|INTERRES
   165   84   85 1    
   166   84  205 1    
   167   85   86 1    
   168   85   87 1    
   169   85  206 1    
   170   86  207 1    
   171   86  208 1    
   172   86  209 1    
   173   87   88 2    
   174   87   89 am   BACKBONE|DICT|INTERRES
   175   89   90 1    
   176   89  210 1    
   177   90   91 1    
   178   90   92 1    
   179   90  211 1    
   180   91  212 1    
   181   91  213 1    
   182   91  214 1    
   183   92   93 2    
   184   92   94 am   BACKBONE|DICT|INTERRES
   185   94   95 1    
   186   94  215 1    
   187   95   96 1    
   188   95   97 1    
   189   95  216 1    
   190   96  217 1    
   191   96  218 1    
   192   96  219 1    
   193   97   98 2    
   194   97   99 am   BACKBONE|DICT|INTERRES
   195   99  100 1    
   196   99  220 1    
   197  100  101 1    
   198  100  102 1    
   199  100  221 1    
   200  101  222 1    
   201  101  223 1    
   202  101  224 1    
   203  102  103 2    
   204  102  104 am   BACKBONE|DICT|INTERRES
   205  104  105 1    
   206  104  225 1    
   207  105  106 1    
   208  105  107 1    
   209  105  226 1    
   210  106  227 1    
   211  106  228 1    
   212  106  229 1    
   213  107  108 2    
   214  107  109 am   BACKBONE|DICT|INTERRES
   215  109  110 1    
   216  109  230 1    
   217  110  111 1    
   218  110  112 1    
   219  110  231 1    
   220  111  232 1    
   221  111  233 1    
   222  111  234 1    
   223  112  113 2    
   224  112  114 am   BACKBONE|DICT|INTERRES
   225  114  115 1    
   226  114  235 1    
   227  115  116 1    
   228  115  117 1    
   229  115  236 1    
   230  116  237 1    
   231  116  238 1    
   232  116  239 1    
   233  117  118 2    
   234  117  119 am   BACKBONE|DICT|INTERRES
   235  119  120 1    
   236  119  240 1    
   237  120  121 1    
   238  120  124 1    
   239  120  241 1    
   240  121  122 am   BACKBONE|DICT|INTERRES
   241  121  123 2    
   242  122  242 1    
   243  122  243 1    
   244  124  125 1    
   245  124  244 1    
   246  124  245 1    
   247  125  126 1    
   248  126  246 1    
   249  126  247 1    
@<TRIPOS>SUBSTRUCTURE
     1 UNK         1 GROUP             0       ****    0 ROOT    
