@<TRIPOS>MOLECULE
3R540
247   249    1
SMALL
USER_CHARGES


@<TRIPOS>ATOM
      1 CA          2.6913   -8.6789  -49.8582 C.3       0 UNK        -0.1800 
      2 C           2.2433   -9.8880  -49.0484 C.2       0 UNK         0.5000 
      3 O           1.4200   -9.7428  -48.1444 O.2       0 UNK        -0.5000 
      4 N           2.7776  -11.0722  -49.3799 N.am      1 UNK        -0.5000 
      5 CA          2.5487  -12.3618  -48.7134 C.3       1 UNK         0.1400 
      6 C6          1.0428  -12.7506  -48.6554 C.3       23 UNK        -0.0398 
      7 S7          0.7452  -14.5478  -48.5353 S.3       23 UNK        -0.2404 
      8 C8          0.5790  -15.0253  -50.2799 C.3       23 UNK        -0.0205 
      9 C9          0.1063  -16.4655  -50.3875 C.ar      23 UNK        -0.0193 
     10 C10        -1.2382  -16.7462  -50.6478 C.ar      23 UNK        -0.1150 
     11 C11        -1.6848  -18.0681  -50.7210 C.ar      23 UNK        -0.0193 
     12 C12        -0.7774  -19.1117  -50.5171 C.ar      23 UNK        -0.1150 
     13 C13         0.5713  -18.8460  -50.2617 C.ar      23 UNK        -0.0193 
     14 C14         1.0089  -17.5186  -50.2094 C.ar      23 UNK        -0.1150 
     15 C15         1.5484  -20.0000  -50.0685 C.3       23 UNK        -0.0205 
     16 S16         2.5273  -19.9027  -48.5295 S.3       23 UNK        -0.2404 
     17 C17         1.2643  -19.7031  -47.2282 C.3       23 UNK        -0.0398 
     18 CA          0.6407  -21.0423  -46.7545 C.3       11 UNK         0.1400 
     19 N           0.3601  -21.0402  -45.3164 N.am      11 UNK        -0.5000 
     20 C          -0.1088  -22.0801  -44.6117 C.2       10 UNK         0.5000 
     21 O          -0.2821  -23.2053  -45.0789 O.2       10 UNK        -0.5000 
     22 CA         -0.5105  -21.7947  -43.1537 C.3       10 UNK         0.1400 
     23 CB          0.6990  -21.9002  -42.2126 C.3       10 UNK        -0.1800 
     24 N          -1.1387  -20.4797  -43.0132 N.am      10 UNK        -0.5000 
     25 C          -2.3505  -20.1699  -43.4963 C.2       9 UNK         0.5000 
     26 O          -3.0901  -20.9803  -44.0538 O.2       9 UNK        -0.5000 
     27 CA         -2.7858  -18.6982  -43.3823 C.3       9 UNK         0.1400 
     28 CB         -3.3578  -18.4049  -41.9876 C.3       9 UNK        -0.1800 
     29 N          -1.6899  -17.7717  -43.6723 N.am      9 UNK        -0.5000 
     30 C          -1.1485  -17.6115  -44.8902 C.2       8 UNK         0.5000 
     31 O          -1.5414  -18.2105  -45.8899 O.2       8 UNK        -0.5000 
     32 CA          0.0588  -16.6608  -45.0140 C.3       8 UNK         0.1400 
     33 CB         -0.4307  -15.2253  -45.2547 C.3       8 UNK        -0.1800 
     34 N           0.9392  -16.6654  -43.8465 N.am      8 UNK        -0.5000 
     35 C           1.4940  -17.7349  -43.2628 C.2       7 UNK         0.5000 
     36 O           1.4247  -18.8726  -43.7261 O.2       7 UNK        -0.5000 
     37 CA          2.1719  -17.5117  -41.8950 C.3       7 UNK         0.1400 
     38 CB          3.6980  -17.4406  -42.0344 C.3       7 UNK        -0.1800 
     39 N           1.6994  -16.3257  -41.1710 N.am      7 UNK        -0.5000 
     40 C           0.4335  -16.1029  -40.7822 C.2       6 UNK         0.5000 
     41 O          -0.4930  -16.8781  -41.0281 O.2       6 UNK        -0.5000 
     42 CA          0.1543  -14.7880  -40.0196 C.3       6 UNK         0.1400 
     43 CB         -1.1344  -14.8483  -39.1737 C.3       6 UNK        -0.1800 
     44 N           1.2883  -14.3289  -39.2107 N.am      6 UNK        -0.5000 
     45 C           1.9002  -14.9903  -38.2139 C.2       5 UNK         0.5000 
     46 O           1.5077  -16.0712  -37.7718 O.2       5 UNK        -0.5000 
     47 CA          3.1698  -14.3410  -37.6131 C.3       5 UNK         0.1400 
     48 CB          4.2219  -15.3919  -37.2002 C.3       5 UNK        -0.1800 
     49 N           3.7828  -13.3101  -38.4633 N.am      5 UNK        -0.5000 
     50 C           4.2662  -13.4642  -39.7044 C.2       4 UNK         0.5000 
     51 O           4.2732  -14.5322  -40.3203 O.2       4 UNK        -0.5000 
     52 CA          4.7708  -12.1841  -40.3949 C.3       4 UNK         0.1400 
     53 CB          6.2611  -12.3029  -40.7494 C.3       4 UNK        -0.1800 
     54 N           4.0108  -11.8935  -41.6104 N.am      4 UNK        -0.5000 
     55 C           2.6841  -11.7090  -41.6844 C.2       3 UNK         0.5000 
     56 O           1.9355  -11.7067  -40.7053 O.2       3 UNK        -0.5000 
     57 CA          2.0895  -11.5145  -43.0939 C.3       3 UNK         0.1400 
     58 CB          1.9587  -10.0207  -43.4253 C.3       3 UNK        -0.1800 
     59 N           2.8635  -12.1717  -44.1505 N.am      3 UNK        -0.5000 
     60 C           3.0132  -13.4957  -44.2733 C.2       2 UNK         0.5000 
     61 O           2.4874  -14.3046  -43.5084 O.2       2 UNK        -0.5000 
     62 CA          3.8653  -13.9789  -45.4647 C.3       2 UNK         0.1400 
     63 CB          4.1279  -15.4947  -45.4421 C.3       2 UNK        -0.1800 
     64 N           3.2371  -13.6423  -46.7403 N.am      2 UNK        -0.5000 
     65 C           3.2618  -12.4472  -47.3399 C.2       1 UNK         0.5000 
     66 O           3.8426  -11.4699  -46.8579 O.2       1 UNK        -0.5000 
     67 C          -0.6217  -21.3940  -47.5675 C.2       11 UNK         0.5000 
     68 O          -0.5802  -22.3041  -48.3941 O.2       11 UNK        -0.5000 
     69 N          -1.7340  -20.7037  -47.2783 N.am      12 UNK        -0.5000 
     70 CA         -3.0398  -20.9367  -47.8911 C.3       12 UNK         0.1400 
     71 CB         -4.0191  -19.8369  -47.4567 C.3       12 UNK        -0.1800 
     72 C          -3.6087  -22.3337  -47.5940 C.2       12 UNK         0.5000 
     73 O          -4.1467  -22.9643  -48.5024 O.2       12 UNK        -0.5000 
     74 N          -3.4474  -22.8101  -46.3512 N.am      13 UNK        -0.5000 
     75 CA         -3.8408  -24.1552  -45.9268 C.3       13 UNK         0.1400 
     76 CB         -3.6954  -24.2823  -44.4033 C.3       13 UNK        -0.1800 
     77 C          -3.0539  -25.2672  -46.6464 C.2       13 UNK         0.5000 
     78 O          -3.6420  -26.2880  -47.0028 O.2       13 UNK        -0.5000 
     79 N          -1.7521  -25.0434  -46.8732 N.am      14 UNK        -0.5000 
     80 CA         -0.8867  -25.9326  -47.6481 C.3       14 UNK         0.1400 
     81 CB          0.5836  -25.5614  -47.4011 C.3       14 UNK        -0.1800 
     82 C          -1.2165  -25.9037  -49.1525 C.2       14 UNK         0.5000 
     83 O          -1.2547  -26.9580  -49.7881 O.2       14 UNK        -0.5000 
     84 N          -1.4646  -24.7014  -49.6903 N.am      15 UNK        -0.5000 
     85 CA         -1.7964  -24.4626  -51.0961 C.3       15 UNK         0.1400 
     86 CB         -1.6935  -22.9586  -51.3939 C.3       15 UNK        -0.1800 
     87 C          -3.1816  -24.9879  -51.5149 C.2       15 UNK         0.5000 
     88 O          -3.3841  -25.2287  -52.7031 O.2       15 UNK        -0.5000 
     89 N          -4.1000  -25.1575  -50.5515 N.am      16 UNK        -0.5000 
     90 CA         -5.5177  -25.5026  -50.7235 C.3       16 UNK         0.1400 
     91 CB         -6.1546  -25.7051  -49.3401 C.3       16 UNK        -0.1800 
     92 C          -5.8257  -26.7188  -51.6217 C.2       16 UNK         0.5000 
     93 O          -6.9080  -26.7721  -52.2069 O.2       16 UNK        -0.5000 
     94 N          -4.8760  -27.6574  -51.7358 N.am      17 UNK        -0.5000 
     95 CA         -4.9437  -28.8250  -52.6183 C.3       17 UNK         0.1400 
     96 CB         -3.7575  -29.7493  -52.3040 C.3       17 UNK        -0.1800 
     97 C          -4.9709  -28.4777  -54.1235 C.2       17 UNK         0.5000 
     98 O          -5.4728  -29.2769  -54.9152 O.2       17 UNK        -0.5000 
     99 N          -4.4453  -27.3037  -54.4931 N.am      18 UNK        -0.5000 
    100 CA        -4.4182  -26.7703  -55.8522 C.3       18 UNK         0.1400 
    101 CB        -3.2242  -27.3601  -56.6286 C.3       18 UNK        -0.1800 
    102 C         -4.3882  -25.2375  -55.7523 C.2       18 UNK         0.5000 
    103 O         -3.4218  -24.6061  -56.1832 O.2       18 UNK        -0.5000 
    104 N         -5.4269  -24.6864  -55.1057 N.am      19 UNK        -0.5000 
    105 CA        -5.5129  -23.2993  -54.6405 C.3       19 UNK         0.1400 
    106 CB        -6.8611  -23.0912  -53.9321 C.3       19 UNK        -0.1800 
    107 C         -5.3153  -22.2366  -55.7345 C.2       19 UNK         0.5000 
    108 O         -4.5874  -21.2695  -55.5074 O.2       19 UNK        -0.5000 
    109 N         -5.9661  -22.4373  -56.8911 N.am      20 UNK        -0.5000 
    110 CA        -5.9589  -21.5576  -58.0653 C.3       20 UNK         0.1400 
    111 CB        -4.6064  -21.6715  -58.8040 C.3       20 UNK        -0.1800 
    112 C         -6.3535  -20.1115  -57.6916 C.2       20 UNK         0.5000 
    113 O         -7.5087  -19.8784  -57.3303 O.2       20 UNK        -0.5000 
    114 N         -5.3860  -19.1845  -57.7254 N.am      21 UNK        -0.5000 
    115 CA        -5.5271  -17.7824  -57.3233 C.3       21 UNK         0.1400 
    116 CB        -4.2174  -17.0426  -57.6359 C.3       21 UNK        -0.1800 
    117 C         -5.9196  -17.5807  -55.8440 C.2       21 UNK         0.5000 
    118 O         -6.5190  -16.5543  -55.5203 O.2       21 UNK        -0.5000 
    119 N         -5.6041  -18.5570  -54.9820 N.am      22 UNK        -0.5000 
    120 CA        -6.0451  -18.6030  -53.5782 C.3       22 UNK         0.1400 
    121 C         -7.5324  -19.0355  -53.3985 C.2       22 UNK         0.5000 
    122 N         -8.2434  -19.4714  -54.4334 N.am      22 UNK        -0.7600 
    123 O         -8.0577  -18.9678  -52.2910 O.2       22 UNK        -0.5000 
    124 C124       -5.1130  -19.4778  -52.6988 C.3       23 UNK        -0.0398 
    125 S125       -3.3687  -18.9394  -52.7299 S.3       23 UNK        -0.2404 
    126 C126       -3.1450  -18.3730  -51.0162 C.3       23 UNK        -0.0205 
    127 H127        3.4100   -8.9511  -50.6316 H         1 UNK         0.0600 
    128 H128        3.1585   -7.9425  -49.2043 H         1 UNK         0.0600 
    129 H129        1.8330   -8.2117  -50.3412 H         1 UNK         0.0600 
    130 H130        3.4652  -11.0969  -50.1200 H         1 UNK         0.3000 
    131 H131        3.0527  -13.0872  -49.3542 H         1 UNK         0.0600 
    132 H132        0.5270  -12.3844  -49.5440 H         1 UNK         0.0800 
    133 H133        0.5495  -12.2644  -47.8120 H         1 UNK         0.0800 
    134 H134        1.5380  -14.9072  -50.7866 H         1 UNK         0.0800 
    135 H135       -0.1245  -14.3581  -50.7803 H         1 UNK         0.0800 
    136 H136       -1.9379  -15.9348  -50.7908 H         1 UNK         0.1150 
    137 H137       -1.1236  -20.1339  -50.5714 H         1 UNK         0.1150 
    138 H138        2.0495  -17.3043  -50.0102 H         1 UNK         0.1150 
    139 H139        1.0271  -20.9575  -50.0910 H         1 UNK         0.0800 
    140 H140        2.2362  -20.0145  -50.9147 H         1 UNK         0.0800 
    141 H141        0.5112  -18.9759  -47.5357 H         1 UNK         0.0800 
    142 H142        1.7873  -19.2290  -46.3970 H         1 UNK         0.0800 
    143 H143        1.3660  -21.8427  -46.9159 H         1 UNK         0.0600 
    144 H144        0.5338  -20.1717  -44.8186 H         1 UNK         0.3000 
    145 H145       -1.2371  -22.5519  -42.8524 H         1 UNK         0.0600 
    146 H146        0.4075  -21.7321  -41.1757 H         1 UNK         0.0600 
    147 H147        1.4770  -21.1794  -42.4633 H         1 UNK         0.0600 
    148 H148        1.1458  -22.8937  -42.2673 H         1 UNK         0.0600 
    149 H149       -0.5712  -19.7431  -42.6193 H         1 UNK         0.3000 
    150 H150       -3.5774  -18.5267  -44.1150 H         1 UNK         0.0600 
    151 H151       -4.2142  -19.0464  -41.7758 H         1 UNK         0.0600 
    152 H152       -3.6969  -17.3719  -41.9090 H         1 UNK         0.0600 
    153 H153       -2.6193  -18.5753  -41.2035 H         1 UNK         0.0600 
    154 H154       -1.2843  -17.2839  -42.8800 H         1 UNK         0.3000 
    155 H155        0.6480  -16.9758  -45.8768 H         1 UNK         0.0600 
    156 H156       -1.1011  -15.1790  -46.1140 H         1 UNK         0.0600 
    157 H157        0.4015  -14.5520  -45.4577 H         1 UNK         0.0600 
    158 H158       -0.9734  -14.8353  -44.3928 H         1 UNK         0.0600 
    159 H159        1.1635  -15.7592  -43.4475 H         1 UNK         0.3000 
    160 H160        1.9310  -18.3831  -41.2832 H         1 UNK         0.0600 
    161 H161        4.0105  -16.5067  -42.4995 H         1 UNK         0.0600 
    162 H162        4.0826  -18.2626  -42.6395 H         1 UNK         0.0600 
    163 H163        4.1817  -17.4983  -41.0591 H         1 UNK         0.0600 
    164 H164        2.4033  -15.6293  -40.9542 H         1 UNK         0.3000 
    165 H165        0.0072  -14.0267  -40.7870 H         1 UNK         0.0600 
    166 H166       -1.3136  -13.9037  -38.6603 H         1 UNK         0.0600 
    167 H167       -2.0052  -15.0454  -39.8002 H         1 UNK         0.0600 
    168 H168       -1.0891  -15.6366  -38.4218 H         1 UNK         0.0600 
    169 H169        1.6870  -13.4430  -39.5027 H         1 UNK         0.3000 
    170 H170        2.8420  -13.8299  -36.7068 H         1 UNK         0.0600 
    171 H171        4.5417  -15.9989  -38.0479 H         1 UNK         0.0600 
    172 H172        5.1062  -14.9188  -36.7735 H         1 UNK         0.0600 
    173 H173        3.8244  -16.0709  -36.4450 H         1 UNK         0.0600 
    174 H174        3.7888  -12.3805  -38.0663 H         1 UNK         0.3000 
    175 H175        4.6475  -11.3377  -39.7163 H         1 UNK         0.0600 
    176 H176        6.4429  -13.1100  -41.4606 H         1 UNK         0.0600 
    177 H177        6.6386  -11.3783  -41.1866 H         1 UNK         0.0600 
    178 H178        6.8579  -12.5089  -39.8599 H         1 UNK         0.0600 
    179 H179        4.5297  -11.9053  -42.4753 H         1 UNK         0.3000 
    180 H180        1.0891  -11.9526  -43.0895 H         1 UNK         0.0600 
    181 H181        1.4691   -9.8720  -44.3882 H         1 UNK         0.0600 
    182 H182        2.9324   -9.5309  -43.4649 H         1 UNK         0.0600 
    183 H183        1.3605   -9.5041  -42.6735 H         1 UNK         0.0600 
    184 H184        3.2824  -11.5785  -44.8589 H         1 UNK         0.3000 
    185 H185        4.8324  -13.4757  -45.4013 H         1 UNK         0.0600 
    186 H186        3.2023  -16.0699  -45.4715 H         1 UNK         0.0600 
    187 H187        4.7361  -15.8011  -46.2932 H         1 UNK         0.0600 
    188 H188        4.6728  -15.7802  -44.5433 H         1 UNK         0.0600 
    189 H189        2.7021  -14.3803  -47.1787 H         1 UNK         0.3000 
    190 H190       -1.6785  -19.9328  -46.6169 H         1 UNK         0.3000 
    191 H191       -2.9075  -20.8690  -48.9708 H         1 UNK         0.0600 
    192 H192       -4.1718  -19.8380  -46.3771 H         1 UNK         0.0600 
    193 H193       -4.9931  -19.9718  -47.9284 H         1 UNK         0.0600 
    194 H194       -3.6531  -18.8498  -47.7402 H         1 UNK         0.0600 
    195 H195       -3.0484  -22.2045  -45.6409 H         1 UNK         0.3000 
    196 H196       -4.8959  -24.2845  -46.1768 H         1 UNK         0.0600 
    197 H197       -4.3014  -23.5388  -43.8854 H         1 UNK         0.0600 
    198 H198       -2.6612  -24.1528  -44.0852 H         1 UNK         0.0600 
    199 H199       -4.0230  -25.2647  -44.0611 H         1 UNK         0.0600 
    200 H200       -1.3250  -24.2033  -46.4957 H         1 UNK         0.3000 
    201 H201       -1.0400  -26.9537  -47.2925 H         1 UNK         0.0600 
    202 H202        0.8382  -25.6473  -46.3446 H         1 UNK         0.0600 
    203 H203        0.8017  -24.5397  -47.7132 H         1 UNK         0.0600 
    204 H204        1.2518  -26.2237  -47.9527 H         1 UNK         0.0600 
    205 H205       -1.3482  -23.8751  -49.1085 H         1 UNK         0.3000 
    206 H206       -1.0550  -24.9803  -51.7080 H         1 UNK         0.0600 
    207 H207       -0.6911  -22.5837  -51.1881 H         1 UNK         0.0600 
    208 H208       -1.9089  -22.7489  -52.4427 H         1 UNK         0.0600 
    209 H209       -2.3989  -22.3833  -50.7942 H         1 UNK         0.0600 
    210 H210       -3.8361  -24.8683  -49.6178 H         1 UNK         0.3000 
    211 H211       -5.9910  -24.6359  -51.1857 H         1 UNK         0.0600 
    212 H212       -5.6928  -26.5363  -48.8064 H         1 UNK         0.0600 
    213 H213       -7.2202  -25.9222  -49.4257 H         1 UNK         0.0600 
    214 H214       -6.0581  -24.8135  -48.7212 H         1 UNK         0.0600 
    215 H215       -4.0133  -27.5210  -51.2283 H         1 UNK         0.3000 
    216 H216       -5.8667  -29.3624  -52.3911 H         1 UNK         0.0600 
    217 H217       -3.7851  -30.6467  -52.9235 H         1 UNK         0.0600 
    218 H218       -3.7742  -30.0736  -51.2633 H         1 UNK         0.0600 
    219 H219       -2.8033  -29.2531  -52.4863 H         1 UNK         0.0600 
    220 H220       -4.0734  -26.6799  -53.7790 H         1 UNK         0.3000 
    221 H221       -5.3401  -27.0412  -56.3710 H         1 UNK         0.0600 
    222 H222       -2.2769  -27.1368  -56.1365 H         1 UNK         0.0600 
    223 H223       -3.3067  -28.4433  -56.7186 H         1 UNK         0.0600 
    224 H224       -3.1765  -26.9539  -57.6396 H         1 UNK         0.0600 
    225 H225       -6.1563  -25.3048  -54.7808 H         1 UNK         0.3000 
    226 H226       -4.7187  -23.1580  -53.9047 H         1 UNK         0.0600 
    227 H227       -6.9934  -23.7952  -53.1119 H         1 UNK         0.0600 
    228 H228       -6.9353  -22.0881  -53.5122 H         1 UNK         0.0600 
    229 H229       -7.7001  -23.2202  -54.6169 H         1 UNK         0.0600 
    230 H230       -6.5524  -23.2566  -56.9615 H         1 UNK         0.3000 
    231 H231       -6.7360  -21.9227  -58.7384 H         1 UNK         0.0600 
    232 H232       -4.5903  -21.0460  -59.6974 H         1 UNK         0.0600 
    233 H233       -4.4299  -22.6970  -59.1286 H         1 UNK         0.0600 
    234 H234       -3.7641  -21.3814  -58.1749 H         1 UNK         0.0600 
    235 H235       -4.4584  -19.4810  -57.9913 H         1 UNK         0.3000 
    236 H236       -6.3212  -17.3447  -57.9315 H         1 UNK         0.0600 
    237 H237       -3.3793  -17.4565  -57.0735 H         1 UNK         0.0600 
    238 H238       -3.9734  -17.1008  -58.6968 H         1 UNK         0.0600 
    239 H239       -4.2945  -15.9852  -57.3792 H         1 UNK         0.0600 
    240 H240       -5.1156  -19.3816  -55.3188 H         1 UNK         0.3000 
    241 H241       -5.9881  -17.5869  -53.1833 H         1 UNK         0.0600 
    242 H242       -9.2047  -19.7360  -54.2890 H         1 UNK         0.3800 
    243 H243       -7.8501  -19.5228  -55.3665 H         1 UNK         0.3800 
    244 H244       -5.4634  -19.4834  -51.6653 H         1 UNK         0.0800 
    245 H245       -5.1457  -20.5170  -53.0246 H         1 UNK         0.0800 
    246 H246       -3.5006  -19.1400  -50.3303 H         1 UNK         0.0800 
    247 H247       -3.7664  -17.4928  -50.8437 H         1 UNK         0.0800 
@<TRIPOS>BOND
     1    1    2 1    
     2    1  127 1    
     3    1  128 1    
     4    1  129 1    
     5    2    3 2    
     6    2    4 am   BACKBONE|DICT|INTERRES
     7    4    5 1    
     8    4  130 1    
     9    5    6 1    
    10    5   65 1    
    11    5  131 1    
    12    6    7 1    
    13    6  132 1    
    14    6  133 1    
    15    7    8 1    
    16    8    9 1    
    17    8  134 1    
    18    8  135 1    
    19    9   10 ar   
    20    9   14 ar   
    21   10   11 ar   
    22   10  136 1    
    23   11   12 ar   
    24   11  126 1    
    25   12   13 ar   
    26   12  137 1    
    27   13   14 ar   
    28   13   15 1    
    29   14  138 1    
    30   15   16 1    
    31   15  139 1    
    32   15  140 1    
    33   16   17 1    
    34   17   18 1    
    35   17  141 1    
    36   17  142 1    
    37   18   19 1    
    38   18   67 1    
    39   18  143 1    
    40   19   20 am   BACKBONE|DICT|INTERRES
    41   19  144 1    
    42   20   21 2    
    43   20   22 1    
    44   22   23 1    
    45   22   24 1    
    46   22  145 1    
    47   23  146 1    
    48   23  147 1    
    49   23  148 1    
    50   24   25 am   BACKBONE|DICT|INTERRES
    51   24  149 1    
    52   25   26 2    
    53   25   27 1    
    54   27   28 1    
    55   27   29 1    
    56   27  150 1    
    57   28  151 1    
    58   28  152 1    
    59   28  153 1    
    60   29   30 am   BACKBONE|DICT|INTERRES
    61   29  154 1    
    62   30   31 2    
    63   30   32 1    
    64   32   33 1    
    65   32   34 1    
    66   32  155 1    
    67   33  156 1    
    68   33  157 1    
    69   33  158 1    
    70   34   35 am   BACKBONE|DICT|INTERRES
    71   34  159 1    
    72   35   36 2    
    73   35   37 1    
    74   37   38 1    
    75   37   39 1    
    76   37  160 1    
    77   38  161 1    
    78   38  162 1    
    79   38  163 1    
    80   39   40 am   BACKBONE|DICT|INTERRES
    81   39  164 1    
    82   40   41 2    
    83   40   42 1    
    84   42   43 1    
    85   42   44 1    
    86   42  165 1    
    87   43  166 1    
    88   43  167 1    
    89   43  168 1    
    90   44   45 am   BACKBONE|DICT|INTERRES
    91   44  169 1    
    92   45   46 2    
    93   45   47 1    
    94   47   48 1    
    95   47   49 1    
    96   47  170 1    
    97   48  171 1    
    98   48  172 1    
    99   48  173 1    
   100   49   50 am   BACKBONE|DICT|INTERRES
   101   49  174 1    
   102   50   51 2    
   103   50   52 1    
   104   52   53 1    
   105   52   54 1    
   106   52  175 1    
   107   53  176 1    
   108   53  177 1    
   109   53  178 1    
   110   54   55 am   BACKBONE|DICT|INTERRES
   111   54  179 1    
   112   55   56 2    
   113   55   57 1    
   114   57   58 1    
   115   57   59 1    
   116   57  180 1    
   117   58  181 1    
   118   58  182 1    
   119   58  183 1    
   120   59   60 am   BACKBONE|DICT|INTERRES
   121   59  184 1    
   122   60   61 2    
   123   60   62 1    
   124   62   63 1    
   125   62   64 1    
   126   62  185 1    
   127   63  186 1    
   128   63  187 1    
   129   63  188 1    
   130   64   65 am   BACKBONE|DICT|INTERRES
   131   64  189 1    
   132   65   66 2    
   133   67   68 2    
   134   67   69 am   BACKBONE|DICT|INTERRES
   135   69   70 1    
   136   69  190 1    
   137   70   71 1    
   138   70   72 1    
   139   70  191 1    
   140   71  192 1    
   141   71  193 1    
   142   71  194 1    
   143   72   73 2    
   144   72   74 am   BACKBONE|DICT|INTERRES
   145   74   75 1    
   146   74  195 1    
   147   75   76 1    
   148   75   77 1    
   149   75  196 1    
   150   76  197 1    
   151   76  198 1    
   152   76  199 1    
   153   77   78 2    
   154   77   79 am   BACKBONE|DICT|INTERRES
   155   79   80 1    
   156   79  200 1    
   157   80   81 1    
   158   80   82 1    
   159   80  201 1    
   160   81  202 1    
   161   81  203 1    
   162   81  204 1    
   163   82   83 2    
   164   82   84 am   BACKBONE|DICT|INTERRES
   165   84   85 1    
   166   84  205 1    
   167   85   86 1    
   168   85   87 1    
   169   85  206 1    
   170   86  207 1    
   171   86  208 1    
   172   86  209 1    
   173   87   88 2    
   174   87   89 am   BACKBONE|DICT|INTERRES
   175   89   90 1    
   176   89  210 1    
   177   90   91 1    
   178   90   92 1    
   179   90  211 1    
   180   91  212 1    
   181   91  213 1    
   182   91  214 1    
   183   92   93 2    
   184   92   94 am   BACKBONE|DICT|INTERRES
   185   94   95 1    
   186   94  215 1    
   187   95   96 1    
   188   95   97 1    
   189   95  216 1    
   190   96  217 1    
   191   96  218 1    
   192   96  219 1    
   193   97   98 2    
   194   97   99 am   BACKBONE|DICT|INTERRES
   195   99  100 1    
   196   99  220 1    
   197  100  101 1    
   198  100  102 1    
   199  100  221 1    
   200  101  222 1    
   201  101  223 1    
   202  101  224 1    
   203  102  103 2    
   204  102  104 am   BACKBONE|DICT|INTERRES
   205  104  105 1    
   206  104  225 1    
   207  105  106 1    
   208  105  107 1    
   209  105  226 1    
   210  106  227 1    
   211  106  228 1    
   212  106  229 1    
   213  107  108 2    
   214  107  109 am   BACKBONE|DICT|INTERRES
   215  109  110 1    
   216  109  230 1    
   217  110  111 1    
   218  110  112 1    
   219  110  231 1    
   220  111  232 1    
   221  111  233 1    
   222  111  234 1    
   223  112  113 2    
   224  112  114 am   BACKBONE|DICT|INTERRES
   225  114  115 1    
   226  114  235 1    
   227  115  116 1    
   228  115  117 1    
   229  115  236 1    
   230  116  237 1    
   231  116  238 1    
   232  116  239 1    
   233  117  118 2    
   234  117  119 am   BACKBONE|DICT|INTERRES
   235  119  120 1    
   236  119  240 1    
   237  120  121 1    
   238  120  124 1    
   239  120  241 1    
   240  121  122 am   BACKBONE|DICT|INTERRES
   241  121  123 2    
   242  122  242 1    
   243  122  243 1    
   244  124  125 1    
   245  124  244 1    
   246  124  245 1    
   247  125  126 1    
   248  126  246 1    
   249  126  247 1    
@<TRIPOS>SUBSTRUCTURE
     1 UNK         1 GROUP             0       ****    0 ROOT    
