@<TRIPOS>MOLECULE
3R540
247   249    1
SMALL
USER_CHARGES


@<TRIPOS>ATOM
      1 CA          0.7655  -13.2478  -41.8281 C.3       0 UNK        -0.1800 
      2 C          -0.5333  -12.5648  -42.2263 C.2       0 UNK         0.5000 
      3 O          -0.7741  -11.4223  -41.8378 O.2       0 UNK        -0.5000 
      4 N          -1.3692  -13.2640  -43.0018 N.am      1 UNK        -0.5000 
      5 CA         -2.6598  -12.7832  -43.5102 C.3       1 UNK         0.1400 
      6 C6         -3.6407  -13.9533  -43.7682 C.3       23 UNK        -0.0398 
      7 S7         -2.9665  -15.2797  -44.8287 S.3       23 UNK        -0.2404 
      8 C8         -3.8508  -14.9917  -46.3940 C.3       23 UNK        -0.0205 
      9 C9         -3.7904  -16.2362  -47.2622 C.ar      23 UNK        -0.0193 
     10 C10        -2.8886  -16.3322  -48.3263 C.ar      23 UNK        -0.1150 
     11 C11        -2.7893  -17.5156  -49.0650 C.ar      23 UNK        -0.0193 
     12 C12        -3.6079  -18.6010  -48.7390 C.ar      23 UNK        -0.1150 
     13 C13        -4.5187  -18.5118  -47.6823 C.ar      23 UNK        -0.0193 
     14 C14        -4.6192  -17.3193  -46.9629 C.ar      23 UNK        -0.1150 
     15 C15        -5.3610  -19.7179  -47.2914 C.3       23 UNK        -0.0205 
     16 S16        -5.1568  -20.2133  -45.5409 S.3       23 UNK        -0.2404 
     17 C17        -3.3431  -20.2053  -45.3027 C.3       23 UNK        -0.0398 
     18 CA         -2.6459  -21.4236  -45.9490 C.3       11 UNK         0.1400 
     19 N          -1.2740  -21.1150  -46.3672 N.am      11 UNK        -0.5000 
     20 C          -0.4963  -21.9446  -47.0764 C.2       10 UNK         0.5000 
     21 O          -0.8576  -23.0598  -47.4419 O.2       10 UNK        -0.5000 
     22 CA          0.9402  -21.4877  -47.3730 C.3       10 UNK         0.1400 
     23 CB          0.9693  -20.4608  -48.5159 C.3       10 UNK        -0.1800 
     24 N           1.5879  -20.9440  -46.1805 N.am      10 UNK        -0.5000 
     25 C           1.8790  -21.6645  -45.0869 C.2       9 UNK         0.5000 
     26 O           1.7282  -22.8840  -45.0149 O.2       9 UNK        -0.5000 
     27 CA          2.3766  -20.8923  -43.8502 C.3       9 UNK         0.1400 
     28 CB          3.8899  -20.6489  -43.9319 C.3       9 UNK        -0.1800 
     29 N           1.6803  -19.6183  -43.6600 N.am      9 UNK        -0.5000 
     30 C           0.3681  -19.4991  -43.4078 C.2       8 UNK         0.5000 
     31 O          -0.3907  -20.4573  -43.2598 O.2       8 UNK        -0.5000 
     32 CA         -0.2018  -18.0700  -43.3696 C.3       8 UNK         0.1400 
     33 CB          0.0012  -17.4242  -41.9910 C.3       8 UNK        -0.1800 
     34 N           0.3876  -17.2186  -44.4018 N.am      8 UNK        -0.5000 
     35 C           0.1655  -17.3685  -45.7148 C.2       7 UNK         0.5000 
     36 O          -0.5700  -18.2336  -46.1894 O.2       7 UNK        -0.5000 
     37 CA          0.9498  -16.4294  -46.6478 C.3       7 UNK         0.1400 
     38 CB          0.3434  -15.0198  -46.6439 C.3       7 UNK        -0.1800 
     39 N           2.3613  -16.3353  -46.2751 N.am      7 UNK        -0.5000 
     40 C           3.2357  -17.3501  -46.3496 C.2       6 UNK         0.5000 
     41 O           2.9507  -18.4616  -46.7903 O.2       6 UNK        -0.5000 
     42 CA          4.6562  -17.1032  -45.8029 C.3       6 UNK         0.1400 
     43 CB          5.5841  -16.6192  -46.9269 C.3       6 UNK        -0.1800 
     44 N           4.7017  -16.1416  -44.7021 N.am      6 UNK        -0.5000 
     45 C           4.0253  -16.2343  -43.5482 C.2       5 UNK         0.5000 
     46 O           3.3350  -17.2056  -43.2376 O.2       5 UNK        -0.5000 
     47 CA          4.0829  -15.0117  -42.6107 C.3       5 UNK         0.1400 
     48 CB          5.0669  -15.2671  -41.4600 C.3       5 UNK        -0.1800 
     49 N           4.4456  -13.7563  -43.2821 N.am      5 UNK        -0.5000 
     50 C           3.7697  -13.1715  -44.2820 C.2       4 UNK         0.5000 
     51 O           2.7191  -13.6128  -44.7572 O.2       4 UNK        -0.5000 
     52 CA          4.4273  -11.9262  -44.8897 C.3       4 UNK         0.1400 
     53 CB          5.6793  -12.3160  -45.7007 C.3       4 UNK        -0.1800 
     54 N           3.4803  -11.2309  -45.7561 N.am      4 UNK        -0.5000 
     55 C           3.5703   -9.9419  -46.1047 C.2       3 UNK         0.5000 
     56 O           4.4590   -9.1908  -45.6991 O.2       3 UNK        -0.5000 
     57 CA          2.5150   -9.3846  -47.0812 C.3       3 UNK         0.1400 
     58 CB          3.0925   -9.3161  -48.5039 C.3       3 UNK        -0.1800 
     59 N           1.2532  -10.1280  -47.1244 N.am      3 UNK        -0.5000 
     60 C           0.3568  -10.1825  -46.1313 C.2       2 UNK         0.5000 
     61 O           0.5453   -9.6850  -45.0197 O.2       2 UNK        -0.5000 
     62 CA         -0.9838  -10.8791  -46.4259 C.3       2 UNK         0.1400 
     63 CB         -1.0257  -11.6753  -47.7465 C.3       2 UNK        -0.1800 
     64 N          -1.3168  -11.7544  -45.3077 N.am      2 UNK        -0.5000 
     65 C          -2.5263  -11.8635  -44.7455 C.2       1 UNK         0.5000 
     66 O          -3.5239  -11.2709  -45.1604 O.2       1 UNK        -0.5000 
     67 C          -2.7426  -22.6849  -45.0590 C.2       11 UNK         0.5000 
     68 O          -3.6856  -23.4631  -45.2050 O.2       11 UNK        -0.5000 
     69 N          -1.7382  -22.9072  -44.2004 N.am      12 UNK        -0.5000 
     70 CA         -1.5992  -24.1188  -43.3893 C.3       12 UNK         0.1400 
     71 CB         -0.4645  -23.9227  -42.3730 C.3       12 UNK        -0.1800 
     72 C          -1.3770  -25.4007  -44.2219 C.2       12 UNK         0.5000 
     73 O          -1.7593  -26.4826  -43.7740 O.2       12 UNK        -0.5000 
     74 N          -0.8040  -25.2681  -45.4262 N.am      13 UNK        -0.5000 
     75 CA         -0.5996  -26.3486  -46.3890 C.3       13 UNK         0.1400 
     76 CB          0.6771  -26.0677  -47.2024 C.3       13 UNK        -0.1800 
     77 C          -1.8497  -26.5236  -47.2743 C.2       13 UNK         0.5000 
     78 O          -1.8093  -26.2521  -48.4764 O.2       13 UNK        -0.5000 
     79 N          -2.9500  -26.9644  -46.6469 N.am      14 UNK        -0.5000 
     80 CA         -4.2433  -27.3019  -47.2560 C.3       14 UNK         0.1400 
     81 CB         -4.1132  -28.5871  -48.1005 C.3       14 UNK        -0.1800 
     82 C          -4.8686  -26.1330  -48.0456 C.2       14 UNK         0.5000 
     83 O          -5.2858  -26.3104  -49.1930 O.2       14 UNK        -0.5000 
     84 N          -4.8864  -24.9454  -47.4227 N.am      15 UNK        -0.5000 
     85 CA         -5.3656  -23.6764  -47.9781 C.3       15 UNK         0.1400 
     86 CB         -6.8902  -23.7187  -48.2169 C.3       15 UNK        -0.1800 
     87 C          -4.5699  -23.2486  -49.2268 C.2       15 UNK         0.5000 
     88 O          -5.1697  -22.7897  -50.1955 O.2       15 UNK        -0.5000 
     89 N          -3.2421  -23.4367  -49.1894 N.am      16 UNK        -0.5000 
     90 CA         -2.2898  -23.2455  -50.2897 C.3       16 UNK         0.1400 
     91 CB         -2.1811  -21.7573  -50.6823 C.3       16 UNK        -0.1800 
     92 C          -2.5819  -24.1836  -51.4760 C.2       16 UNK         0.5000 
     93 O          -2.5688  -23.7513  -52.6274 O.2       16 UNK        -0.5000 
     94 N          -2.8476  -25.4581  -51.1516 N.am      17 UNK        -0.5000 
     95 CA         -3.2620  -26.5359  -52.0536 C.3       17 UNK         0.1400 
     96 CB         -2.0980  -26.9468  -52.9793 C.3       17 UNK        -0.1800 
     97 C          -4.5569  -26.1859  -52.8181 C.2       17 UNK         0.5000 
     98 O          -4.5834  -26.2337  -54.0493 O.2       17 UNK        -0.5000 
     99 N          -5.6008  -25.8324  -52.0532 N.am      18 UNK        -0.5000 
    100 CA        -6.9239  -25.3893  -52.5050 C.3       18 UNK         0.1400 
    101 CB        -7.6713  -26.5267  -53.2325 C.3       18 UNK        -0.1800 
    102 C         -6.8547  -24.0831  -53.3245 C.2       18 UNK         0.5000 
    103 O         -7.2067  -24.0584  -54.5063 O.2       18 UNK        -0.5000 
    104 N         -6.3942  -23.0187  -52.6573 N.am      19 UNK        -0.5000 
    105 CA        -6.1806  -21.6497  -53.1236 C.3       19 UNK         0.1400 
    106 CB        -7.4661  -21.0088  -53.6858 C.3       19 UNK        -0.1800 
    107 C         -4.9904  -21.5339  -54.0854 C.2       19 UNK         0.5000 
    108 O         -3.9834  -20.9302  -53.7176 O.2       19 UNK        -0.5000 
    109 N         -5.1425  -22.0750  -55.3041 N.am      20 UNK        -0.5000 
    110 CA        -4.1530  -22.1353  -56.3923 C.3       20 UNK         0.1400 
    111 CB        -3.1009  -23.2151  -56.0709 C.3       20 UNK        -0.1800 
    112 C         -3.4995  -20.7769  -56.7472 C.2       20 UNK         0.5000 
    113 O         -2.3387  -20.7413  -57.1619 O.2       20 UNK        -0.5000 
    114 N         -4.2364  -19.6771  -56.5187 N.am      21 UNK        -0.5000 
    115 CA        -3.7949  -18.2763  -56.5888 C.3       21 UNK         0.1400 
    116 CB        -3.5681  -17.8612  -58.0573 C.3       21 UNK        -0.1800 
    117 C         -2.5767  -17.9575  -55.6854 C.2       21 UNK         0.5000 
    118 O         -1.8128  -17.0406  -55.9925 O.2       21 UNK        -0.5000 
    119 N         -2.4043  -18.7353  -54.6060 N.am      22 UNK        -0.5000 
    120 CA        -1.2339  -18.7613  -53.7124 C.3       22 UNK         0.1400 
    121 C          0.0845  -19.2452  -54.3957 C.2       22 UNK         0.5000 
    122 N          0.0382  -19.9049  -55.5484 N.am      22 UNK        -0.7600 
    123 O          1.1727  -19.0515  -53.8606 O.2       22 UNK        -0.5000 
    124 C124       -1.0522  -17.4525  -52.8910 C.3       23 UNK        -0.0398 
    125 S125       -2.4683  -17.1186  -51.7863 S.3       23 UNK        -0.2404 
    126 C126       -1.7712  -17.6367  -50.1876 C.3       23 UNK        -0.0205 
    127 H127        1.6166  -12.6242  -42.1007 H         1 UNK         0.0600 
    128 H128        0.8752  -14.2113  -42.3255 H         1 UNK         0.0600 
    129 H129        0.7911  -13.4128  -40.7511 H         1 UNK         0.0600 
    130 H130       -1.1269  -14.2023  -43.2871 H         1 UNK         0.3000 
    131 H131       -3.1125  -12.1635  -42.7330 H         1 UNK         0.0600 
    132 H132       -3.8976  -14.4118  -42.8125 H         1 UNK         0.0800 
    133 H133       -4.5878  -13.5897  -44.1702 H         1 UNK         0.0800 
    134 H134       -3.4147  -14.1339  -46.9080 H         1 UNK         0.0800 
    135 H135       -4.8947  -14.7438  -46.1971 H         1 UNK         0.0800 
    136 H136       -2.2506  -15.4953  -48.5704 H         1 UNK         0.1150 
    137 H137       -3.5262  -19.5195  -49.3012 H         1 UNK         0.1150 
    138 H138       -5.3087  -17.2515  -46.1331 H         1 UNK         0.1150 
    139 H139       -6.4118  -19.4870  -47.4706 H         1 UNK         0.0800 
    140 H140       -5.1251  -20.5681  -47.9308 H         1 UNK         0.0800 
    141 H141       -3.1284  -20.1516  -44.2338 H         1 UNK         0.0800 
    142 H142       -2.9472  -19.2760  -45.7103 H         1 UNK         0.0800 
    143 H143       -3.1706  -21.6541  -46.8765 H         1 UNK         0.0600 
    144 H144       -0.9198  -20.1923  -46.1321 H         1 UNK         0.3000 
    145 H145        1.5086  -22.3632  -47.6937 H         1 UNK         0.0600 
    146 H146        1.9921  -20.1747  -48.7609 H         1 UNK         0.0600 
    147 H147        0.5245  -20.8738  -49.4217 H         1 UNK         0.0600 
    148 H148        0.4204  -19.5535  -48.2646 H         1 UNK         0.0600 
    149 H149        1.8126  -19.9541  -46.1969 H         1 UNK         0.3000 
    150 H150        2.1790  -21.5090  -42.9708 H         1 UNK         0.0600 
    151 H151        4.4333  -21.5941  -43.9555 H         1 UNK         0.0600 
    152 H152        4.2500  -20.0857  -43.0707 H         1 UNK         0.0600 
    153 H153        4.1578  -20.0978  -44.8322 H         1 UNK         0.0600 
    154 H154        2.2414  -18.7736  -43.7151 H         1 UNK         0.3000 
    155 H155       -1.2759  -18.1355  -43.5573 H         1 UNK         0.0600 
    156 H156       -0.4420  -18.0379  -41.2058 H         1 UNK         0.0600 
    157 H157       -0.4733  -16.4441  -41.9421 H         1 UNK         0.0600 
    158 H158        1.0577  -17.2993  -41.7519 H         1 UNK         0.0600 
    159 H159        1.0696  -16.5392  -44.0998 H         1 UNK         0.3000 
    160 H160        0.8870  -16.8304  -47.6617 H         1 UNK         0.0600 
    161 H161        0.3676  -14.5681  -45.6519 H         1 UNK         0.0600 
    162 H162       -0.6966  -15.0362  -46.9643 H         1 UNK         0.0600 
    163 H163        0.8883  -14.3660  -47.3237 H         1 UNK         0.0600 
    164 H164        2.6636  -15.4552  -45.8739 H         1 UNK         0.3000 
    165 H165        5.0410  -18.0519  -45.4271 H         1 UNK         0.0600 
    166 H166        6.6112  -16.5182  -46.5758 H         1 UNK         0.0600 
    167 H167        5.5941  -17.3272  -47.7568 H         1 UNK         0.0600 
    168 H168        5.2671  -15.6534  -47.3228 H         1 UNK         0.0600 
    169 H169        5.2460  -15.3073  -44.8595 H         1 UNK         0.3000 
    170 H170        3.0884  -14.8894  -42.1826 H         1 UNK         0.0600 
    171 H171        4.8110  -16.1810  -40.9220 H         1 UNK         0.0600 
    172 H172        6.0903  -15.3747  -41.8218 H         1 UNK         0.0600 
    173 H173        5.0490  -14.4515  -40.7368 H         1 UNK         0.0600 
    174 H174        5.3014  -13.3235  -42.9647 H         1 UNK         0.3000 
    175 H175        4.7127  -11.2670  -44.0671 H         1 UNK         0.0600 
    176 H176        5.4277  -12.9759  -46.5321 H         1 UNK         0.0600 
    177 H177        6.1753  -11.4373  -46.1132 H         1 UNK         0.0600 
    178 H178        6.4131  -12.8319  -45.0806 H         1 UNK         0.0600 
    179 H179        2.6997  -11.7903  -46.0738 H         1 UNK         0.3000 
    180 H180        2.2889   -8.3657  -46.7598 H         1 UNK         0.0600 
    181 H181        3.3170  -10.3095  -48.8944 H         1 UNK         0.0600 
    182 H182        4.0181   -8.7391  -48.5242 H         1 UNK         0.0600 
    183 H183        2.3969   -8.8332  -49.1905 H         1 UNK         0.0600 
    184 H184        1.0248  -10.5696  -48.0031 H         1 UNK         0.3000 
    185 H185       -1.7208  -10.0765  -46.4954 H         1 UNK         0.0600 
    186 H186       -0.9066  -11.0181  -48.6085 H         1 UNK         0.0600 
    187 H187       -0.2435  -12.4309  -47.7914 H         1 UNK         0.0600 
    188 H188       -1.9827  -12.1833  -47.8665 H         1 UNK         0.0600 
    189 H189       -0.5397  -12.2217  -44.8632 H         1 UNK         0.3000 
    190 H190       -1.0252  -22.1933  -44.0882 H         1 UNK         0.3000 
    191 H191       -2.5293  -24.2509  -42.8329 H         1 UNK         0.0600 
    192 H192       -0.6398  -23.0460  -41.7491 H         1 UNK         0.0600 
    193 H193       -0.3830  -24.7841  -41.7090 H         1 UNK         0.0600 
    194 H194        0.4999  -23.7964  -42.8640 H         1 UNK         0.0600 
    195 H195       -0.5810  -24.3377  -45.7601 H         1 UNK         0.3000 
    196 H196       -0.4418  -27.2879  -45.8550 H         1 UNK         0.0600 
    197 H197        0.8877  -26.8888  -47.8886 H         1 UNK         0.0600 
    198 H198        1.5431  -25.9581  -46.5495 H         1 UNK         0.0600 
    199 H199        0.5939  -25.1597  -47.7988 H         1 UNK         0.0600 
    200 H200       -2.8841  -27.1069  -45.6461 H         1 UNK         0.3000 
    201 H201       -4.9281  -27.5150  -46.4341 H         1 UNK         0.0600 
    202 H202       -3.7097  -29.4084  -47.5084 H         1 UNK         0.0600 
    203 H203       -3.4596  -28.4424  -48.9613 H         1 UNK         0.0600 
    204 H204       -5.0849  -28.9078  -48.4780 H         1 UNK         0.0600 
    205 H205       -4.4781  -24.8709  -46.4965 H         1 UNK         0.3000 
    206 H206       -5.1866  -22.9135  -47.2227 H         1 UNK         0.0600 
    207 H207       -7.4213  -24.0188  -47.3137 H         1 UNK         0.0600 
    208 H208       -7.2668  -22.7353  -48.5008 H         1 UNK         0.0600 
    209 H209       -7.1612  -24.4132  -49.0123 H         1 UNK         0.0600 
    210 H210       -2.8313  -23.8328  -48.3534 H         1 UNK         0.3000 
    211 H211       -1.3139  -23.5543  -49.9149 H         1 UNK         0.0600 
    212 H212       -3.1109  -21.3759  -51.1044 H         1 UNK         0.0600 
    213 H213       -1.4004  -21.6071  -51.4284 H         1 UNK         0.0600 
    214 H214       -1.9256  -21.1460  -49.8180 H         1 UNK         0.0600 
    215 H215       -2.7815  -25.7128  -50.1705 H         1 UNK         0.3000 
    216 H216       -3.4978  -27.3924  -51.4204 H         1 UNK         0.0600 
    217 H217       -2.3683  -27.8143  -53.5823 H         1 UNK         0.0600 
    218 H218       -1.2130  -27.2151  -52.4025 H         1 UNK         0.0600 
    219 H219       -1.8212  -26.1457  -53.6655 H         1 UNK         0.0600 
    220 H220       -5.4680  -25.8524  -51.0442 H         1 UNK         0.3000 
    221 H221       -7.4903  -25.1581  -51.6015 H         1 UNK         0.0600 
    222 H222       -7.1837  -26.8077  -54.1662 H         1 UNK         0.0600 
    223 H223       -7.7371  -27.4171  -52.6074 H         1 UNK         0.0600 
    224 H224       -8.6905  -26.2252  -53.4770 H         1 UNK         0.0600 
    225 H225       -6.0516  -23.1617  -51.7078 H         1 UNK         0.3000 
    226 H226       -5.9107  -21.0816  -52.2318 H         1 UNK         0.0600 
    227 H227       -8.2695  -21.0353  -52.9496 H         1 UNK         0.0600 
    228 H228       -7.2951  -19.9623  -53.9405 H         1 UNK         0.0600 
    229 H229       -7.8243  -21.5064  -54.5868 H         1 UNK         0.0600 
    230 H230       -6.0021  -22.5895  -55.4626 H         1 UNK         0.3000 
    231 H231       -4.6960  -22.4535  -57.2829 H         1 UNK         0.0600 
    232 H232       -2.4700  -22.9191  -55.2320 H         1 UNK         0.0600 
    233 H233       -2.4481  -23.3987  -56.9249 H         1 UNK         0.0600 
    234 H234       -3.5726  -24.1636  -55.8130 H         1 UNK         0.0600 
    235 H235       -5.1712  -19.8189  -56.1637 H         1 UNK         0.3000 
    236 H236       -4.6194  -17.6774  -56.1998 H         1 UNK         0.0600 
    237 H237       -4.4421  -18.0833  -58.6694 H         1 UNK         0.0600 
    238 H238       -3.3818  -16.7897  -58.1388 H         1 UNK         0.0600 
    239 H239       -2.7123  -18.3762  -58.4948 H         1 UNK         0.0600 
    240 H240       -3.0792  -19.4754  -54.4251 H         1 UNK         0.3000 
    241 H241       -1.4532  -19.5524  -52.9947 H         1 UNK         0.0600 
    242 H242        0.8979  -20.2190  -55.9691 H         1 UNK         0.3800 
    243 H243       -0.8432  -20.0973  -56.0138 H         1 UNK         0.3800 
    244 H244       -0.1475  -17.4979  -52.2831 H         1 UNK         0.0800 
    245 H245       -0.9168  -16.5970  -53.5530 H         1 UNK         0.0800 
    246 H246       -1.4206  -18.6672  -50.2616 H         1 UNK         0.0800 
    247 H247       -0.8942  -17.0294  -49.9579 H         1 UNK         0.0800 
@<TRIPOS>BOND
     1    1    2 1    
     2    1  127 1    
     3    1  128 1    
     4    1  129 1    
     5    2    3 2    
     6    2    4 am   BACKBONE|DICT|INTERRES
     7    4    5 1    
     8    4  130 1    
     9    5    6 1    
    10    5   65 1    
    11    5  131 1    
    12    6    7 1    
    13    6  132 1    
    14    6  133 1    
    15    7    8 1    
    16    8    9 1    
    17    8  134 1    
    18    8  135 1    
    19    9   10 ar   
    20    9   14 ar   
    21   10   11 ar   
    22   10  136 1    
    23   11   12 ar   
    24   11  126 1    
    25   12   13 ar   
    26   12  137 1    
    27   13   14 ar   
    28   13   15 1    
    29   14  138 1    
    30   15   16 1    
    31   15  139 1    
    32   15  140 1    
    33   16   17 1    
    34   17   18 1    
    35   17  141 1    
    36   17  142 1    
    37   18   19 1    
    38   18   67 1    
    39   18  143 1    
    40   19   20 am   BACKBONE|DICT|INTERRES
    41   19  144 1    
    42   20   21 2    
    43   20   22 1    
    44   22   23 1    
    45   22   24 1    
    46   22  145 1    
    47   23  146 1    
    48   23  147 1    
    49   23  148 1    
    50   24   25 am   BACKBONE|DICT|INTERRES
    51   24  149 1    
    52   25   26 2    
    53   25   27 1    
    54   27   28 1    
    55   27   29 1    
    56   27  150 1    
    57   28  151 1    
    58   28  152 1    
    59   28  153 1    
    60   29   30 am   BACKBONE|DICT|INTERRES
    61   29  154 1    
    62   30   31 2    
    63   30   32 1    
    64   32   33 1    
    65   32   34 1    
    66   32  155 1    
    67   33  156 1    
    68   33  157 1    
    69   33  158 1    
    70   34   35 am   BACKBONE|DICT|INTERRES
    71   34  159 1    
    72   35   36 2    
    73   35   37 1    
    74   37   38 1    
    75   37   39 1    
    76   37  160 1    
    77   38  161 1    
    78   38  162 1    
    79   38  163 1    
    80   39   40 am   BACKBONE|DICT|INTERRES
    81   39  164 1    
    82   40   41 2    
    83   40   42 1    
    84   42   43 1    
    85   42   44 1    
    86   42  165 1    
    87   43  166 1    
    88   43  167 1    
    89   43  168 1    
    90   44   45 am   BACKBONE|DICT|INTERRES
    91   44  169 1    
    92   45   46 2    
    93   45   47 1    
    94   47   48 1    
    95   47   49 1    
    96   47  170 1    
    97   48  171 1    
    98   48  172 1    
    99   48  173 1    
   100   49   50 am   BACKBONE|DICT|INTERRES
   101   49  174 1    
   102   50   51 2    
   103   50   52 1    
   104   52   53 1    
   105   52   54 1    
   106   52  175 1    
   107   53  176 1    
   108   53  177 1    
   109   53  178 1    
   110   54   55 am   BACKBONE|DICT|INTERRES
   111   54  179 1    
   112   55   56 2    
   113   55   57 1    
   114   57   58 1    
   115   57   59 1    
   116   57  180 1    
   117   58  181 1    
   118   58  182 1    
   119   58  183 1    
   120   59   60 am   BACKBONE|DICT|INTERRES
   121   59  184 1    
   122   60   61 2    
   123   60   62 1    
   124   62   63 1    
   125   62   64 1    
   126   62  185 1    
   127   63  186 1    
   128   63  187 1    
   129   63  188 1    
   130   64   65 am   BACKBONE|DICT|INTERRES
   131   64  189 1    
   132   65   66 2    
   133   67   68 2    
   134   67   69 am   BACKBONE|DICT|INTERRES
   135   69   70 1    
   136   69  190 1    
   137   70   71 1    
   138   70   72 1    
   139   70  191 1    
   140   71  192 1    
   141   71  193 1    
   142   71  194 1    
   143   72   73 2    
   144   72   74 am   BACKBONE|DICT|INTERRES
   145   74   75 1    
   146   74  195 1    
   147   75   76 1    
   148   75   77 1    
   149   75  196 1    
   150   76  197 1    
   151   76  198 1    
   152   76  199 1    
   153   77   78 2    
   154   77   79 am   BACKBONE|DICT|INTERRES
   155   79   80 1    
   156   79  200 1    
   157   80   81 1    
   158   80   82 1    
   159   80  201 1    
   160   81  202 1    
   161   81  203 1    
   162   81  204 1    
   163   82   83 2    
   164   82   84 am   BACKBONE|DICT|INTERRES
   165   84   85 1    
   166   84  205 1    
   167   85   86 1    
   168   85   87 1    
   169   85  206 1    
   170   86  207 1    
   171   86  208 1    
   172   86  209 1    
   173   87   88 2    
   174   87   89 am   BACKBONE|DICT|INTERRES
   175   89   90 1    
   176   89  210 1    
   177   90   91 1    
   178   90   92 1    
   179   90  211 1    
   180   91  212 1    
   181   91  213 1    
   182   91  214 1    
   183   92   93 2    
   184   92   94 am   BACKBONE|DICT|INTERRES
   185   94   95 1    
   186   94  215 1    
   187   95   96 1    
   188   95   97 1    
   189   95  216 1    
   190   96  217 1    
   191   96  218 1    
   192   96  219 1    
   193   97   98 2    
   194   97   99 am   BACKBONE|DICT|INTERRES
   195   99  100 1    
   196   99  220 1    
   197  100  101 1    
   198  100  102 1    
   199  100  221 1    
   200  101  222 1    
   201  101  223 1    
   202  101  224 1    
   203  102  103 2    
   204  102  104 am   BACKBONE|DICT|INTERRES
   205  104  105 1    
   206  104  225 1    
   207  105  106 1    
   208  105  107 1    
   209  105  226 1    
   210  106  227 1    
   211  106  228 1    
   212  106  229 1    
   213  107  108 2    
   214  107  109 am   BACKBONE|DICT|INTERRES
   215  109  110 1    
   216  109  230 1    
   217  110  111 1    
   218  110  112 1    
   219  110  231 1    
   220  111  232 1    
   221  111  233 1    
   222  111  234 1    
   223  112  113 2    
   224  112  114 am   BACKBONE|DICT|INTERRES
   225  114  115 1    
   226  114  235 1    
   227  115  116 1    
   228  115  117 1    
   229  115  236 1    
   230  116  237 1    
   231  116  238 1    
   232  116  239 1    
   233  117  118 2    
   234  117  119 am   BACKBONE|DICT|INTERRES
   235  119  120 1    
   236  119  240 1    
   237  120  121 1    
   238  120  124 1    
   239  120  241 1    
   240  121  122 am   BACKBONE|DICT|INTERRES
   241  121  123 2    
   242  122  242 1    
   243  122  243 1    
   244  124  125 1    
   245  124  244 1    
   246  124  245 1    
   247  125  126 1    
   248  126  246 1    
   249  126  247 1    
@<TRIPOS>SUBSTRUCTURE
     1 UNK         1 GROUP             0       ****    0 ROOT    
