@<TRIPOS>MOLECULE
3R540
247   249    1
SMALL
USER_CHARGES


@<TRIPOS>ATOM
      1 CA          0.8441  -15.9211  -48.6153 C.3       0 UNK        -0.1800 
      2 C          -0.1402  -14.8537  -48.1548 C.2       0 UNK         0.5000 
      3 O          -0.8304  -15.0439  -47.1560 O.2       0 UNK        -0.5000 
      4 N          -0.2102  -13.7303  -48.8801 N.am      1 UNK        -0.5000 
      5 CA         -1.1843  -12.6549  -48.6483 C.3       1 UNK         0.1400 
      6 C6         -1.3058  -11.6952  -49.8606 C.3       23 UNK        -0.0398 
      7 S7         -1.5008  -12.4831  -51.4961 S.3       23 UNK        -0.2404 
      8 C8         -2.9807  -13.5334  -51.2885 C.3       23 UNK        -0.0205 
      9 C9         -2.6666  -15.0021  -51.0073 C.ar      23 UNK        -0.0193 
     10 C10        -1.6131  -15.6547  -51.6603 C.ar      23 UNK        -0.1150 
     11 C11        -1.3760  -17.0154  -51.4532 C.ar      23 UNK        -0.0193 
     12 C12        -2.2009  -17.7303  -50.5843 C.ar      23 UNK        -0.1150 
     13 C13        -3.2686  -17.1025  -49.9393 C.ar      23 UNK        -0.0193 
     14 C14        -3.4907  -15.7370  -50.1473 C.ar      23 UNK        -0.1150 
     15 C15        -4.2238  -17.9214  -49.0833 C.3       23 UNK        -0.0205 
     16 S16        -4.0557  -17.5951  -47.2996 S.3       23 UNK        -0.2404 
     17 C17        -2.3527  -18.1476  -46.9249 C.3       23 UNK        -0.0398 
     18 CA         -1.9717  -19.6239  -47.2169 C.3       11 UNK         0.1400 
     19 N          -0.6543  -19.9301  -46.6594 N.am      11 UNK        -0.5000 
     20 C           0.0986  -20.9915  -46.9738 C.2       10 UNK         0.5000 
     21 O          -0.1989  -21.8140  -47.8382 O.2       10 UNK        -0.5000 
     22 CA          1.3990  -21.1757  -46.1679 C.3       10 UNK         0.1400 
     23 CB          2.5457  -20.3697  -46.7967 C.3       10 UNK        -0.1800 
     24 N           1.2591  -20.8107  -44.7552 N.am      10 UNK        -0.5000 
     25 C           0.4485  -21.4374  -43.8898 C.2       9 UNK         0.5000 
     26 O          -0.2530  -22.4019  -44.1884 O.2       9 UNK        -0.5000 
     27 CA          0.3639  -20.8669  -42.4642 C.3       9 UNK         0.1400 
     28 CB          1.5935  -21.2723  -41.6384 C.3       9 UNK        -0.1800 
     29 N           0.2050  -19.4131  -42.4493 N.am      9 UNK        -0.5000 
     30 C          -0.8470  -18.7592  -42.9640 C.2       8 UNK         0.5000 
     31 O          -1.8214  -19.3198  -43.4652 O.2       8 UNK        -0.5000 
     32 CA         -0.7756  -17.2212  -42.9721 C.3       8 UNK         0.1400 
     33 CB         -1.1278  -16.6454  -41.5927 C.3       8 UNK        -0.1800 
     34 N           0.5327  -16.7214  -43.3907 N.am      8 UNK        -0.5000 
     35 C           1.1012  -16.9633  -44.5801 C.2       7 UNK         0.5000 
     36 O           0.5743  -17.6247  -45.4736 O.2       7 UNK        -0.5000 
     37 CA          2.5352  -16.4447  -44.7707 C.3       7 UNK         0.1400 
     38 CB          2.5547  -14.9336  -45.0430 C.3       7 UNK        -0.1800 
     39 N           3.3749  -16.7471  -43.6125 N.am      7 UNK        -0.5000 
     40 C           3.7579  -17.9810  -43.2557 C.2       6 UNK         0.5000 
     41 O           3.4738  -18.9976  -43.8891 O.2       6 UNK        -0.5000 
     42 CA          4.5645  -18.0991  -41.9498 C.3       6 UNK         0.1400 
     43 CB          6.0515  -17.8093  -42.2024 C.3       6 UNK        -0.1800 
     44 N           4.0674  -17.2092  -40.8988 N.am      6 UNK        -0.5000 
     45 C           2.8768  -17.3448  -40.2983 C.2       5 UNK         0.5000 
     46 O           2.0802  -18.2463  -40.5543 O.2       5 UNK        -0.5000 
     47 CA          2.4920  -16.2652  -39.2706 C.3       5 UNK         0.1400 
     48 CB          3.0926  -16.5898  -37.8947 C.3       5 UNK        -0.1800 
     49 N           2.8805  -14.9074  -39.6649 N.am      5 UNK        -0.5000 
     50 C           2.4545  -14.2859  -40.7722 C.2       4 UNK         0.5000 
     51 O           1.7584  -14.8255  -41.6339 O.2       4 UNK        -0.5000 
     52 CA          2.9179  -12.8306  -40.9683 C.3       4 UNK         0.1400 
     53 CB          4.2105  -12.7941  -41.7985 C.3       4 UNK        -0.1800 
     54 N           1.9059  -12.0126  -41.6382 N.am      4 UNK        -0.5000 
     55 C           0.6785  -11.7500  -41.1658 C.2       3 UNK         0.5000 
     56 O           0.2869  -12.1104  -40.0544 O.2       3 UNK        -0.5000 
     57 CA         -0.2693  -10.9250  -42.0630 C.3       3 UNK         0.1400 
     58 CB         -0.5826   -9.5667  -41.4137 C.3       3 UNK        -0.1800 
     59 N           0.2447  -10.6844  -43.4151 N.am      3 UNK        -0.5000 
     60 C           0.2427  -11.5806  -44.4096 C.2       2 UNK         0.5000 
     61 O          -0.1653  -12.7367  -44.2892 O.2       2 UNK        -0.5000 
     62 CA          0.8394  -11.0932  -45.7446 C.3       2 UNK         0.1400 
     63 CB          2.3751  -11.1587  -45.7099 C.3       2 UNK        -0.1800 
     64 N           0.3604  -11.8496  -46.9016 N.am      2 UNK        -0.5000 
     65 C          -0.8941  -11.8277  -47.3743 C.2       1 UNK         0.5000 
     66 O          -1.7972  -11.1523  -46.8772 O.2       1 UNK        -0.5000 
     67 C          -3.0362  -20.6515  -46.7714 C.2       11 UNK         0.5000 
     68 O          -3.8854  -21.0166  -47.5811 O.2       11 UNK        -0.5000 
     69 N          -2.9776  -21.1094  -45.5134 N.am      12 UNK        -0.5000 
     70 CA         -3.8963  -22.1063  -44.9624 C.3       12 UNK         0.1400 
     71 CB         -3.8522  -22.0414  -43.4278 C.3       12 UNK        -0.1800 
     72 C          -3.6034  -23.5371  -45.4542 C.2       12 UNK         0.5000 
     73 O          -4.5375  -24.2710  -45.7829 O.2       12 UNK        -0.5000 
     74 N          -2.3194  -23.9154  -45.4700 N.am      13 UNK        -0.5000 
     75 CA         -1.8295  -25.2431  -45.8429 C.3       13 UNK         0.1400 
     76 CB         -0.3464  -25.3429  -45.4479 C.3       13 UNK        -0.1800 
     77 C          -2.0051  -25.5723  -47.3379 C.2       13 UNK         0.5000 
     78 O          -2.2526  -24.6802  -48.1504 O.2       13 UNK        -0.5000 
     79 N          -1.8335  -26.8613  -47.6688 N.am      14 UNK        -0.5000 
     80 CA         -1.7868  -27.4278  -49.0230 C.3       14 UNK         0.1400 
     81 CB         -0.4985  -26.9753  -49.7432 C.3       14 UNK        -0.1800 
     82 C          -3.0594  -27.1415  -49.8446 C.2       14 UNK         0.5000 
     83 O          -2.9690  -26.6537  -50.9714 O.2       14 UNK        -0.5000 
     84 N          -4.2259  -27.4241  -49.2449 N.am      15 UNK        -0.5000 
     85 CA         -5.5681  -27.1851  -49.7935 C.3       15 UNK         0.1400 
     86 CB         -5.8395  -28.1050  -51.0031 C.3       15 UNK        -0.1800 
     87 C          -5.8066  -25.6928  -50.1047 C.2       15 UNK         0.5000 
     88 O          -6.2261  -25.3422  -51.2097 O.2       15 UNK        -0.5000 
     89 N          -5.4862  -24.8442  -49.1180 N.am      16 UNK        -0.5000 
     90 CA         -5.5270  -23.3814  -49.1635 C.3       16 UNK         0.1400 
     91 CB         -6.9825  -22.8754  -49.2465 C.3       16 UNK        -0.1800 
     92 C          -4.6228  -22.8084  -50.2748 C.2       16 UNK         0.5000 
     93 O          -5.0912  -22.0421  -51.1180 O.2       16 UNK        -0.5000 
     94 N          -3.3542  -23.2433  -50.2851 N.am      17 UNK        -0.5000 
     95 CA         -2.3200  -22.9407  -51.2793 C.3       17 UNK         0.1400 
     96 CB         -1.8948  -21.4639  -51.1736 C.3       17 UNK        -0.1800 
     97 C          -2.7438  -23.3453  -52.7068 C.2       17 UNK         0.5000 
     98 O          -2.6006  -22.5577  -53.6455 O.2       17 UNK        -0.5000 
     99 N          -3.2977  -24.5611  -52.8240 N.am      18 UNK        -0.5000 
    100 CA        -3.9103  -25.1570  -54.0128 C.3       18 UNK         0.1400 
    101 CB        -2.8260  -25.5271  -55.0447 C.3       18 UNK        -0.1800 
    102 C         -5.0405  -24.2771  -54.5865 C.2       18 UNK         0.5000 
    103 O         -5.0338  -23.9560  -55.7750 O.2       18 UNK        -0.5000 
    104 N         -5.9681  -23.8742  -53.7051 N.am      19 UNK        -0.5000 
    105 CA        -7.0669  -22.9308  -53.9404 C.3       19 UNK         0.1400 
    106 CB        -8.1239  -23.5480  -54.8795 C.3       19 UNK        -0.1800 
    107 C         -6.5652  -21.5465  -54.4096 C.2       19 UNK         0.5000 
    108 O         -7.0734  -20.9956  -55.3883 O.2       19 UNK        -0.5000 
    109 N         -5.5579  -21.0269  -53.6943 N.am      20 UNK        -0.5000 
    110 CA        -4.8484  -19.7638  -53.9167 C.3       20 UNK         0.1400 
    111 CB        -5.7682  -18.5626  -53.6179 C.3       20 UNK        -0.1800 
    112 C         -4.1473  -19.6680  -55.2901 C.2       20 UNK         0.5000 
    113 O         -4.0310  -18.5741  -55.8462 O.2       20 UNK        -0.5000 
    114 N         -3.6722  -20.8090  -55.8080 N.am      21 UNK        -0.5000 
    115 CA        -2.7976  -20.8758  -56.9801 C.3       21 UNK         0.1400 
    116 CB        -2.9238  -22.2536  -57.6436 C.3       21 UNK        -0.1800 
    117 C         -1.3333  -20.5838  -56.6032 C.2       21 UNK         0.5000 
    118 O         -0.5969  -20.0343  -57.4233 O.2       21 UNK        -0.5000 
    119 N         -0.9535  -20.9316  -55.3648 N.am      22 UNK        -0.5000 
    120 CA         0.3301  -20.6095  -54.7147 C.3       22 UNK         0.1400 
    121 C          1.5679  -21.3635  -55.2890 C.2       22 UNK         0.5000 
    122 N          1.3934  -22.4191  -56.0746 N.am      22 UNK        -0.7600 
    123 O          2.7068  -21.0102  -54.9949 O.2       22 UNK        -0.5000 
    124 C124        0.5789  -19.0789  -54.5678 C.3       23 UNK        -0.0398 
    125 S125       -0.8516  -18.1795  -53.8717 S.3       23 UNK        -0.2404 
    126 C126       -0.2672  -17.7243  -52.2131 C.3       23 UNK        -0.0205 
    127 H127        1.5779  -16.1244  -47.8363 H         1 UNK         0.0600 
    128 H128        1.3764  -15.6194  -49.5175 H         1 UNK         0.0600 
    129 H129        0.3143  -16.8490  -48.8304 H         1 UNK         0.0600 
    130 H130        0.3635  -13.6287  -49.7050 H         1 UNK         0.3000 
    131 H131       -2.1575  -13.1266  -48.4976 H         1 UNK         0.0600 
    132 H132       -0.4212  -11.0586  -49.9260 H         1 UNK         0.0800 
    133 H133       -2.1495  -11.0173  -49.7176 H         1 UNK         0.0800 
    134 H134       -3.6192  -13.1149  -50.5092 H         1 UNK         0.0800 
    135 H135       -3.5602  -13.4888  -52.2113 H         1 UNK         0.0800 
    136 H136       -0.9903  -15.1133  -52.3578 H         1 UNK         0.1150 
    137 H137       -2.0324  -18.7859  -50.4415 H         1 UNK         0.1150 
    138 H138       -4.3266  -15.2555  -49.6595 H         1 UNK         0.1150 
    139 H139       -5.2473  -17.6886  -49.3802 H         1 UNK         0.0800 
    140 H140       -4.0983  -18.9873  -49.2769 H         1 UNK         0.0800 
    141 H141       -2.1908  -17.9336  -45.8681 H         1 UNK         0.0800 
    142 H142       -1.6653  -17.4942  -47.4602 H         1 UNK         0.0800 
    143 H143       -1.8854  -19.7245  -48.2990 H         1 UNK         0.0600 
    144 H144       -0.2817  -19.2583  -45.9931 H         1 UNK         0.3000 
    145 H145        1.6647  -22.2340  -46.2113 H         1 UNK         0.0600 
    146 H146        3.4890  -20.5626  -46.2857 H         1 UNK         0.0600 
    147 H147        2.6825  -20.6371  -47.8452 H         1 UNK         0.0600 
    148 H148        2.3553  -19.2970  -46.7531 H         1 UNK         0.0600 
    149 H149        1.8285  -20.0365  -44.4276 H         1 UNK         0.3000 
    150 H150       -0.5182  -21.2999  -41.9879 H         1 UNK         0.0600 
    151 H151        1.7277  -22.3548  -41.6425 H         1 UNK         0.0600 
    152 H152        1.4881  -20.9628  -40.5986 H         1 UNK         0.0600 
    153 H153        2.5081  -20.8258  -42.0291 H         1 UNK         0.0600 
    154 H154        0.9469  -18.8808  -42.0041 H         1 UNK         0.3000 
    155 H155       -1.5113  -16.8560  -43.6913 H         1 UNK         0.0600 
    156 H156       -2.1168  -16.9754  -41.2727 H         1 UNK         0.0600 
    157 H157       -1.1370  -15.5552  -41.6124 H         1 UNK         0.0600 
    158 H158       -0.4132  -16.9587  -40.8313 H         1 UNK         0.0600 
    159 H159        1.0300  -16.1337  -42.7249 H         1 UNK         0.3000 
    160 H160        2.9594  -16.9503  -45.6409 H         1 UNK         0.0600 
    161 H161        2.1802  -14.3628  -44.1937 H         1 UNK         0.0600 
    162 H162        1.9278  -14.6811  -45.8978 H         1 UNK         0.0600 
    163 H163        3.5640  -14.5862  -45.2632 H         1 UNK         0.0600 
    164 H164        3.5955  -15.9771  -42.9995 H         1 UNK         0.3000 
    165 H165        4.4736  -19.1281  -41.5951 H         1 UNK         0.0600 
    166 H166        6.6426  -17.9675  -41.3002 H         1 UNK         0.0600 
    167 H167        6.4520  -18.4704  -42.9721 H         1 UNK         0.0600 
    168 H168        6.2130  -16.7829  -42.5345 H         1 UNK         0.0600 
    169 H169        4.6591  -16.4370  -40.6305 H         1 UNK         0.3000 
    170 H170        1.4042  -16.2791  -39.1763 H         1 UNK         0.0600 
    171 H171        2.8041  -17.5903  -37.5691 H         1 UNK         0.0600 
    172 H172        4.1825  -16.5512  -37.9104 H         1 UNK         0.0600 
    173 H173        2.7422  -15.8898  -37.1360 H         1 UNK         0.0600 
    174 H174        3.4640  -14.4021  -39.0137 H         1 UNK         0.3000 
    175 H175        3.1133  -12.3881  -39.9894 H         1 UNK         0.0600 
    176 H176        4.0593  -13.2027  -42.7985 H         1 UNK         0.0600 
    177 H177        4.5814  -11.7746  -41.9063 H         1 UNK         0.0600 
    178 H178        5.0003  -13.3761  -41.3218 H         1 UNK         0.0600 
    179 H179        2.1276  -11.6934  -42.5679 H         1 UNK         0.3000 
    180 H180       -1.2031  -11.4857  -42.1425 H         1 UNK         0.0600 
    181 H181        0.3151   -8.9571  -41.3033 H         1 UNK         0.0600 
    182 H182       -1.0153   -9.6959  -40.4207 H         1 UNK         0.0600 
    183 H183       -1.3024   -9.0021  -42.0067 H         1 UNK         0.0600 
    184 H184        0.6119   -9.7599  -43.5906 H         1 UNK         0.3000 
    185 H185        0.5438  -10.0514  -45.8861 H         1 UNK         0.0600 
    186 H186        2.7778  -10.5703  -44.8846 H         1 UNK         0.0600 
    187 H187        2.7340  -12.1799  -45.5886 H         1 UNK         0.0600 
    188 H188        2.8069  -10.7601  -46.6282 H         1 UNK         0.0600 
    189 H189        1.0244  -12.4595  -47.3540 H         1 UNK         0.3000 
    190 H190       -2.2868  -20.7222  -44.8793 H         1 UNK         0.3000 
    191 H191       -4.9103  -21.8500  -45.2770 H         1 UNK         0.0600 
    192 H192       -4.1452  -21.0550  -43.0677 H         1 UNK         0.0600 
    193 H193       -4.5363  -22.7665  -42.9853 H         1 UNK         0.0600 
    194 H194       -2.8536  -22.2528  -43.0437 H         1 UNK         0.0600 
    195 H195       -1.6130  -23.2505  -45.1650 H         1 UNK         0.3000 
    196 H196       -2.3935  -25.9804  -45.2682 H         1 UNK         0.0600 
    197 H197        0.0641  -26.3280  -45.6716 H         1 UNK         0.0600 
    198 H198       -0.2117  -25.1752  -44.3791 H         1 UNK         0.0600 
    199 H199        0.2573  -24.6064  -45.9804 H         1 UNK         0.0600 
    200 H200       -1.6534  -27.5206  -46.9244 H         1 UNK         0.3000 
    201 H201       -1.7353  -28.5114  -48.9078 H         1 UNK         0.0600 
    202 H202        0.3876  -27.2256  -49.1600 H         1 UNK         0.0600 
    203 H203       -0.4893  -25.8991  -49.9201 H         1 UNK         0.0600 
    204 H204       -0.3980  -27.4667  -50.7117 H         1 UNK         0.0600 
    205 H205       -4.1948  -27.8025  -48.3085 H         1 UNK         0.3000 
    206 H206       -6.2790  -27.4534  -49.0107 H         1 UNK         0.0600 
    207 H207       -5.6834  -29.1521  -50.7444 H         1 UNK         0.0600 
    208 H208       -6.8708  -28.0054  -51.3435 H         1 UNK         0.0600 
    209 H209       -5.1940  -27.8692  -51.8496 H         1 UNK         0.0600 
    210 H210       -5.1054  -25.2306  -48.2651 H         1 UNK         0.3000 
    211 H211       -5.1186  -23.0509  -48.2116 H         1 UNK         0.0600 
    212 H212       -7.4588  -23.1537  -50.1871 H         1 UNK         0.0600 
    213 H213       -7.0174  -21.7879  -49.1718 H         1 UNK         0.0600 
    214 H214       -7.5858  -23.2763  -48.4322 H         1 UNK         0.0600 
    215 H215       -3.0503  -23.8520  -49.5251 H         1 UNK         0.3000 
    216 H216       -1.4572  -23.5568  -51.0228 H         1 UNK         0.0600 
    217 H217       -1.0433  -21.2513  -51.8175 H         1 UNK         0.0600 
    218 H218       -1.5976  -21.2180  -50.1551 H         1 UNK         0.0600 
    219 H219       -2.7018  -20.7909  -51.4618 H         1 UNK         0.0600 
    220 H220       -3.3219  -25.1546  -51.9971 H         1 UNK         0.3000 
    221 H221       -4.3832  -26.0837  -53.6845 H         1 UNK         0.0600 
    222 H222       -2.2597  -24.6554  -55.3697 H         1 UNK         0.0600 
    223 H223       -2.1188  -26.2423  -54.6250 H         1 UNK         0.0600 
    224 H224       -3.2648  -25.9871  -55.9308 H         1 UNK         0.0600 
    225 H225       -5.8981  -24.2249  -52.7525 H         1 UNK         0.3000 
    226 H226       -7.5410  -22.7709  -52.9708 H         1 UNK         0.0600 
    227 H227       -8.4719  -24.5094  -54.5017 H         1 UNK         0.0600 
    228 H228       -8.9957  -22.8985  -54.9651 H         1 UNK         0.0600 
    229 H229       -7.7328  -23.7041  -55.8852 H         1 UNK         0.0600 
    230 H230       -5.2542  -21.5453  -52.8709 H         1 UNK         0.3000 
    231 H231       -4.0449  -19.7440  -53.1795 H         1 UNK         0.0600 
    232 H232       -6.5739  -18.4791  -54.3477 H         1 UNK         0.0600 
    233 H233       -5.2080  -17.6269  -53.6369 H         1 UNK         0.0600 
    234 H234       -6.2166  -18.6479  -52.6280 H         1 UNK         0.0600 
    235 H235       -3.7875  -21.6631  -55.2750 H         1 UNK         0.3000 
    236 H236       -3.1138  -20.1244  -57.7066 H         1 UNK         0.0600 
    237 H237       -3.9527  -22.4532  -57.9434 H         1 UNK         0.0600 
    238 H238       -2.3049  -22.3140  -58.5396 H         1 UNK         0.0600 
    239 H239       -2.6101  -23.0522  -56.9730 H         1 UNK         0.0600 
    240 H240       -1.6243  -21.4196  -54.7759 H         1 UNK         0.3000 
    241 H241        0.2334  -21.0055  -53.7051 H         1 UNK         0.0600 
    242 H242        2.1963  -22.9098  -56.4358 H         1 UNK         0.3800 
    243 H243        0.4648  -22.7232  -56.3192 H         1 UNK         0.3800 
    244 H244        1.4530  -18.8929  -53.9417 H         1 UNK         0.0800 
    245 H245        0.8090  -18.6397  -55.5395 H         1 UNK         0.0800 
    246 H246        0.0525  -18.6196  -51.6774 H         1 UNK         0.0800 
    247 H247        0.6057  -17.0747  -52.2938 H         1 UNK         0.0800 
@<TRIPOS>BOND
     1    1    2 1    
     2    1  127 1    
     3    1  128 1    
     4    1  129 1    
     5    2    3 2    
     6    2    4 am   BACKBONE|DICT|INTERRES
     7    4    5 1    
     8    4  130 1    
     9    5    6 1    
    10    5   65 1    
    11    5  131 1    
    12    6    7 1    
    13    6  132 1    
    14    6  133 1    
    15    7    8 1    
    16    8    9 1    
    17    8  134 1    
    18    8  135 1    
    19    9   10 ar   
    20    9   14 ar   
    21   10   11 ar   
    22   10  136 1    
    23   11   12 ar   
    24   11  126 1    
    25   12   13 ar   
    26   12  137 1    
    27   13   14 ar   
    28   13   15 1    
    29   14  138 1    
    30   15   16 1    
    31   15  139 1    
    32   15  140 1    
    33   16   17 1    
    34   17   18 1    
    35   17  141 1    
    36   17  142 1    
    37   18   19 1    
    38   18   67 1    
    39   18  143 1    
    40   19   20 am   BACKBONE|DICT|INTERRES
    41   19  144 1    
    42   20   21 2    
    43   20   22 1    
    44   22   23 1    
    45   22   24 1    
    46   22  145 1    
    47   23  146 1    
    48   23  147 1    
    49   23  148 1    
    50   24   25 am   BACKBONE|DICT|INTERRES
    51   24  149 1    
    52   25   26 2    
    53   25   27 1    
    54   27   28 1    
    55   27   29 1    
    56   27  150 1    
    57   28  151 1    
    58   28  152 1    
    59   28  153 1    
    60   29   30 am   BACKBONE|DICT|INTERRES
    61   29  154 1    
    62   30   31 2    
    63   30   32 1    
    64   32   33 1    
    65   32   34 1    
    66   32  155 1    
    67   33  156 1    
    68   33  157 1    
    69   33  158 1    
    70   34   35 am   BACKBONE|DICT|INTERRES
    71   34  159 1    
    72   35   36 2    
    73   35   37 1    
    74   37   38 1    
    75   37   39 1    
    76   37  160 1    
    77   38  161 1    
    78   38  162 1    
    79   38  163 1    
    80   39   40 am   BACKBONE|DICT|INTERRES
    81   39  164 1    
    82   40   41 2    
    83   40   42 1    
    84   42   43 1    
    85   42   44 1    
    86   42  165 1    
    87   43  166 1    
    88   43  167 1    
    89   43  168 1    
    90   44   45 am   BACKBONE|DICT|INTERRES
    91   44  169 1    
    92   45   46 2    
    93   45   47 1    
    94   47   48 1    
    95   47   49 1    
    96   47  170 1    
    97   48  171 1    
    98   48  172 1    
    99   48  173 1    
   100   49   50 am   BACKBONE|DICT|INTERRES
   101   49  174 1    
   102   50   51 2    
   103   50   52 1    
   104   52   53 1    
   105   52   54 1    
   106   52  175 1    
   107   53  176 1    
   108   53  177 1    
   109   53  178 1    
   110   54   55 am   BACKBONE|DICT|INTERRES
   111   54  179 1    
   112   55   56 2    
   113   55   57 1    
   114   57   58 1    
   115   57   59 1    
   116   57  180 1    
   117   58  181 1    
   118   58  182 1    
   119   58  183 1    
   120   59   60 am   BACKBONE|DICT|INTERRES
   121   59  184 1    
   122   60   61 2    
   123   60   62 1    
   124   62   63 1    
   125   62   64 1    
   126   62  185 1    
   127   63  186 1    
   128   63  187 1    
   129   63  188 1    
   130   64   65 am   BACKBONE|DICT|INTERRES
   131   64  189 1    
   132   65   66 2    
   133   67   68 2    
   134   67   69 am   BACKBONE|DICT|INTERRES
   135   69   70 1    
   136   69  190 1    
   137   70   71 1    
   138   70   72 1    
   139   70  191 1    
   140   71  192 1    
   141   71  193 1    
   142   71  194 1    
   143   72   73 2    
   144   72   74 am   BACKBONE|DICT|INTERRES
   145   74   75 1    
   146   74  195 1    
   147   75   76 1    
   148   75   77 1    
   149   75  196 1    
   150   76  197 1    
   151   76  198 1    
   152   76  199 1    
   153   77   78 2    
   154   77   79 am   BACKBONE|DICT|INTERRES
   155   79   80 1    
   156   79  200 1    
   157   80   81 1    
   158   80   82 1    
   159   80  201 1    
   160   81  202 1    
   161   81  203 1    
   162   81  204 1    
   163   82   83 2    
   164   82   84 am   BACKBONE|DICT|INTERRES
   165   84   85 1    
   166   84  205 1    
   167   85   86 1    
   168   85   87 1    
   169   85  206 1    
   170   86  207 1    
   171   86  208 1    
   172   86  209 1    
   173   87   88 2    
   174   87   89 am   BACKBONE|DICT|INTERRES
   175   89   90 1    
   176   89  210 1    
   177   90   91 1    
   178   90   92 1    
   179   90  211 1    
   180   91  212 1    
   181   91  213 1    
   182   91  214 1    
   183   92   93 2    
   184   92   94 am   BACKBONE|DICT|INTERRES
   185   94   95 1    
   186   94  215 1    
   187   95   96 1    
   188   95   97 1    
   189   95  216 1    
   190   96  217 1    
   191   96  218 1    
   192   96  219 1    
   193   97   98 2    
   194   97   99 am   BACKBONE|DICT|INTERRES
   195   99  100 1    
   196   99  220 1    
   197  100  101 1    
   198  100  102 1    
   199  100  221 1    
   200  101  222 1    
   201  101  223 1    
   202  101  224 1    
   203  102  103 2    
   204  102  104 am   BACKBONE|DICT|INTERRES
   205  104  105 1    
   206  104  225 1    
   207  105  106 1    
   208  105  107 1    
   209  105  226 1    
   210  106  227 1    
   211  106  228 1    
   212  106  229 1    
   213  107  108 2    
   214  107  109 am   BACKBONE|DICT|INTERRES
   215  109  110 1    
   216  109  230 1    
   217  110  111 1    
   218  110  112 1    
   219  110  231 1    
   220  111  232 1    
   221  111  233 1    
   222  111  234 1    
   223  112  113 2    
   224  112  114 am   BACKBONE|DICT|INTERRES
   225  114  115 1    
   226  114  235 1    
   227  115  116 1    
   228  115  117 1    
   229  115  236 1    
   230  116  237 1    
   231  116  238 1    
   232  116  239 1    
   233  117  118 2    
   234  117  119 am   BACKBONE|DICT|INTERRES
   235  119  120 1    
   236  119  240 1    
   237  120  121 1    
   238  120  124 1    
   239  120  241 1    
   240  121  122 am   BACKBONE|DICT|INTERRES
   241  121  123 2    
   242  122  242 1    
   243  122  243 1    
   244  124  125 1    
   245  124  244 1    
   246  124  245 1    
   247  125  126 1    
   248  126  246 1    
   249  126  247 1    
@<TRIPOS>SUBSTRUCTURE
     1 UNK         1 GROUP             0       ****    0 ROOT    
