@<TRIPOS>MOLECULE
3R540
247   249    1
SMALL
USER_CHARGES


@<TRIPOS>ATOM
      1 CA          3.9636  -11.0819  -50.4609 C.3       0 UNK        -0.1800 
      2 C           3.1397  -12.0913  -49.6749 C.2       0 UNK         0.5000 
      3 O           2.1649  -11.7103  -49.0262 O.2       0 UNK        -0.5000 
      4 N           3.5403  -13.3708  -49.7147 N.am      1 UNK        -0.5000 
      5 CA          2.8682  -14.5214  -49.0845 C.3       1 UNK         0.1400 
      6 C6          1.5152  -14.8798  -49.7564 C.3       23 UNK        -0.0398 
      7 S7          1.7114  -15.2676  -51.5279 S.3       23 UNK        -0.2404 
      8 C8         -0.0258  -15.2495  -52.0858 C.3       23 UNK        -0.0205 
      9 C9         -0.9120  -16.3092  -51.4343 C.ar      23 UNK        -0.0193 
     10 C10        -2.2494  -16.0084  -51.1583 C.ar      23 UNK        -0.1150 
     11 C11        -3.0995  -16.9730  -50.6104 C.ar      23 UNK        -0.0193 
     12 C12        -2.5979  -18.2435  -50.3160 C.ar      23 UNK        -0.1150 
     13 C13        -1.2626  -18.5574  -50.5765 C.ar      23 UNK        -0.0193 
     14 C14        -0.4292  -17.5909  -51.1441 C.ar      23 UNK        -0.1150 
     15 C15        -0.7149  -19.9398  -50.2621 C.3       23 UNK        -0.0205 
     16 S16         0.0987  -19.9714  -48.6350 S.3       23 UNK        -0.2404 
     17 C17        -1.3254  -20.1972  -47.5183 C.3       23 UNK        -0.0398 
     18 CA         -1.4947  -21.6706  -47.0932 C.3       11 UNK         0.1400 
     19 N          -0.3335  -22.1667  -46.3562 N.am      11 UNK        -0.5000 
     20 C          -0.0334  -23.4589  -46.1838 C.2       10 UNK         0.5000 
     21 O          -0.6784  -24.3817  -46.6802 O.2       10 UNK        -0.5000 
     22 CA          1.1826  -23.7743  -45.2956 C.3       10 UNK         0.1400 
     23 CB          2.4461  -23.9200  -46.1547 C.3       10 UNK        -0.1800 
     24 N           1.4134  -22.7629  -44.2624 N.am      10 UNK        -0.5000 
     25 C           0.5685  -22.4694  -43.2667 C.2       9 UNK         0.5000 
     26 O          -0.5105  -23.0386  -43.1031 O.2       9 UNK        -0.5000 
     27 CA          0.9611  -21.3153  -42.3309 C.3       9 UNK         0.1400 
     28 CB          2.0250  -21.7504  -41.3069 C.3       9 UNK        -0.1800 
     29 N           1.3518  -20.0889  -43.0340 N.am      9 UNK        -0.5000 
     30 C           2.4376  -19.8251  -43.7759 C.2       8 UNK         0.5000 
     31 O           3.3056  -20.6545  -44.0504 O.2       8 UNK        -0.5000 
     32 CA          2.5710  -18.3803  -44.2983 C.3       8 UNK         0.1400 
     33 CB          1.9493  -18.2536  -45.6968 C.3       8 UNK        -0.1800 
     34 N           1.9483  -17.4024  -43.4027 N.am      8 UNK        -0.5000 
     35 C           2.4033  -17.0953  -42.1781 C.2       7 UNK         0.5000 
     36 O           3.4640  -17.5155  -41.7146 O.2       7 UNK        -0.5000 
     37 CA          1.4951  -16.2100  -41.3073 C.3       7 UNK         0.1400 
     38 CB          1.7453  -14.7184  -41.5738 C.3       7 UNK        -0.1800 
     39 N           0.0814  -16.5235  -41.5213 N.am      7 UNK        -0.5000 
     40 C          -0.5367  -17.5956  -41.0039 C.2       6 UNK         0.5000 
     41 O           0.0036  -18.3906  -40.2354 O.2       6 UNK        -0.5000 
     42 CA         -1.9957  -17.8402  -41.4307 C.3       6 UNK         0.1400 
     43 CB         -2.9659  -17.1756  -40.4432 C.3       6 UNK        -0.1800 
     44 N          -2.2830  -17.3571  -42.7815 N.am      6 UNK        -0.5000 
     45 C          -1.8495  -17.9334  -43.9112 C.2       5 UNK         0.5000 
     46 O          -1.2088  -18.9846  -43.9431 O.2       5 UNK        -0.5000 
     47 CA         -2.1574  -17.1892  -45.2253 C.3       5 UNK         0.1400 
     48 CB         -3.4742  -17.6942  -45.8350 C.3       5 UNK        -0.1800 
     49 N          -2.2179  -15.7327  -45.0717 N.am      5 UNK        -0.5000 
     50 C          -1.1798  -14.9709  -44.7037 C.2       4 UNK         0.5000 
     51 O          -0.0675  -15.4224  -44.4226 O.2       4 UNK        -0.5000 
     52 CA         -1.4530  -13.4728  -44.5402 C.3       4 UNK         0.1400 
     53 CB         -1.7358  -13.1520  -43.0589 C.3       4 UNK        -0.1800 
     54 N          -0.2981  -12.7244  -45.0244 N.am      4 UNK        -0.5000 
     55 C          -0.2591  -11.4030  -45.2408 C.2       3 UNK         0.5000 
     56 O          -1.2283  -10.6651  -45.0542 O.2       3 UNK        -0.5000 
     57 CA          1.0470  -10.7847  -45.7896 C.3       3 UNK         0.1400 
     58 CB          1.4909   -9.5503  -44.9774 C.3       3 UNK        -0.1800 
     59 N           2.1530  -11.7320  -45.9650 N.am      3 UNK        -0.5000 
     60 C           2.8499  -12.3899  -45.0250 C.2       2 UNK         0.5000 
     61 O           2.6896  -12.2203  -43.8165 O.2       2 UNK        -0.5000 
     62 CA          3.8999  -13.4159  -45.5144 C.3       2 UNK         0.1400 
     63 CB          3.9133  -14.6866  -44.6420 C.3       2 UNK        -0.1800 
     64 N           3.7836  -13.7738  -46.9357 N.am      2 UNK        -0.5000 
     65 C           2.7422  -14.3577  -47.5520 C.2       1 UNK         0.5000 
     66 O           1.7110  -14.6990  -46.9734 O.2       1 UNK        -0.5000 
     67 C          -2.7913  -21.8812  -46.2891 C.2       11 UNK         0.5000 
     68 O          -3.7778  -22.3453  -46.8571 O.2       11 UNK        -0.5000 
     69 N          -2.7631  -21.5950  -44.9785 N.am      12 UNK        -0.5000 
     70 CA         -3.8823  -21.8487  -44.0646 C.3       12 UNK         0.1400 
     71 CB         -3.6271  -21.1506  -42.7218 C.3       12 UNK        -0.1800 
     72 C          -4.1602  -23.3506  -43.8619 C.2       12 UNK         0.5000 
     73 O          -5.3217  -23.7475  -43.7642 O.2       12 UNK        -0.5000 
     74 N          -3.0927  -24.1600  -43.8438 N.am      13 UNK        -0.5000 
     75 CA         -3.1493  -25.6228  -43.7974 C.3       13 UNK         0.1400 
     76 CB         -1.7657  -26.1538  -43.3906 C.3       13 UNK        -0.1800 
     77 C          -3.5928  -26.2681  -45.1278 C.2       13 UNK         0.5000 
     78 O          -3.9287  -27.4528  -45.1330 O.2       13 UNK        -0.5000 
     79 N          -3.5589  -25.4945  -46.2244 N.am      14 UNK        -0.5000 
     80 CA         -3.8188  -25.8917  -47.6132 C.3       14 UNK         0.1400 
     81 CB         -5.2918  -26.3044  -47.8081 C.3       14 UNK        -0.1800 
     82 C          -2.8138  -26.9380  -48.1446 C.2       14 UNK         0.5000 
     83 O          -3.1582  -27.7545  -49.0010 O.2       14 UNK        -0.5000 
     84 N          -1.5792  -26.8803  -47.6297 N.am      15 UNK        -0.5000 
     85 CA         -0.4259  -27.6322  -48.1179 C.3       15 UNK         0.1400 
     86 CB          0.5845  -27.7988  -46.9721 C.3       15 UNK        -0.1800 
     87 C           0.2196  -26.9150  -49.3170 C.2       15 UNK         0.5000 
     88 O           0.6752  -27.5744  -50.2522 O.2       15 UNK        -0.5000 
     89 N           0.2181  -25.5759  -49.2741 N.am      16 UNK        -0.5000 
     90 CA          0.5641  -24.6983  -50.3894 C.3       16 UNK         0.1400 
     91 CB          1.0653  -23.3626  -49.8188 C.3       16 UNK        -0.1800 
     92 C          -0.6502  -24.4899  -51.3172 C.2       16 UNK         0.5000 
     93 O          -1.7512  -24.9626  -51.0195 O.2       16 UNK        -0.5000 
     94 N          -0.4336  -23.7672  -52.4241 N.am      17 UNK        -0.5000 
     95 CA         -1.4117  -23.4659  -53.4764 C.3       17 UNK         0.1400 
     96 CB         -0.6487  -23.0024  -54.7311 C.3       17 UNK        -0.1800 
     97 C          -2.5057  -22.4590  -53.0503 C.2       17 UNK         0.5000 
     98 O          -2.7114  -21.4436  -53.7171 O.2       17 UNK        -0.5000 
     99 N          -3.1990  -22.7602  -51.9472 N.am      18 UNK        -0.5000 
    100 CA        -4.3380  -22.0146  -51.4147 C.3       18 UNK         0.1400 
    101 CB        -4.8085  -22.6986  -50.1246 C.3       18 UNK        -0.1800 
    102 C         -5.4923  -21.9094  -52.4294 C.2       18 UNK         0.5000 
    103 O         -5.6924  -22.8248  -53.2319 O.2       18 UNK        -0.5000 
    104 N         -6.2033  -20.7758  -52.3941 N.am      19 UNK        -0.5000 
    105 CA        -7.2476  -20.3182  -53.3217 C.3       19 UNK         0.1400 
    106 CB        -8.4185  -21.3145  -53.4242 C.3       19 UNK        -0.1800 
    107 C         -6.7077  -19.9293  -54.7129 C.2       19 UNK         0.5000 
    108 O         -7.0999  -18.8868  -55.2362 O.2       19 UNK        -0.5000 
    109 N         -5.8042  -20.7430  -55.2738 N.am      20 UNK        -0.5000 
    110 CA        -5.1396  -20.5160  -56.5561 C.3       20 UNK         0.1400 
    111 CB        -4.4056  -21.7960  -56.9857 C.3       20 UNK        -0.1800 
    112 C         -4.1814  -19.3130  -56.5111 C.2       20 UNK         0.5000 
    113 O         -4.2940  -18.4118  -57.3435 O.2       20 UNK        -0.5000 
    114 N         -3.2804  -19.2985  -55.5187 N.am      21 UNK        -0.5000 
    115 CA        -2.3152  -18.2190  -55.2945 C.3       21 UNK         0.1400 
    116 CB        -1.2041  -18.7206  -54.3617 C.3       21 UNK        -0.1800 
    117 C         -2.9534  -16.9319  -54.7371 C.2       21 UNK         0.5000 
    118 O         -2.3395  -15.8684  -54.8327 O.2       21 UNK        -0.5000 
    119 N         -4.1693  -17.0411  -54.1845 N.am      22 UNK        -0.5000 
    120 CA        -4.9575  -15.9132  -53.6636 C.3       22 UNK         0.1400 
    121 C         -5.5127  -14.9519  -54.7574 C.2       22 UNK         0.5000 
    122 N         -5.5035  -15.3144  -56.0353 N.am      22 UNK        -0.7600 
    123 O         -5.9580  -13.8530  -54.4385 O.2       22 UNK        -0.5000 
    124 C124       -6.1047  -16.3655  -52.7208 C.3       23 UNK        -0.0398 
    125 S125       -5.6537  -17.5952  -51.4472 S.3       23 UNK        -0.2404 
    126 C126       -4.5611  -16.6572  -50.3344 C.3       23 UNK        -0.0205 
    127 H127        3.3395  -10.5899  -51.2069 H         1 UNK         0.0600 
    128 H128        4.8007  -11.5540  -50.9757 H         1 UNK         0.0600 
    129 H129        4.3614  -10.3197  -49.7910 H         1 UNK         0.0600 
    130 H130        4.3537  -13.6053  -50.2667 H         1 UNK         0.3000 
    131 H131        3.5349  -15.3736  -49.2252 H         1 UNK         0.0600 
    132 H132        0.8001  -14.0634  -49.6430 H         1 UNK         0.0800 
    133 H133        1.0669  -15.7519  -49.2765 H         1 UNK         0.0800 
    134 H134       -0.4336  -14.2526  -51.9115 H         1 UNK         0.0800 
    135 H135       -0.0458  -15.4052  -53.1650 H         1 UNK         0.0800 
    136 H136       -2.6330  -15.0245  -51.3870 H         1 UNK         0.1150 
    137 H137       -3.2565  -18.9884  -49.8940 H         1 UNK         0.1150 
    138 H138        0.5983  -17.8440  -51.3621 H         1 UNK         0.1150 
    139 H139       -1.5044  -20.6917  -50.3032 H         1 UNK         0.0800 
    140 H140        0.0118  -20.2252  -51.0243 H         1 UNK         0.0800 
    141 H141       -1.1593  -19.5744  -46.6415 H         1 UNK         0.0800 
    142 H142       -2.2306  -19.8216  -47.9946 H         1 UNK         0.0800 
    143 H143       -1.5982  -22.2653  -48.0035 H         1 UNK         0.0600 
    144 H144        0.2652  -21.4747  -45.9316 H         1 UNK         0.3000 
    145 H145        0.9928  -24.7270  -44.7983 H         1 UNK         0.0600 
    146 H146        3.3025  -24.2150  -45.5483 H         1 UNK         0.0600 
    147 H147        2.3133  -24.6847  -46.9214 H         1 UNK         0.0600 
    148 H148        2.6986  -22.9868  -46.6600 H         1 UNK         0.0600 
    149 H149        2.2674  -22.2145  -44.3258 H         1 UNK         0.3000 
    150 H150        0.0626  -21.0509  -41.7707 H         1 UNK         0.0600 
    151 H151        1.6737  -22.6004  -40.7207 H         1 UNK         0.0600 
    152 H152        2.2482  -20.9434  -40.6086 H         1 UNK         0.0600 
    153 H153        2.9585  -22.0486  -41.7846 H         1 UNK         0.0600 
    154 H154        0.6597  -19.3514  -42.9851 H         1 UNK         0.3000 
    155 H155        3.6352  -18.1472  -44.3727 H         1 UNK         0.0600 
    156 H156        2.0794  -17.2483  -46.0961 H         1 UNK         0.0600 
    157 H157        0.8819  -18.4708  -45.6847 H         1 UNK         0.0600 
    158 H158        2.4167  -18.9455  -46.3985 H         1 UNK         0.0600 
    159 H159        1.1119  -16.9369  -43.7393 H         1 UNK         0.3000 
    160 H160        1.7424  -16.4063  -40.2617 H         1 UNK         0.0600 
    161 H161        1.5209  -14.4439  -42.6039 H         1 UNK         0.0600 
    162 H162        2.7885  -14.4596  -41.3894 H         1 UNK         0.0600 
    163 H163        1.1363  -14.0932  -40.9211 H         1 UNK         0.0600 
    164 H164       -0.4097  -15.9497  -42.1914 H         1 UNK         0.3000 
    165 H165       -2.1653  -18.9179  -41.4017 H         1 UNK         0.0600 
    166 H166       -2.8544  -16.0905  -40.4364 H         1 UNK         0.0600 
    167 H167       -4.0016  -17.4061  -40.6935 H         1 UNK         0.0600 
    168 H168       -2.7920  -17.5302  -39.4264 H         1 UNK         0.0600 
    169 H169       -2.8180  -16.5048  -42.8547 H         1 UNK         0.3000 
    170 H170       -1.3472  -17.4069  -45.9230 H         1 UNK         0.0600 
    171 H171       -3.4795  -18.7809  -45.9234 H         1 UNK         0.0600 
    172 H172       -4.3333  -17.4158  -45.2236 H         1 UNK         0.0600 
    173 H173       -3.6260  -17.2872  -46.8350 H         1 UNK         0.0600 
    174 H174       -3.1062  -15.2947  -45.2695 H         1 UNK         0.3000 
    175 H175       -2.3217  -13.2036  -45.1445 H         1 UNK         0.0600 
    176 H176       -2.0241  -12.1102  -42.9210 H         1 UNK         0.0600 
    177 H177       -2.5532  -13.7620  -42.6727 H         1 UNK         0.0600 
    178 H178       -0.8615  -13.3395  -42.4348 H         1 UNK         0.0600 
    179 H179        0.5168  -13.2909  -45.2322 H         1 UNK         0.3000 
    180 H180        0.8052  -10.4386  -46.7955 H         1 UNK         0.0600 
    181 H181        0.7269   -8.7724  -45.0011 H         1 UNK         0.0600 
    182 H182        1.6702   -9.7941  -43.9302 H         1 UNK         0.0600 
    183 H183        2.4046   -9.1172  -45.3843 H         1 UNK         0.0600 
    184 H184        2.3484  -11.9580  -46.9343 H         1 UNK         0.3000 
    185 H185        4.8694  -12.9285  -45.4031 H         1 UNK         0.0600 
    186 H186        2.9390  -15.1738  -44.6410 H         1 UNK         0.0600 
    187 H187        4.6490  -15.4076  -44.9979 H         1 UNK         0.0600 
    188 H188        4.1632  -14.4531  -43.6067 H         1 UNK         0.0600 
    189 H189        4.5664  -13.5006  -47.5138 H         1 UNK         0.3000 
    190 H190       -1.9218  -21.2129  -44.5681 H         1 UNK         0.3000 
    191 H191       -4.7818  -21.4103  -44.5024 H         1 UNK         0.0600 
    192 H192       -4.3979  -21.4037  -41.9927 H         1 UNK         0.0600 
    193 H193       -3.6463  -20.0689  -42.8426 H         1 UNK         0.0600 
    194 H194       -2.6636  -21.4302  -42.2944 H         1 UNK         0.0600 
    195 H195       -2.1671  -23.7406  -43.8339 H         1 UNK         0.3000 
    196 H196       -3.8693  -25.9168  -43.0310 H         1 UNK         0.0600 
    197 H197       -1.7784  -27.2389  -43.2811 H         1 UNK         0.0600 
    198 H198       -1.4452  -25.7345  -42.4366 H         1 UNK         0.0600 
    199 H199       -1.0089  -25.9091  -44.1360 H         1 UNK         0.0600 
    200 H200       -3.2694  -24.5334  -46.1037 H         1 UNK         0.3000 
    201 H201       -3.6510  -24.9957  -48.2122 H         1 UNK         0.0600 
    202 H202       -5.9676  -25.5353  -47.4339 H         1 UNK         0.0600 
    203 H203       -5.5243  -27.2369  -47.2935 H         1 UNK         0.0600 
    204 H204       -5.5200  -26.4484  -48.8648 H         1 UNK         0.0600 
    205 H205       -1.3795  -26.1258  -46.9801 H         1 UNK         0.3000 
    206 H206       -0.7476  -28.6241  -48.4421 H         1 UNK         0.0600 
    207 H207        0.1421  -28.3379  -46.1341 H         1 UNK         0.0600 
    208 H208        1.4567  -28.3652  -47.3005 H         1 UNK         0.0600 
    209 H209        0.9375  -26.8364  -46.6003 H         1 UNK         0.0600 
    210 H210       -0.2100  -25.1301  -48.4709 H         1 UNK         0.3000 
    211 H211        1.3668  -25.1516  -50.9745 H         1 UNK         0.0600 
    212 H212        0.2871  -22.8603  -49.2479 H         1 UNK         0.0600 
    213 H213        1.3851  -22.6812  -50.6075 H         1 UNK         0.0600 
    214 H214        1.9201  -23.5111  -49.1596 H         1 UNK         0.0600 
    215 H215        0.4918  -23.3932  -52.5757 H         1 UNK         0.3000 
    216 H216       -1.9279  -24.3937  -53.7310 H         1 UNK         0.0600 
    217 H217       -1.3306  -22.8195  -55.5623 H         1 UNK         0.0600 
    218 H218        0.0641  -23.7580  -55.0619 H         1 UNK         0.0600 
    219 H219       -0.0988  -22.0786  -54.5479 H         1 UNK         0.0600 
    220 H220       -2.9517  -23.6247  -51.4731 H         1 UNK         0.3000 
    221 H221       -3.9878  -21.0089  -51.1752 H         1 UNK         0.0600 
    222 H222       -5.1928  -23.7012  -50.3170 H         1 UNK         0.0600 
    223 H223       -3.9891  -22.7882  -49.4130 H         1 UNK         0.0600 
    224 H224       -5.6012  -22.1268  -49.6406 H         1 UNK         0.0600 
    225 H225       -5.9378  -20.0799  -51.7093 H         1 UNK         0.3000 
    226 H226       -7.6484  -19.4052  -52.8791 H         1 UNK         0.0600 
    227 H227       -8.8062  -21.5704  -52.4382 H         1 UNK         0.0600 
    228 H228       -9.2414  -20.8832  -53.9954 H         1 UNK         0.0600 
    229 H229       -8.1316  -22.2397  -53.9240 H         1 UNK         0.0600 
    230 H230       -5.5471  -21.5805  -54.7609 H         1 UNK         0.3000 
    231 H231       -5.9084  -20.3015  -57.3013 H         1 UNK         0.0600 
    232 H232       -3.8940  -21.6526  -57.9382 H         1 UNK         0.0600 
    233 H233       -5.1027  -22.6244  -57.1125 H         1 UNK         0.0600 
    234 H234       -3.6578  -22.0997  -56.2528 H         1 UNK         0.0600 
    235 H235       -3.2269  -20.0875  -54.8765 H         1 UNK         0.3000 
    236 H236       -1.8587  -17.9648  -56.2533 H         1 UNK         0.0600 
    237 H237       -1.6048  -19.0088  -53.3902 H         1 UNK         0.0600 
    238 H238       -0.6941  -19.5862  -54.7839 H         1 UNK         0.0600 
    239 H239       -0.4525  -17.9486  -54.1929 H         1 UNK         0.0600 
    240 H240       -4.6037  -17.9501  -54.1491 H         1 UNK         0.3000 
    241 H241       -4.2769  -15.3055  -53.0672 H         1 UNK         0.0600 
    242 H242       -5.1478  -16.2180  -56.3115 H         1 UNK         0.3800 
    243 H243       -5.8631  -14.6828  -56.7336 H         1 UNK         0.3800 
    244 H244       -6.5408  -15.5015  -52.2164 H         1 UNK         0.0800 
    245 H245       -6.9132  -16.8034  -53.3087 H         1 UNK         0.0800 
    246 H246       -4.7593  -15.5879  -50.4198 H         1 UNK         0.0800 
    247 H247       -4.7925  -16.9294  -49.3037 H         1 UNK         0.0800 
@<TRIPOS>BOND
     1    1    2 1    
     2    1  127 1    
     3    1  128 1    
     4    1  129 1    
     5    2    3 2    
     6    2    4 am   BACKBONE|DICT|INTERRES
     7    4    5 1    
     8    4  130 1    
     9    5    6 1    
    10    5   65 1    
    11    5  131 1    
    12    6    7 1    
    13    6  132 1    
    14    6  133 1    
    15    7    8 1    
    16    8    9 1    
    17    8  134 1    
    18    8  135 1    
    19    9   10 ar   
    20    9   14 ar   
    21   10   11 ar   
    22   10  136 1    
    23   11   12 ar   
    24   11  126 1    
    25   12   13 ar   
    26   12  137 1    
    27   13   14 ar   
    28   13   15 1    
    29   14  138 1    
    30   15   16 1    
    31   15  139 1    
    32   15  140 1    
    33   16   17 1    
    34   17   18 1    
    35   17  141 1    
    36   17  142 1    
    37   18   19 1    
    38   18   67 1    
    39   18  143 1    
    40   19   20 am   BACKBONE|DICT|INTERRES
    41   19  144 1    
    42   20   21 2    
    43   20   22 1    
    44   22   23 1    
    45   22   24 1    
    46   22  145 1    
    47   23  146 1    
    48   23  147 1    
    49   23  148 1    
    50   24   25 am   BACKBONE|DICT|INTERRES
    51   24  149 1    
    52   25   26 2    
    53   25   27 1    
    54   27   28 1    
    55   27   29 1    
    56   27  150 1    
    57   28  151 1    
    58   28  152 1    
    59   28  153 1    
    60   29   30 am   BACKBONE|DICT|INTERRES
    61   29  154 1    
    62   30   31 2    
    63   30   32 1    
    64   32   33 1    
    65   32   34 1    
    66   32  155 1    
    67   33  156 1    
    68   33  157 1    
    69   33  158 1    
    70   34   35 am   BACKBONE|DICT|INTERRES
    71   34  159 1    
    72   35   36 2    
    73   35   37 1    
    74   37   38 1    
    75   37   39 1    
    76   37  160 1    
    77   38  161 1    
    78   38  162 1    
    79   38  163 1    
    80   39   40 am   BACKBONE|DICT|INTERRES
    81   39  164 1    
    82   40   41 2    
    83   40   42 1    
    84   42   43 1    
    85   42   44 1    
    86   42  165 1    
    87   43  166 1    
    88   43  167 1    
    89   43  168 1    
    90   44   45 am   BACKBONE|DICT|INTERRES
    91   44  169 1    
    92   45   46 2    
    93   45   47 1    
    94   47   48 1    
    95   47   49 1    
    96   47  170 1    
    97   48  171 1    
    98   48  172 1    
    99   48  173 1    
   100   49   50 am   BACKBONE|DICT|INTERRES
   101   49  174 1    
   102   50   51 2    
   103   50   52 1    
   104   52   53 1    
   105   52   54 1    
   106   52  175 1    
   107   53  176 1    
   108   53  177 1    
   109   53  178 1    
   110   54   55 am   BACKBONE|DICT|INTERRES
   111   54  179 1    
   112   55   56 2    
   113   55   57 1    
   114   57   58 1    
   115   57   59 1    
   116   57  180 1    
   117   58  181 1    
   118   58  182 1    
   119   58  183 1    
   120   59   60 am   BACKBONE|DICT|INTERRES
   121   59  184 1    
   122   60   61 2    
   123   60   62 1    
   124   62   63 1    
   125   62   64 1    
   126   62  185 1    
   127   63  186 1    
   128   63  187 1    
   129   63  188 1    
   130   64   65 am   BACKBONE|DICT|INTERRES
   131   64  189 1    
   132   65   66 2    
   133   67   68 2    
   134   67   69 am   BACKBONE|DICT|INTERRES
   135   69   70 1    
   136   69  190 1    
   137   70   71 1    
   138   70   72 1    
   139   70  191 1    
   140   71  192 1    
   141   71  193 1    
   142   71  194 1    
   143   72   73 2    
   144   72   74 am   BACKBONE|DICT|INTERRES
   145   74   75 1    
   146   74  195 1    
   147   75   76 1    
   148   75   77 1    
   149   75  196 1    
   150   76  197 1    
   151   76  198 1    
   152   76  199 1    
   153   77   78 2    
   154   77   79 am   BACKBONE|DICT|INTERRES
   155   79   80 1    
   156   79  200 1    
   157   80   81 1    
   158   80   82 1    
   159   80  201 1    
   160   81  202 1    
   161   81  203 1    
   162   81  204 1    
   163   82   83 2    
   164   82   84 am   BACKBONE|DICT|INTERRES
   165   84   85 1    
   166   84  205 1    
   167   85   86 1    
   168   85   87 1    
   169   85  206 1    
   170   86  207 1    
   171   86  208 1    
   172   86  209 1    
   173   87   88 2    
   174   87   89 am   BACKBONE|DICT|INTERRES
   175   89   90 1    
   176   89  210 1    
   177   90   91 1    
   178   90   92 1    
   179   90  211 1    
   180   91  212 1    
   181   91  213 1    
   182   91  214 1    
   183   92   93 2    
   184   92   94 am   BACKBONE|DICT|INTERRES
   185   94   95 1    
   186   94  215 1    
   187   95   96 1    
   188   95   97 1    
   189   95  216 1    
   190   96  217 1    
   191   96  218 1    
   192   96  219 1    
   193   97   98 2    
   194   97   99 am   BACKBONE|DICT|INTERRES
   195   99  100 1    
   196   99  220 1    
   197  100  101 1    
   198  100  102 1    
   199  100  221 1    
   200  101  222 1    
   201  101  223 1    
   202  101  224 1    
   203  102  103 2    
   204  102  104 am   BACKBONE|DICT|INTERRES
   205  104  105 1    
   206  104  225 1    
   207  105  106 1    
   208  105  107 1    
   209  105  226 1    
   210  106  227 1    
   211  106  228 1    
   212  106  229 1    
   213  107  108 2    
   214  107  109 am   BACKBONE|DICT|INTERRES
   215  109  110 1    
   216  109  230 1    
   217  110  111 1    
   218  110  112 1    
   219  110  231 1    
   220  111  232 1    
   221  111  233 1    
   222  111  234 1    
   223  112  113 2    
   224  112  114 am   BACKBONE|DICT|INTERRES
   225  114  115 1    
   226  114  235 1    
   227  115  116 1    
   228  115  117 1    
   229  115  236 1    
   230  116  237 1    
   231  116  238 1    
   232  116  239 1    
   233  117  118 2    
   234  117  119 am   BACKBONE|DICT|INTERRES
   235  119  120 1    
   236  119  240 1    
   237  120  121 1    
   238  120  124 1    
   239  120  241 1    
   240  121  122 am   BACKBONE|DICT|INTERRES
   241  121  123 2    
   242  122  242 1    
   243  122  243 1    
   244  124  125 1    
   245  124  244 1    
   246  124  245 1    
   247  125  126 1    
   248  126  246 1    
   249  126  247 1    
@<TRIPOS>SUBSTRUCTURE
     1 UNK         1 GROUP             0       ****    0 ROOT    
