@<TRIPOS>MOLECULE
3R540
247   249    1
SMALL
USER_CHARGES


@<TRIPOS>ATOM
      1 CA          8.6479  -16.8808  -46.8390 C.3       0 UNK        -0.1800 
      2 C           7.4327  -15.9932  -46.6077 C.2       0 UNK         0.5000 
      3 O           7.5359  -14.9851  -45.9083 O.2       0 UNK        -0.5000 
      4 N           6.2851  -16.3677  -47.1863 N.am      1 UNK        -0.5000 
      5 CA          5.0323  -15.6112  -47.1226 C.3       1 UNK         0.1400 
      6 C6          3.8306  -16.4894  -47.5469 C.3       23 UNK        -0.0398 
      7 S7          2.2171  -15.7284  -47.1496 S.3       23 UNK        -0.2404 
      8 C8          1.4701  -15.5249  -48.7986 C.3       23 UNK        -0.0205 
      9 C9          0.6399  -16.7400  -49.1879 C.ar      23 UNK        -0.0193 
     10 C10        -0.7567  -16.6814  -49.1517 C.ar      23 UNK        -0.1150 
     11 C11        -1.5265  -17.7987  -49.4913 C.ar      23 UNK        -0.0193 
     12 C12        -0.8860  -18.9909  -49.8401 C.ar      23 UNK        -0.1150 
     13 C13         0.5093  -19.0672  -49.8703 C.ar      23 UNK        -0.0193 
     14 C14         1.2639  -17.9296  -49.5723 C.ar      23 UNK        -0.1150 
     15 C15         1.1977  -20.3877  -50.1947 C.3       23 UNK        -0.0205 
     16 S16         2.4119  -20.9059  -48.9271 S.3       23 UNK        -0.2404 
     17 C17         1.4744  -20.7695  -47.3626 C.3       23 UNK        -0.0398 
     18 CA          0.8308  -22.0984  -46.9044 C.3       11 UNK         0.1400 
     19 N           0.4762  -22.0592  -45.4841 N.am      11 UNK        -0.5000 
     20 C          -0.0067  -23.0927  -44.7797 C.2       10 UNK         0.5000 
     21 O          -0.1475  -24.2284  -45.2313 O.2       10 UNK        -0.5000 
     22 CA         -0.4721  -22.7862  -43.3474 C.3       10 UNK         0.1400 
     23 CB          0.7181  -22.7340  -42.3788 C.3       10 UNK        -0.1800 
     24 N          -1.2207  -21.5308  -43.2851 N.am      10 UNK        -0.5000 
     25 C          -2.4393  -21.3565  -43.8166 C.2       9 UNK         0.5000 
     26 O          -3.0775  -22.2518  -44.3709 O.2       9 UNK        -0.5000 
     27 CA         -3.0247  -19.9337  -43.7486 C.3       9 UNK         0.1400 
     28 CB         -3.7108  -19.6936  -42.3958 C.3       9 UNK        -0.1800 
     29 N          -2.0206  -18.8915  -43.9758 N.am      9 UNK        -0.5000 
     30 C          -1.3811  -18.7021  -45.1387 C.2       8 UNK         0.5000 
     31 O          -1.5681  -19.3896  -46.1387 O.2       8 UNK        -0.5000 
     32 CA         -0.3211  -17.5903  -45.1800 C.3       8 UNK         0.1400 
     33 CB         -0.9883  -16.2339  -45.4412 C.3       8 UNK        -0.1800 
     34 N           0.4948  -17.5168  -43.9645 N.am      8 UNK        -0.5000 
     35 C           1.2703  -18.5121  -43.5085 C.2       7 UNK         0.5000 
     36 O           1.3304  -19.6216  -44.0442 O.2       7 UNK        -0.5000 
     37 CA          2.0821  -18.2314  -42.2251 C.3       7 UNK         0.1400 
     38 CB          3.2558  -19.2148  -42.0335 C.3       7 UNK        -0.1800 
     39 N           2.5498  -16.8457  -42.1040 N.am      7 UNK        -0.5000 
     40 C           3.3872  -16.1882  -42.9197 C.2       6 UNK         0.5000 
     41 O           3.8550  -16.6674  -43.9528 O.2       6 UNK        -0.5000 
     42 CA          3.7696  -14.7569  -42.4834 C.3       6 UNK         0.1400 
     43 CB          4.6075  -14.0053  -43.5329 C.3       6 UNK        -0.1800 
     44 N           2.5972  -13.9474  -42.1423 N.am      6 UNK        -0.5000 
     45 C           1.9773  -13.9487  -40.9529 C.2       5 UNK         0.5000 
     46 O           2.3030  -14.6942  -40.0283 O.2       5 UNK        -0.5000 
     47 CA          0.7963  -12.9782  -40.7501 C.3       5 UNK         0.1400 
     48 CB          1.2456  -11.7555  -39.9353 C.3       5 UNK        -0.1800 
     49 N           0.1957  -12.5129  -41.9991 N.am      5 UNK        -0.5000 
     50 C          -0.5433  -13.2658  -42.8247 C.2       4 UNK         0.5000 
     51 O          -0.8323  -14.4417  -42.6013 O.2       4 UNK        -0.5000 
     52 CA         -1.0057  -12.5935  -44.1348 C.3       4 UNK         0.1400 
     53 CB         -2.4018  -11.9785  -43.9583 C.3       4 UNK        -0.1800 
     54 N          -0.0826  -11.5639  -44.6299 N.am      4 UNK        -0.5000 
     55 C           1.1897  -11.7918  -44.9817 C.2       3 UNK         0.5000 
     56 O           1.7300  -12.8969  -44.9010 O.2       3 UNK        -0.5000 
     57 CA          2.0154  -10.5727  -45.4264 C.3       3 UNK         0.1400 
     58 CB          2.5561   -9.8253  -44.1968 C.3       3 UNK        -0.1800 
     59 N           3.1471  -11.0022  -46.2451 N.am      3 UNK        -0.5000 
     60 C           3.0766  -11.2820  -47.5525 C.2       2 UNK         0.5000 
     61 O           2.0860  -11.0710  -48.2528 O.2       2 UNK        -0.5000 
     62 CA          4.3042  -11.9753  -48.1525 C.3       2 UNK         0.1400 
     63 CB          5.5792  -11.1180  -48.0350 C.3       2 UNK        -0.1800 
     64 N           4.4673  -13.2570  -47.4754 N.am      2 UNK        -0.5000 
     65 C           5.1240  -14.3153  -47.9597 C.2       1 UNK         0.5000 
     66 O           5.7455  -14.3115  -49.0258 O.2       1 UNK        -0.5000 
     67 C          -0.3830  -22.4755  -47.7782 C.2       11 UNK         0.5000 
     68 O          -0.2718  -23.3695  -48.6161 O.2       11 UNK        -0.5000 
     69 N          -1.5290  -21.8235  -47.5350 N.am      12 UNK        -0.5000 
     70 CA         -2.7966  -22.0649  -48.2212 C.3       12 UNK         0.1400 
     71 CB         -3.8424  -21.0471  -47.7450 C.3       12 UNK        -0.1800 
     72 C          -3.3165  -23.5009  -48.0506 C.2       12 UNK         0.5000 
     73 O          -3.8279  -24.0717  -49.0141 O.2       12 UNK        -0.5000 
     74 N          -3.1559  -24.0639  -46.8468 N.am      13 UNK        -0.5000 
     75 CA         -3.4796  -25.4555  -46.5458 C.3       13 UNK         0.1400 
     76 CB         -3.4967  -25.6606  -45.0233 C.3       13 UNK        -0.1800 
     77 C          -2.5098  -26.4393  -47.2265 C.2       13 UNK         0.5000 
     78 O          -2.9620  -27.4082  -47.8366 O.2       13 UNK        -0.5000 
     79 N          -1.2007  -26.1697  -47.1199 N.am      14 UNK        -0.5000 
     80 CA         -0.1270  -27.0144  -47.6471 C.3       14 UNK         0.1400 
     81 CB          1.2230  -26.5291  -47.0967 C.3       14 UNK        -0.1800 
     82 C          -0.0911  -27.0764  -49.1841 C.2       14 UNK         0.5000 
     83 O           0.0470  -28.1641  -49.7453 O.2       14 UNK        -0.5000 
     84 N          -0.2200  -25.9144  -49.8366 N.am      15 UNK        -0.5000 
     85 CA         -0.1992  -25.7776  -51.2947 C.3       15 UNK         0.1400 
     86 CB          0.2545  -24.3508  -51.6483 C.3       15 UNK        -0.1800 
     87 C          -1.5609  -26.0766  -51.9505 C.2       15 UNK         0.5000 
     88 O          -1.6255  -26.1671  -53.1765 O.2       15 UNK        -0.5000 
     89 N          -2.6233  -26.1677  -51.1349 N.am      16 UNK        -0.5000 
     90 CA         -4.0424  -26.2534  -51.5076 C.3       16 UNK         0.1400 
     91 CB         -4.3407  -27.5134  -52.3450 C.3       16 UNK        -0.1800 
     92 C          -4.5806  -24.9625  -52.1644 C.2       16 UNK         0.5000 
     93 O          -5.6814  -24.9623  -52.7193 O.2       16 UNK        -0.5000 
     94 N          -3.8255  -23.8609  -52.0399 N.am      17 UNK        -0.5000 
     95 CA         -4.1752  -22.5263  -52.5228 C.3       17 UNK         0.1400 
     96 CB         -2.9369  -21.6193  -52.4768 C.3       17 UNK        -0.1800 
     97 C          -5.3666  -21.8950  -51.7768 C.2       17 UNK         0.5000 
     98 O          -5.9374  -20.9300  -52.2798 O.2       17 UNK        -0.5000 
     99 N          -5.7651  -22.4719  -50.6329 N.am      18 UNK        -0.5000 
    100 CA        -7.0109  -22.1637  -49.9262 C.3       18 UNK         0.1400 
    101 CB        -7.0823  -22.9938  -48.6334 C.3       18 UNK        -0.1800 
    102 C         -8.2702  -22.4183  -50.7795 C.2       18 UNK         0.5000 
    103 O         -9.2418  -21.6720  -50.6579 O.2       18 UNK        -0.5000 
    104 N         -8.2273  -23.4535  -51.6318 N.am      19 UNK        -0.5000 
    105 CA        -9.3081  -23.7970  -52.5559 C.3       19 UNK         0.1400 
    106 CB        -9.2098  -25.2866  -52.9201 C.3       19 UNK        -0.1800 
    107 C         -9.2817  -22.9261  -53.8245 C.2       19 UNK         0.5000 
    108 O        -10.3426  -22.5760  -54.3426 O.2       19 UNK        -0.5000 
    109 N         -8.0737  -22.5974  -54.3032 N.am      20 UNK        -0.5000 
    110 CA        -7.8514  -21.7910  -55.5057 C.3       20 UNK         0.1400 
    111 CB        -6.4195  -22.0301  -56.0095 C.3       20 UNK        -0.1800 
    112 C         -8.0896  -20.2848  -55.2839 C.2       20 UNK         0.5000 
    113 O         -8.4770  -19.5984  -56.2298 O.2       20 UNK        -0.5000 
    114 N         -7.8426  -19.8217  -54.0495 N.am      21 UNK        -0.5000 
    115 CA        -7.7591  -18.4392  -53.5748 C.3       21 UNK         0.1400 
    116 CB        -9.0138  -17.6111  -53.9166 C.3       21 UNK        -0.1800 
    117 C         -6.4579  -17.7774  -54.0659 C.2       21 UNK         0.5000 
    118 O         -6.3051  -17.5180  -55.2611 O.2       21 UNK        -0.5000 
    119 N         -5.5326  -17.5305  -53.1304 N.am      22 UNK        -0.5000 
    120 CA        -4.2102  -16.9327  -53.3885 C.3       22 UNK         0.1400 
    121 C         -4.2133  -15.4268  -53.7948 C.2       22 UNK         0.5000 
    122 N         -5.3163  -14.7001  -53.6603 N.am      22 UNK        -0.7600 
    123 O         -3.1969  -14.9127  -54.2539 O.2       22 UNK        -0.5000 
    124 C124       -3.2165  -17.2171  -52.2308 C.3       23 UNK        -0.0398 
    125 S125       -3.7265  -16.5100  -50.6233 S.3       23 UNK        -0.2404 
    126 C126       -3.0480  -17.7291  -49.4531 C.3       23 UNK        -0.0205 
    127 H127        9.4400  -16.3122  -47.3262 H         1 UNK         0.0600 
    128 H128        8.4100  -17.7395  -47.4673 H         1 UNK         0.0600 
    129 H129        9.0285  -17.2512  -45.8871 H         1 UNK         0.0600 
    130 H130        6.2745  -17.1889  -47.7736 H         1 UNK         0.3000 
    131 H131        4.8874  -15.3331  -46.0788 H         1 UNK         0.0600 
    132 H132        3.8659  -17.4426  -47.0168 H         1 UNK         0.0800 
    133 H133        3.8963  -16.7309  -48.6077 H         1 UNK         0.0800 
    134 H134        0.8429  -14.6324  -48.7801 H         1 UNK         0.0800 
    135 H135        2.2390  -15.3354  -49.5488 H         1 UNK         0.0800 
    136 H136       -1.2500  -15.7647  -48.8609 H         1 UNK         0.1150 
    137 H137       -1.4747  -19.8650  -50.0741 H         1 UNK         0.1150 
    138 H138        2.3409  -17.9895  -49.6042 H         1 UNK         0.1150 
    139 H139        0.4643  -21.1846  -50.3252 H         1 UNK         0.0800 
    140 H140        1.7112  -20.2894  -51.1518 H         1 UNK         0.0800 
    141 H141        2.1937  -20.4420  -46.6105 H         1 UNK         0.0800 
    142 H142        0.7367  -19.9689  -47.4127 H         1 UNK         0.0800 
    143 H143        1.5731  -22.8915  -47.0164 H         1 UNK         0.0600 
    144 H144        0.5895  -21.1656  -45.0143 H         1 UNK         0.3000 
    145 H145       -1.1335  -23.5948  -43.0285 H         1 UNK         0.0600 
    146 H146        0.3899  -22.5377  -41.3581 H         1 UNK         0.0600 
    147 H147        1.2536  -23.6842  -42.3717 H         1 UNK         0.0600 
    148 H148        1.4321  -21.9600  -42.6582 H         1 UNK         0.0600 
    149 H149       -0.7440  -20.7334  -42.8916 H         1 UNK         0.3000 
    150 H150       -3.7798  -19.8498  -44.5331 H         1 UNK         0.0600 
    151 H151       -4.4777  -20.4465  -42.2087 H         1 UNK         0.0600 
    152 H152       -4.2002  -18.7198  -42.3694 H         1 UNK         0.0600 
    153 H153       -3.0006  -19.7357  -41.5691 H         1 UNK         0.0600 
    154 H154       -1.8038  -18.2830  -43.2003 H         1 UNK         0.3000 
    155 H155        0.3488  -17.8078  -46.0142 H         1 UNK         0.0600 
    156 H156       -0.2441  -15.4431  -45.5266 H         1 UNK         0.0600 
    157 H157       -1.6810  -15.9643  -44.6437 H         1 UNK         0.0600 
    158 H158       -1.5543  -16.2506  -46.3728 H         1 UNK         0.0600 
    159 H159        0.4946  -16.6351  -43.4706 H         1 UNK         0.3000 
    160 H160        1.3898  -18.3871  -41.3969 H         1 UNK         0.0600 
    161 H161        3.9539  -19.1789  -42.8705 H         1 UNK         0.0600 
    162 H162        2.8999  -20.2414  -41.9498 H         1 UNK         0.0600 
    163 H163        3.8121  -18.9933  -41.1228 H         1 UNK         0.0600 
    164 H164        2.2401  -16.3460  -41.2773 H         1 UNK         0.3000 
    165 H165        4.3948  -14.8611  -41.5942 H         1 UNK         0.0600 
    166 H166        4.0624  -13.8819  -44.4668 H         1 UNK         0.0600 
    167 H167        4.8895  -13.0144  -43.1771 H         1 UNK         0.0600 
    168 H168        5.5298  -14.5426  -43.7574 H         1 UNK         0.0600 
    169 H169        2.2183  -13.3837  -42.8943 H         1 UNK         0.3000 
    170 H170        0.0313  -13.5082  -40.1788 H         1 UNK         0.0600 
    171 H171        1.6737  -12.0583  -38.9787 H         1 UNK         0.0600 
    172 H172        2.0025  -11.1752  -40.4647 H         1 UNK         0.0600 
    173 H173        0.4058  -11.0951  -39.7184 H         1 UNK         0.0600 
    174 H174        0.3820  -11.5571  -42.2634 H         1 UNK         0.3000 
    175 H175       -1.0734  -13.3684  -44.8989 H         1 UNK         0.0600 
    176 H176       -2.3965  -11.1702  -43.2260 H         1 UNK         0.0600 
    177 H177       -2.7789  -11.5780  -44.8995 H         1 UNK         0.0600 
    178 H178       -3.1175  -12.7273  -43.6160 H         1 UNK         0.0600 
    179 H179       -0.4539  -10.6278  -44.7077 H         1 UNK         0.3000 
    180 H180        1.3785   -9.8984  -46.0029 H         1 UNK         0.0600 
    181 H181        3.1782  -10.4694  -43.5733 H         1 UNK         0.0600 
    182 H182        1.7424   -9.4520  -43.5738 H         1 UNK         0.0600 
    183 H183        3.1565   -8.9647  -44.4923 H         1 UNK         0.0600 
    184 H184        3.9937  -11.2300  -45.7455 H         1 UNK         0.3000 
    185 H185        4.0983  -12.1555  -49.2099 H         1 UNK         0.0600 
    186 H186        6.4131  -11.5785  -48.5648 H         1 UNK         0.0600 
    187 H187        5.4260  -10.1300  -48.4708 H         1 UNK         0.0600 
    188 H188        5.8839  -10.9786  -46.9974 H         1 UNK         0.0600 
    189 H189        3.9094  -13.3740  -46.6389 H         1 UNK         0.3000 
    190 H190       -1.5245  -21.0568  -46.8646 H         1 UNK         0.3000 
    191 H191       -2.6203  -21.9026  -49.2829 H         1 UNK         0.0600 
    192 H192       -4.7266  -21.0672  -48.3794 H         1 UNK         0.0600 
    193 H193       -3.4542  -20.0317  -47.7791 H         1 UNK         0.0600 
    194 H194       -4.1616  -21.2426  -46.7210 H         1 UNK         0.0600 
    195 H195       -2.7729  -23.5061  -46.0921 H         1 UNK         0.3000 
    196 H196       -4.4836  -25.6603  -46.9239 H         1 UNK         0.0600 
    197 H197       -3.7544  -26.6897  -44.7705 H         1 UNK         0.0600 
    198 H198       -4.2346  -25.0135  -44.5485 H         1 UNK         0.0600 
    199 H199       -2.5272  -25.4439  -44.5739 H         1 UNK         0.0600 
    200 H200       -0.9094  -25.3603  -46.5778 H         1 UNK         0.3000 
    201 H201       -0.2935  -28.0294  -47.2805 H         1 UNK         0.0600 
    202 H202        1.2458  -26.5816  -46.0081 H         1 UNK         0.0600 
    203 H203        1.4272  -25.4973  -47.3854 H         1 UNK         0.0600 
    204 H204        2.0430  -27.1444  -47.4691 H         1 UNK         0.0600 
    205 H205       -0.3014  -25.0500  -49.3021 H         1 UNK         0.3000 
    206 H206        0.5289  -26.4781  -51.7090 H         1 UNK         0.0600 
    207 H207        1.2179  -24.1177  -51.1940 H         1 UNK         0.0600 
    208 H208        0.3663  -24.2304  -52.7265 H         1 UNK         0.0600 
    209 H209       -0.4634  -23.6032  -51.3090 H         1 UNK         0.0600 
    210 H210       -2.4501  -26.0752  -50.1428 H         1 UNK         0.3000 
    211 H211       -4.5854  -26.3535  -50.5667 H         1 UNK         0.0600 
    212 H212       -3.9150  -27.4491  -53.3464 H         1 UNK         0.0600 
    213 H213       -5.4156  -27.6577  -52.4603 H         1 UNK         0.0600 
    214 H214       -3.9436  -28.4083  -51.8659 H         1 UNK         0.0600 
    215 H215       -2.9681  -23.9457  -51.5154 H         1 UNK         0.3000 
    216 H216       -4.4727  -22.6287  -53.5671 H         1 UNK         0.0600 
    217 H217       -3.1622  -20.6332  -52.8843 H         1 UNK         0.0600 
    218 H218       -2.1229  -22.0349  -53.0712 H         1 UNK         0.0600 
    219 H219       -2.5703  -21.4793  -51.4627 H         1 UNK         0.0600 
    220 H220       -5.2077  -23.2327  -50.2591 H         1 UNK         0.3000 
    221 H221       -6.9960  -21.1046  -49.6613 H         1 UNK         0.0600 
    222 H222       -7.0330  -24.0637  -48.8403 H         1 UNK         0.0600 
    223 H223       -6.2701  -22.7512  -47.9506 H         1 UNK         0.0600 
    224 H224       -8.0145  -22.8058  -48.0990 H         1 UNK         0.0600 
    225 H225       -7.3823  -24.0084  -51.6953 H         1 UNK         0.3000 
    226 H226      -10.2670  -23.6365  -52.0581 H         1 UNK         0.0600 
    227 H227       -9.2677  -25.9144  -52.0309 H         1 UNK         0.0600 
    228 H228      -10.0271  -25.5809  -53.5797 H         1 UNK         0.0600 
    229 H229       -8.2756  -25.5176  -53.4332 H         1 UNK         0.0600 
    230 H230       -7.2561  -22.9414  -53.8220 H         1 UNK         0.3000 
    231 H231       -8.5432  -22.1293  -56.2803 H         1 UNK         0.0600 
    232 H232       -6.2567  -21.5281  -56.9641 H         1 UNK         0.0600 
    233 H233       -6.2220  -23.0913  -56.1623 H         1 UNK         0.0600 
    234 H234       -5.6781  -21.6434  -55.3103 H         1 UNK         0.0600 
    235 H235       -7.4497  -20.4882  -53.3917 H         1 UNK         0.3000 
    236 H236       -7.7132  -18.5118  -52.4869 H         1 UNK         0.0600 
    237 H237       -9.9226  -18.1223  -53.5989 H         1 UNK         0.0600 
    238 H238       -8.9870  -16.6470  -53.4081 H         1 UNK         0.0600 
    239 H239       -9.0971  -17.4076  -54.9842 H         1 UNK         0.0600 
    240 H240       -5.7234  -17.7702  -52.1683 H         1 UNK         0.3000 
    241 H241       -3.8111  -17.4517  -54.2623 H         1 UNK         0.0600 
    242 H242       -6.1552  -15.1089  -53.2822 H         1 UNK         0.3800 
    243 H243       -5.3083  -13.7296  -53.9320 H         1 UNK         0.3800 
    244 H244       -3.0998  -18.2954  -52.1191 H         1 UNK         0.0800 
    245 H245       -2.2214  -16.8402  -52.4738 H         1 UNK         0.0800 
    246 H246       -3.4894  -18.7013  -49.6752 H         1 UNK         0.0800 
    247 H247       -3.3638  -17.4684  -48.4421 H         1 UNK         0.0800 
@<TRIPOS>BOND
     1    1    2 1    
     2    1  127 1    
     3    1  128 1    
     4    1  129 1    
     5    2    3 2    
     6    2    4 am   BACKBONE|DICT|INTERRES
     7    4    5 1    
     8    4  130 1    
     9    5    6 1    
    10    5   65 1    
    11    5  131 1    
    12    6    7 1    
    13    6  132 1    
    14    6  133 1    
    15    7    8 1    
    16    8    9 1    
    17    8  134 1    
    18    8  135 1    
    19    9   10 ar   
    20    9   14 ar   
    21   10   11 ar   
    22   10  136 1    
    23   11   12 ar   
    24   11  126 1    
    25   12   13 ar   
    26   12  137 1    
    27   13   14 ar   
    28   13   15 1    
    29   14  138 1    
    30   15   16 1    
    31   15  139 1    
    32   15  140 1    
    33   16   17 1    
    34   17   18 1    
    35   17  141 1    
    36   17  142 1    
    37   18   19 1    
    38   18   67 1    
    39   18  143 1    
    40   19   20 am   BACKBONE|DICT|INTERRES
    41   19  144 1    
    42   20   21 2    
    43   20   22 1    
    44   22   23 1    
    45   22   24 1    
    46   22  145 1    
    47   23  146 1    
    48   23  147 1    
    49   23  148 1    
    50   24   25 am   BACKBONE|DICT|INTERRES
    51   24  149 1    
    52   25   26 2    
    53   25   27 1    
    54   27   28 1    
    55   27   29 1    
    56   27  150 1    
    57   28  151 1    
    58   28  152 1    
    59   28  153 1    
    60   29   30 am   BACKBONE|DICT|INTERRES
    61   29  154 1    
    62   30   31 2    
    63   30   32 1    
    64   32   33 1    
    65   32   34 1    
    66   32  155 1    
    67   33  156 1    
    68   33  157 1    
    69   33  158 1    
    70   34   35 am   BACKBONE|DICT|INTERRES
    71   34  159 1    
    72   35   36 2    
    73   35   37 1    
    74   37   38 1    
    75   37   39 1    
    76   37  160 1    
    77   38  161 1    
    78   38  162 1    
    79   38  163 1    
    80   39   40 am   BACKBONE|DICT|INTERRES
    81   39  164 1    
    82   40   41 2    
    83   40   42 1    
    84   42   43 1    
    85   42   44 1    
    86   42  165 1    
    87   43  166 1    
    88   43  167 1    
    89   43  168 1    
    90   44   45 am   BACKBONE|DICT|INTERRES
    91   44  169 1    
    92   45   46 2    
    93   45   47 1    
    94   47   48 1    
    95   47   49 1    
    96   47  170 1    
    97   48  171 1    
    98   48  172 1    
    99   48  173 1    
   100   49   50 am   BACKBONE|DICT|INTERRES
   101   49  174 1    
   102   50   51 2    
   103   50   52 1    
   104   52   53 1    
   105   52   54 1    
   106   52  175 1    
   107   53  176 1    
   108   53  177 1    
   109   53  178 1    
   110   54   55 am   BACKBONE|DICT|INTERRES
   111   54  179 1    
   112   55   56 2    
   113   55   57 1    
   114   57   58 1    
   115   57   59 1    
   116   57  180 1    
   117   58  181 1    
   118   58  182 1    
   119   58  183 1    
   120   59   60 am   BACKBONE|DICT|INTERRES
   121   59  184 1    
   122   60   61 2    
   123   60   62 1    
   124   62   63 1    
   125   62   64 1    
   126   62  185 1    
   127   63  186 1    
   128   63  187 1    
   129   63  188 1    
   130   64   65 am   BACKBONE|DICT|INTERRES
   131   64  189 1    
   132   65   66 2    
   133   67   68 2    
   134   67   69 am   BACKBONE|DICT|INTERRES
   135   69   70 1    
   136   69  190 1    
   137   70   71 1    
   138   70   72 1    
   139   70  191 1    
   140   71  192 1    
   141   71  193 1    
   142   71  194 1    
   143   72   73 2    
   144   72   74 am   BACKBONE|DICT|INTERRES
   145   74   75 1    
   146   74  195 1    
   147   75   76 1    
   148   75   77 1    
   149   75  196 1    
   150   76  197 1    
   151   76  198 1    
   152   76  199 1    
   153   77   78 2    
   154   77   79 am   BACKBONE|DICT|INTERRES
   155   79   80 1    
   156   79  200 1    
   157   80   81 1    
   158   80   82 1    
   159   80  201 1    
   160   81  202 1    
   161   81  203 1    
   162   81  204 1    
   163   82   83 2    
   164   82   84 am   BACKBONE|DICT|INTERRES
   165   84   85 1    
   166   84  205 1    
   167   85   86 1    
   168   85   87 1    
   169   85  206 1    
   170   86  207 1    
   171   86  208 1    
   172   86  209 1    
   173   87   88 2    
   174   87   89 am   BACKBONE|DICT|INTERRES
   175   89   90 1    
   176   89  210 1    
   177   90   91 1    
   178   90   92 1    
   179   90  211 1    
   180   91  212 1    
   181   91  213 1    
   182   91  214 1    
   183   92   93 2    
   184   92   94 am   BACKBONE|DICT|INTERRES
   185   94   95 1    
   186   94  215 1    
   187   95   96 1    
   188   95   97 1    
   189   95  216 1    
   190   96  217 1    
   191   96  218 1    
   192   96  219 1    
   193   97   98 2    
   194   97   99 am   BACKBONE|DICT|INTERRES
   195   99  100 1    
   196   99  220 1    
   197  100  101 1    
   198  100  102 1    
   199  100  221 1    
   200  101  222 1    
   201  101  223 1    
   202  101  224 1    
   203  102  103 2    
   204  102  104 am   BACKBONE|DICT|INTERRES
   205  104  105 1    
   206  104  225 1    
   207  105  106 1    
   208  105  107 1    
   209  105  226 1    
   210  106  227 1    
   211  106  228 1    
   212  106  229 1    
   213  107  108 2    
   214  107  109 am   BACKBONE|DICT|INTERRES
   215  109  110 1    
   216  109  230 1    
   217  110  111 1    
   218  110  112 1    
   219  110  231 1    
   220  111  232 1    
   221  111  233 1    
   222  111  234 1    
   223  112  113 2    
   224  112  114 am   BACKBONE|DICT|INTERRES
   225  114  115 1    
   226  114  235 1    
   227  115  116 1    
   228  115  117 1    
   229  115  236 1    
   230  116  237 1    
   231  116  238 1    
   232  116  239 1    
   233  117  118 2    
   234  117  119 am   BACKBONE|DICT|INTERRES
   235  119  120 1    
   236  119  240 1    
   237  120  121 1    
   238  120  124 1    
   239  120  241 1    
   240  121  122 am   BACKBONE|DICT|INTERRES
   241  121  123 2    
   242  122  242 1    
   243  122  243 1    
   244  124  125 1    
   245  124  244 1    
   246  124  245 1    
   247  125  126 1    
   248  126  246 1    
   249  126  247 1    
@<TRIPOS>SUBSTRUCTURE
     1 UNK         1 GROUP             0       ****    0 ROOT    
