@<TRIPOS>MOLECULE
3R540
247   249    1
SMALL
USER_CHARGES


@<TRIPOS>ATOM
      1 CA          5.6179   -9.6261  -50.0347 C.3       0 UNK        -0.1800 
      2 C           4.6787  -10.6661  -49.4392 C.2       0 UNK         0.5000 
      3 O           3.6024  -10.3091  -48.9596 O.2       0 UNK        -0.5000 
      4 N           5.0838  -11.9436  -49.4799 N.am      1 UNK        -0.5000 
      5 CA          4.3845  -13.1100  -48.9229 C.3       1 UNK         0.1400 
      6 C6          2.9402  -13.2687  -49.4812 C.3       23 UNK        -0.0398 
      7 S7          2.2905  -14.9739  -49.4098 S.3       23 UNK        -0.2404 
      8 C8          2.9296  -15.6842  -50.9543 C.3       23 UNK        -0.0205 
      9 C9          2.2689  -17.0237  -51.2324 C.ar      23 UNK        -0.0193 
     10 C10         1.1678  -17.0923  -52.0901 C.ar      23 UNK        -0.1150 
     11 C11         0.5420  -18.3148  -52.3418 C.ar      23 UNK        -0.0193 
     12 C12         1.0128  -19.4705  -51.7138 C.ar      23 UNK        -0.1150 
     13 C13         2.1195  -19.4208  -50.8610 C.ar      23 UNK        -0.0193 
     14 C14         2.7494  -18.1919  -50.6312 C.ar      23 UNK        -0.1150 
     15 C15         2.6428  -20.7094  -50.2336 C.3       23 UNK        -0.0205 
     16 S16         2.9739  -20.5979  -48.4423 S.3       23 UNK        -0.2404 
     17 C17         1.3572  -20.1123  -47.7542 C.3       23 UNK        -0.0398 
     18 CA          0.4507  -21.3222  -47.4085 C.3       11 UNK         0.1400 
     19 N          -0.3010  -21.1123  -46.1670 N.am      11 UNK        -0.5000 
     20 C          -1.1005  -22.0152  -45.5810 C.2       10 UNK         0.5000 
     21 O          -1.2354  -23.1703  -45.9803 O.2       10 UNK        -0.5000 
     22 CA         -1.9392  -21.5265  -44.3874 C.3       10 UNK         0.1400 
     23 CB         -1.1510  -21.6246  -43.0728 C.3       10 UNK        -0.1800 
     24 N          -2.4125  -20.1566  -44.5918 N.am      10 UNK        -0.5000 
     25 C          -3.3571  -19.8192  -45.4815 C.2       9 UNK         0.5000 
     26 O          -3.9809  -20.6401  -46.1534 O.2       9 UNK        -0.5000 
     27 CA         -3.6120  -18.3159  -45.6932 C.3       9 UNK         0.1400 
     28 CB         -4.6128  -17.7838  -44.6573 C.3       9 UNK        -0.1800 
     29 N          -2.3782  -17.5288  -45.6398 N.am      9 UNK        -0.5000 
     30 C          -1.4177  -17.5775  -46.5767 C.2       8 UNK         0.5000 
     31 O          -1.5005  -18.2648  -47.5936 O.2       8 UNK        -0.5000 
     32 CA         -0.1274  -16.7709  -46.3190 C.3       8 UNK         0.1400 
     33 CB         -0.2726  -15.3470  -46.8741 C.3       8 UNK        -0.1800 
     34 N           0.2441  -16.6901  -44.9065 N.am      8 UNK        -0.5000 
     35 C           0.4109  -17.7205  -44.0684 C.2       7 UNK         0.5000 
     36 O           0.3943  -18.8951  -44.4339 O.2       7 UNK        -0.5000 
     37 CA          0.5363  -17.3954  -42.5649 C.3       7 UNK         0.1400 
     38 CB          1.9906  -17.4991  -42.0875 C.3       7 UNK        -0.1800 
     39 N          -0.0057  -16.0887  -42.1747 N.am      7 UNK        -0.5000 
     40 C          -1.2794  -15.6941  -42.3314 C.2       6 UNK         0.5000 
     41 O          -2.1406  -16.3964  -42.8647 O.2       6 UNK        -0.5000 
     42 CA         -1.6414  -14.2761  -41.8350 C.3       6 UNK         0.1400 
     43 CB         -3.1524  -14.0976  -41.5806 C.3       6 UNK        -0.1800 
     44 N          -0.8617  -13.8503  -40.6682 N.am      6 UNK        -0.5000 
     45 C          -0.7927  -14.4534  -39.4694 C.2       5 UNK         0.5000 
     46 O          -1.4815  -15.4252  -39.1549 O.2       5 UNK        -0.5000 
     47 CA          0.2227  -13.8816  -38.4513 C.3       5 UNK         0.1400 
     48 CB          0.8553  -14.9847  -37.5768 C.3       5 UNK        -0.1800 
     49 N           1.2698  -13.0400  -39.0485 N.am      5 UNK        -0.5000 
     50 C           2.1676  -13.3993  -39.9772 C.2       4 UNK         0.5000 
     51 O           2.2469  -14.5274  -40.4681 O.2       4 UNK        -0.5000 
     52 CA          3.0941  -12.2812  -40.4881 C.3       4 UNK         0.1400 
     53 CB          4.5664  -12.6175  -40.2054 C.3       4 UNK        -0.1800 
     54 N           2.9216  -12.0536  -41.9226 N.am      4 UNK        -0.5000 
     55 C           1.7746  -11.7254  -42.5360 C.2       3 UNK         0.5000 
     56 O           0.7132  -11.5204  -41.9440 O.2       3 UNK        -0.5000 
     57 CA          1.8159  -11.6290  -44.0742 C.3       3 UNK         0.1400 
     58 CB          2.0641  -10.1805  -44.5200 C.3       3 UNK        -0.1800 
     59 N           2.8278  -12.4958  -44.6836 N.am      3 UNK        -0.5000 
     60 C           2.7928  -13.8334  -44.6684 C.2       2 UNK         0.5000 
     61 O           1.8765  -14.4751  -44.1545 O.2       2 UNK        -0.5000 
     62 CA          3.9621  -14.5544  -45.3702 C.3       2 UNK         0.1400 
     63 CB          3.9255  -16.0820  -45.1925 C.3       2 UNK        -0.1800 
     64 N           3.9815  -14.2640  -46.8013 N.am      2 UNK        -0.5000 
     65 C           4.4565  -13.1542  -47.3759 C.2       1 UNK         0.5000 
     66 O           4.9542  -12.2271  -46.7297 O.2       1 UNK        -0.5000 
     67 C          -0.4863  -21.6830  -48.5808 C.2       11 UNK         0.5000 
     68 O          -0.2438  -22.6707  -49.2732 O.2       11 UNK        -0.5000 
     69 N          -1.5732  -20.9151  -48.7375 N.am      12 UNK        -0.5000 
     70 CA         -2.6484  -21.1761  -49.6914 C.3       12 UNK         0.1400 
     71 CB         -3.6752  -20.0338  -49.6265 C.3       12 UNK        -0.1800 
     72 C          -3.3290  -22.5363  -49.4502 C.2       12 UNK         0.5000 
     73 O          -3.4369  -23.3405  -50.3759 O.2       12 UNK        -0.5000 
     74 N          -3.7728  -22.7616  -48.2065 N.am      13 UNK        -0.5000 
     75 CA         -4.5457  -23.9321  -47.8007 C.3       13 UNK         0.1400 
     76 CB         -5.1174  -23.7016  -46.3937 C.3       13 UNK        -0.1800 
     77 C          -3.7704  -25.2583  -47.8510 C.2       13 UNK         0.5000 
     78 O          -4.3200  -26.2472  -48.3359 O.2       13 UNK        -0.5000 
     79 N          -2.5411  -25.2728  -47.3206 N.am      14 UNK        -0.5000 
     80 CA         -1.7584  -26.4909  -47.1225 C.3       14 UNK         0.1400 
     81 CB         -1.0992  -26.4641  -45.7328 C.3       14 UNK        -0.1800 
     82 C          -0.7093  -26.6859  -48.2239 C.2       14 UNK         0.5000 
     83 O          -0.7209  -27.7247  -48.8843 O.2       14 UNK        -0.5000 
     84 N           0.1918  -25.7071  -48.3920 N.am      15 UNK        -0.5000 
     85 CA          1.3547  -25.8231  -49.2779 C.3       15 UNK         0.1400 
     86 CB          2.4107  -24.7661  -48.9146 C.3       15 UNK        -0.1800 
     87 C           0.9735  -25.7566  -50.7659 C.2       15 UNK         0.5000 
     88 O           1.4156  -26.6019  -51.5450 O.2       15 UNK        -0.5000 
     89 N           0.1344  -24.7772  -51.1238 N.am      16 UNK        -0.5000 
     90 CA         -0.4245  -24.6180  -52.4688 C.3       16 UNK         0.1400 
     91 CB         -0.6231  -23.1260  -52.7499 C.3       16 UNK        -0.1800 
     92 C          -1.7253  -25.4246  -52.6751 C.2       16 UNK         0.5000 
     93 O          -2.2010  -25.5203  -53.8070 O.2       16 UNK        -0.5000 
     94 N          -2.2411  -26.0219  -51.5909 N.am      17 UNK        -0.5000 
     95 CA         -3.2937  -27.0399  -51.5323 C.3       17 UNK         0.1400 
     96 CB         -2.8231  -28.3290  -52.2394 C.3       17 UNK        -0.1800 
     97 C          -4.6961  -26.5877  -51.9983 C.2       17 UNK         0.5000 
     98 O          -5.4998  -27.4398  -52.3840 O.2       17 UNK        -0.5000 
     99 N          -4.9975  -25.2844  -51.9361 N.am      18 UNK        -0.5000 
    100 CA        -6.3016  -24.7245  -52.2888 C.3       18 UNK         0.1400 
    101 CB        -6.5099  -24.7217  -53.8166 C.3       18 UNK        -0.1800 
    102 C         -6.3991  -23.3121  -51.7070 C.2       18 UNK         0.5000 
    103 O         -5.8063  -22.3892  -52.2673 O.2       18 UNK        -0.5000 
    104 N         -7.1176  -23.1684  -50.5862 N.am      19 UNK        -0.5000 
    105 CA        -7.2179  -21.9298  -49.8081 C.3       19 UNK         0.1400 
    106 CB        -8.0244  -22.2019  -48.5288 C.3       19 UNK        -0.1800 
    107 C         -7.8274  -20.7447  -50.5794 C.2       19 UNK         0.5000 
    108 O         -7.3522  -19.6185  -50.4361 O.2       19 UNK        -0.5000 
    109 N         -8.8673  -21.0209  -51.3772 N.am      20 UNK        -0.5000 
    110 CA        -9.6020  -20.0121  -52.1424 C.3       20 UNK         0.1400 
    111 CB       -10.9864  -20.5693  -52.5085 C.3       20 UNK        -0.1800 
    112 C         -8.8557  -19.5550  -53.4085 C.2       20 UNK         0.5000 
    113 O         -8.9409  -18.3816  -53.7729 O.2       20 UNK        -0.5000 
    114 N         -8.1553  -20.4903  -54.0624 N.am      21 UNK        -0.5000 
    115 CA        -7.4477  -20.2589  -55.3239 C.3       21 UNK         0.1400 
    116 CB        -7.4677  -21.5611  -56.1399 C.3       21 UNK        -0.1800 
    117 C         -5.9962  -19.7862  -55.1256 C.2       21 UNK         0.5000 
    118 O         -5.4054  -19.2528  -56.0654 O.2       21 UNK        -0.5000 
    119 N         -5.4422  -20.0162  -53.9291 N.am      22 UNK        -0.5000 
    120 CA        -4.0093  -19.9418  -53.6184 C.3       22 UNK         0.1400 
    121 C         -3.2232  -21.0822  -54.3270 C.2       22 UNK         0.5000 
    122 N         -3.6250  -22.3261  -54.1020 N.am      22 UNK        -0.7600 
    123 O         -2.2865  -20.8590  -55.0884 O.2       22 UNK        -0.5000 
    124 C124       -3.4026  -18.5174  -53.7793 C.3       23 UNK        -0.0398 
    125 S125       -2.2070  -18.1299  -52.4559 S.3       23 UNK        -0.2404 
    126 C126       -0.6268  -18.3940  -53.3091 C.3       23 UNK        -0.0205 
    127 H127        6.5257  -10.0791  -50.4338 H         1 UNK         0.0600 
    128 H128        5.9063   -8.9020  -49.2726 H         1 UNK         0.0600 
    129 H129        5.1209   -9.0912  -50.8441 H         1 UNK         0.0600 
    130 H130        5.9938  -12.1450  -49.8702 H         1 UNK         0.3000 
    131 H131        4.9688  -13.9634  -49.2703 H         1 UNK         0.0600 
    132 H132        2.9029  -12.9421  -50.5213 H         1 UNK         0.0800 
    133 H133        2.2463  -12.6172  -48.9473 H         1 UNK         0.0800 
    134 H134        4.0114  -15.8062  -50.8835 H         1 UNK         0.0800 
    135 H135        2.7465  -14.9970  -51.7819 H         1 UNK         0.0800 
    136 H136        0.7960  -16.1938  -52.5624 H         1 UNK         0.1150 
    137 H137        0.5201  -20.4124  -51.9025 H         1 UNK         0.1150 
    138 H138        3.6071  -18.1420  -49.9752 H         1 UNK         0.1150 
    139 H139        1.9508  -21.5336  -50.4105 H         1 UNK         0.0800 
    140 H140        3.5702  -20.9830  -50.7380 H         1 UNK         0.0800 
    141 H141        0.8632  -19.3920  -48.4088 H         1 UNK         0.0800 
    142 H142        1.5900  -19.5557  -46.8457 H         1 UNK         0.0800 
    143 H143        1.0845  -22.1919  -47.2231 H         1 UNK         0.0600 
    144 H144       -0.2021  -20.2066  -45.7183 H         1 UNK         0.3000 
    145 H145       -2.8102  -22.1793  -44.3025 H         1 UNK         0.0600 
    146 H146       -1.7542  -21.2967  -42.2261 H         1 UNK         0.0600 
    147 H147       -0.2433  -21.0223  -43.0913 H         1 UNK         0.0600 
    148 H148       -0.8522  -22.6555  -42.8787 H         1 UNK         0.0600 
    149 H149       -1.9048  -19.4227  -44.1188 H         1 UNK         0.3000 
    150 H150       -4.0524  -18.1889  -46.6845 H         1 UNK         0.0600 
    151 H151       -5.5642  -18.3121  -44.7294 H         1 UNK         0.0600 
    152 H152       -4.8157  -16.7239  -44.8116 H         1 UNK         0.0600 
    153 H153       -4.2453  -17.9097  -43.6383 H         1 UNK         0.0600 
    154 H154       -2.2269  -16.9788  -44.7996 H         1 UNK         0.3000 
    155 H155        0.6889  -17.2639  -46.8490 H         1 UNK         0.0600 
    156 H156       -0.5273  -15.3653  -47.9348 H         1 UNK         0.0600 
    157 H157        0.6571  -14.7871  -46.7741 H         1 UNK         0.0600 
    158 H158       -1.0550  -14.7910  -46.3561 H         1 UNK         0.0600 
    159 H159        0.4010  -15.7610  -44.5296 H         1 UNK         0.3000 
    160 H160       -0.0426  -18.1560  -42.0376 H         1 UNK         0.0600 
    161 H161        2.5820  -16.6517  -42.4308 H         1 UNK         0.0600 
    162 H162        2.4671  -18.4114  -42.4487 H         1 UNK         0.0600 
    163 H163        2.0422  -17.5126  -40.9986 H         1 UNK         0.0600 
    164 H164        0.6520  -15.4473  -41.7461 H         1 UNK         0.3000 
    165 H165       -1.3629  -13.5993  -42.6440 H         1 UNK         0.0600 
    166 H166       -3.3791  -13.0852  -41.2464 H         1 UNK         0.0600 
    167 H167       -3.7262  -14.2731  -42.4914 H         1 UNK         0.0600 
    168 H168       -3.5210  -14.7917  -40.8248 H         1 UNK         0.0600 
    169 H169       -0.2540  -13.0544  -40.8309 H         1 UNK         0.3000 
    170 H170       -0.3517  -13.2285  -37.7930 H         1 UNK         0.0600 
    171 H171        1.3859  -15.7233  -38.1785 H         1 UNK         0.0600 
    172 H172        1.5620  -14.5645  -36.8612 H         1 UNK         0.0600 
    173 H173        0.0952  -15.5166  -37.0036 H         1 UNK         0.0600 
    174 H174        1.2656  -12.0761  -38.7437 H         1 UNK         0.3000 
    175 H175        2.8511  -11.3499  -39.9725 H         1 UNK         0.0600 
    176 H176        4.8812  -13.5209  -40.7297 H         1 UNK         0.0600 
    177 H177        5.2240  -11.8041  -40.5129 H         1 UNK         0.0600 
    178 H178        4.7307  -12.7826  -39.1398 H         1 UNK         0.0600 
    179 H179        3.7283  -12.2275  -42.5025 H         1 UNK         0.3000 
    180 H180        0.8378  -11.9391  -44.4481 H         1 UNK         0.0600 
    181 H181        2.0221  -10.0897  -45.6058 H         1 UNK         0.0600 
    182 H182        3.0394   -9.8199  -44.1909 H         1 UNK         0.0600 
    183 H183        1.3087   -9.5098  -44.1084 H         1 UNK         0.0600 
    184 H184        3.5910  -12.0459  -45.1779 H         1 UNK         0.3000 
    185 H185        4.8887  -14.1911  -44.9210 H         1 UNK         0.0600 
    186 H186        3.0048  -16.5164  -45.5825 H         1 UNK         0.0600 
    187 H187        4.7604  -16.5578  -45.7071 H         1 UNK         0.0600 
    188 H188        4.0066  -16.3525  -44.1410 H         1 UNK         0.0600 
    189 H189        3.5464  -14.9552  -47.3980 H         1 UNK         0.3000 
    190 H190       -1.6691  -20.0811  -48.1644 H         1 UNK         0.3000 
    191 H191       -2.2135  -21.1785  -50.6911 H         1 UNK         0.0600 
    192 H192       -4.1487  -19.9617  -48.6489 H         1 UNK         0.0600 
    193 H193       -4.4709  -20.1770  -50.3567 H         1 UNK         0.0600 
    194 H194       -3.2088  -19.0713  -49.8338 H         1 UNK         0.0600 
    195 H195       -3.6550  -22.0355  -47.5057 H         1 UNK         0.3000 
    196 H196       -5.3843  -24.0254  -48.4921 H         1 UNK         0.0600 
    197 H197       -5.7349  -22.8042  -46.3583 H         1 UNK         0.0600 
    198 H198       -4.3253  -23.5887  -45.6530 H         1 UNK         0.0600 
    199 H199       -5.7424  -24.5395  -46.0825 H         1 UNK         0.0600 
    200 H200       -2.1502  -24.4146  -46.9354 H         1 UNK         0.3000 
    201 H201       -2.4168  -27.3623  -47.1407 H         1 UNK         0.0600 
    202 H202       -1.8465  -26.3587  -44.9462 H         1 UNK         0.0600 
    203 H203       -0.3886  -25.6441  -45.6282 H         1 UNK         0.0600 
    204 H204       -0.5563  -27.3908  -45.5430 H         1 UNK         0.0600 
    205 H205        0.1038  -24.8556  -47.8556 H         1 UNK         0.3000 
    206 H206        1.8074  -26.8017  -49.1028 H         1 UNK         0.0600 
    207 H207        3.3118  -24.8993  -49.5143 H         1 UNK         0.0600 
    208 H208        2.0578  -23.7512  -49.0874 H         1 UNK         0.0600 
    209 H209        2.7041  -24.8444  -47.8677 H         1 UNK         0.0600 
    210 H210       -0.1407  -24.0870  -50.4258 H         1 UNK         0.3000 
    211 H211        0.2976  -24.9896  -53.1987 H         1 UNK         0.0600 
    212 H212       -1.4147  -22.7043  -52.1342 H         1 UNK         0.0600 
    213 H213       -0.8877  -22.9634  -53.7943 H         1 UNK         0.0600 
    214 H214        0.2931  -22.5687  -52.5608 H         1 UNK         0.0600 
    215 H215       -1.7832  -25.8267  -50.7129 H         1 UNK         0.3000 
    216 H216       -3.3997  -27.2882  -50.4775 H         1 UNK         0.0600 
    217 H217       -3.5145  -29.1530  -52.0598 H         1 UNK         0.0600 
    218 H218       -1.8465  -28.6447  -51.8713 H         1 UNK         0.0600 
    219 H219       -2.7483  -28.1933  -53.3187 H         1 UNK         0.0600 
    220 H220       -4.3176  -24.6294  -51.5537 H         1 UNK         0.3000 
    221 H221       -7.0845  -25.3366  -51.8362 H         1 UNK         0.0600 
    222 H222       -5.7014  -24.2081  -54.3362 H         1 UNK         0.0600 
    223 H223       -6.5642  -25.7350  -54.2137 H         1 UNK         0.0600 
    224 H224       -7.4437  -24.2249  -54.0819 H         1 UNK         0.0600 
    225 H225       -7.5798  -23.9778  -50.1980 H         1 UNK         0.3000 
    226 H226       -6.2076  -21.6446  -49.5133 H         1 UNK         0.0600 
    227 H227       -7.5889  -23.0121  -47.9457 H         1 UNK         0.0600 
    228 H228       -8.0483  -21.3189  -47.8887 H         1 UNK         0.0600 
    229 H229       -9.0568  -22.4730  -48.7531 H         1 UNK         0.0600 
    230 H230       -9.1973  -21.9732  -51.4328 H         1 UNK         0.3000 
    231 H231       -9.7502  -19.1339  -51.5098 H         1 UNK         0.0600 
    232 H232      -11.5695  -19.8327  -53.0629 H         1 UNK         0.0600 
    233 H233      -11.5562  -20.8270  -51.6155 H         1 UNK         0.0600 
    234 H234      -10.9116  -21.4631  -53.1293 H         1 UNK         0.0600 
    235 H235       -8.1214  -21.4245  -53.6831 H         1 UNK         0.3000 
    236 H236       -7.9701  -19.4924  -55.9005 H         1 UNK         0.0600 
    237 H237       -6.9166  -22.3572  -55.6390 H         1 UNK         0.0600 
    238 H238       -8.4871  -21.9089  -56.3078 H         1 UNK         0.0600 
    239 H239       -7.0097  -21.4146  -57.1190 H         1 UNK         0.0600 
    240 H240       -5.9949  -20.5141  -53.2426 H         1 UNK         0.3000 
    241 H241       -3.9616  -20.1958  -52.5610 H         1 UNK         0.0600 
    242 H242       -3.1542  -23.1003  -54.5424 H         1 UNK         0.3800 
    243 H243       -4.3998  -22.4914  -53.4651 H         1 UNK         0.3800 
    244 H244       -2.9587  -18.3671  -54.7646 H         1 UNK         0.0800 
    245 H245       -4.1920  -17.7689  -53.7013 H         1 UNK         0.0800 
    246 H246       -0.5128  -17.6529  -54.1016 H         1 UNK         0.0800 
    247 H247       -0.6271  -19.3690  -53.7959 H         1 UNK         0.0800 
@<TRIPOS>BOND
     1    1    2 1    
     2    1  127 1    
     3    1  128 1    
     4    1  129 1    
     5    2    3 2    
     6    2    4 am   BACKBONE|DICT|INTERRES
     7    4    5 1    
     8    4  130 1    
     9    5    6 1    
    10    5   65 1    
    11    5  131 1    
    12    6    7 1    
    13    6  132 1    
    14    6  133 1    
    15    7    8 1    
    16    8    9 1    
    17    8  134 1    
    18    8  135 1    
    19    9   10 ar   
    20    9   14 ar   
    21   10   11 ar   
    22   10  136 1    
    23   11   12 ar   
    24   11  126 1    
    25   12   13 ar   
    26   12  137 1    
    27   13   14 ar   
    28   13   15 1    
    29   14  138 1    
    30   15   16 1    
    31   15  139 1    
    32   15  140 1    
    33   16   17 1    
    34   17   18 1    
    35   17  141 1    
    36   17  142 1    
    37   18   19 1    
    38   18   67 1    
    39   18  143 1    
    40   19   20 am   BACKBONE|DICT|INTERRES
    41   19  144 1    
    42   20   21 2    
    43   20   22 1    
    44   22   23 1    
    45   22   24 1    
    46   22  145 1    
    47   23  146 1    
    48   23  147 1    
    49   23  148 1    
    50   24   25 am   BACKBONE|DICT|INTERRES
    51   24  149 1    
    52   25   26 2    
    53   25   27 1    
    54   27   28 1    
    55   27   29 1    
    56   27  150 1    
    57   28  151 1    
    58   28  152 1    
    59   28  153 1    
    60   29   30 am   BACKBONE|DICT|INTERRES
    61   29  154 1    
    62   30   31 2    
    63   30   32 1    
    64   32   33 1    
    65   32   34 1    
    66   32  155 1    
    67   33  156 1    
    68   33  157 1    
    69   33  158 1    
    70   34   35 am   BACKBONE|DICT|INTERRES
    71   34  159 1    
    72   35   36 2    
    73   35   37 1    
    74   37   38 1    
    75   37   39 1    
    76   37  160 1    
    77   38  161 1    
    78   38  162 1    
    79   38  163 1    
    80   39   40 am   BACKBONE|DICT|INTERRES
    81   39  164 1    
    82   40   41 2    
    83   40   42 1    
    84   42   43 1    
    85   42   44 1    
    86   42  165 1    
    87   43  166 1    
    88   43  167 1    
    89   43  168 1    
    90   44   45 am   BACKBONE|DICT|INTERRES
    91   44  169 1    
    92   45   46 2    
    93   45   47 1    
    94   47   48 1    
    95   47   49 1    
    96   47  170 1    
    97   48  171 1    
    98   48  172 1    
    99   48  173 1    
   100   49   50 am   BACKBONE|DICT|INTERRES
   101   49  174 1    
   102   50   51 2    
   103   50   52 1    
   104   52   53 1    
   105   52   54 1    
   106   52  175 1    
   107   53  176 1    
   108   53  177 1    
   109   53  178 1    
   110   54   55 am   BACKBONE|DICT|INTERRES
   111   54  179 1    
   112   55   56 2    
   113   55   57 1    
   114   57   58 1    
   115   57   59 1    
   116   57  180 1    
   117   58  181 1    
   118   58  182 1    
   119   58  183 1    
   120   59   60 am   BACKBONE|DICT|INTERRES
   121   59  184 1    
   122   60   61 2    
   123   60   62 1    
   124   62   63 1    
   125   62   64 1    
   126   62  185 1    
   127   63  186 1    
   128   63  187 1    
   129   63  188 1    
   130   64   65 am   BACKBONE|DICT|INTERRES
   131   64  189 1    
   132   65   66 2    
   133   67   68 2    
   134   67   69 am   BACKBONE|DICT|INTERRES
   135   69   70 1    
   136   69  190 1    
   137   70   71 1    
   138   70   72 1    
   139   70  191 1    
   140   71  192 1    
   141   71  193 1    
   142   71  194 1    
   143   72   73 2    
   144   72   74 am   BACKBONE|DICT|INTERRES
   145   74   75 1    
   146   74  195 1    
   147   75   76 1    
   148   75   77 1    
   149   75  196 1    
   150   76  197 1    
   151   76  198 1    
   152   76  199 1    
   153   77   78 2    
   154   77   79 am   BACKBONE|DICT|INTERRES
   155   79   80 1    
   156   79  200 1    
   157   80   81 1    
   158   80   82 1    
   159   80  201 1    
   160   81  202 1    
   161   81  203 1    
   162   81  204 1    
   163   82   83 2    
   164   82   84 am   BACKBONE|DICT|INTERRES
   165   84   85 1    
   166   84  205 1    
   167   85   86 1    
   168   85   87 1    
   169   85  206 1    
   170   86  207 1    
   171   86  208 1    
   172   86  209 1    
   173   87   88 2    
   174   87   89 am   BACKBONE|DICT|INTERRES
   175   89   90 1    
   176   89  210 1    
   177   90   91 1    
   178   90   92 1    
   179   90  211 1    
   180   91  212 1    
   181   91  213 1    
   182   91  214 1    
   183   92   93 2    
   184   92   94 am   BACKBONE|DICT|INTERRES
   185   94   95 1    
   186   94  215 1    
   187   95   96 1    
   188   95   97 1    
   189   95  216 1    
   190   96  217 1    
   191   96  218 1    
   192   96  219 1    
   193   97   98 2    
   194   97   99 am   BACKBONE|DICT|INTERRES
   195   99  100 1    
   196   99  220 1    
   197  100  101 1    
   198  100  102 1    
   199  100  221 1    
   200  101  222 1    
   201  101  223 1    
   202  101  224 1    
   203  102  103 2    
   204  102  104 am   BACKBONE|DICT|INTERRES
   205  104  105 1    
   206  104  225 1    
   207  105  106 1    
   208  105  107 1    
   209  105  226 1    
   210  106  227 1    
   211  106  228 1    
   212  106  229 1    
   213  107  108 2    
   214  107  109 am   BACKBONE|DICT|INTERRES
   215  109  110 1    
   216  109  230 1    
   217  110  111 1    
   218  110  112 1    
   219  110  231 1    
   220  111  232 1    
   221  111  233 1    
   222  111  234 1    
   223  112  113 2    
   224  112  114 am   BACKBONE|DICT|INTERRES
   225  114  115 1    
   226  114  235 1    
   227  115  116 1    
   228  115  117 1    
   229  115  236 1    
   230  116  237 1    
   231  116  238 1    
   232  116  239 1    
   233  117  118 2    
   234  117  119 am   BACKBONE|DICT|INTERRES
   235  119  120 1    
   236  119  240 1    
   237  120  121 1    
   238  120  124 1    
   239  120  241 1    
   240  121  122 am   BACKBONE|DICT|INTERRES
   241  121  123 2    
   242  122  242 1    
   243  122  243 1    
   244  124  125 1    
   245  124  244 1    
   246  124  245 1    
   247  125  126 1    
   248  126  246 1    
   249  126  247 1    
@<TRIPOS>SUBSTRUCTURE
     1 UNK         1 GROUP             0       ****    0 ROOT    
