@<TRIPOS>MOLECULE
3R540
247   249    1
SMALL
USER_CHARGES


@<TRIPOS>ATOM
      1 CA          3.1034  -15.8934  -48.3159 C.3       0 UNK        -0.1800 
      2 C           1.8186  -15.3143  -47.7431 C.2       0 UNK         0.5000 
      3 O           1.7250  -15.1037  -46.5375 O.2       0 UNK        -0.5000 
      4 N           0.8331  -15.0332  -48.6038 N.am      1 UNK        -0.5000 
      5 CA         -0.5137  -14.5525  -48.2528 C.3       1 UNK         0.1400 
      6 C6         -1.4451  -14.4971  -49.4921 C.3       23 UNK        -0.0398 
      7 S7         -1.5931  -16.1055  -50.3425 S.3       23 UNK        -0.2404 
      8 C8         -0.2936  -15.9500  -51.6136 C.3       23 UNK        -0.0205 
      9 C9          0.3972  -17.2782  -51.8772 C.ar      23 UNK        -0.0193 
     10 C10         0.4529  -17.8017  -53.1716 C.ar      23 UNK        -0.1150 
     11 C11         1.1063  -19.0121  -53.4166 C.ar      23 UNK        -0.0193 
     12 C12         1.7027  -19.6970  -52.3533 C.ar      23 UNK        -0.1150 
     13 C13         1.6508  -19.1938  -51.0491 C.ar      23 UNK        -0.0193 
     14 C14         1.0064  -17.9723  -50.8265 C.ar      23 UNK        -0.1150 
     15 C15         2.3199  -19.9899  -49.9238 C.3       23 UNK        -0.0205 
     16 S16         1.7385  -19.6327  -48.2247 S.3       23 UNK        -0.2404 
     17 C17         0.0397  -20.2964  -48.2634 C.3       23 UNK        -0.0398 
     18 CA         -0.0832  -21.6955  -47.6078 C.3       11 UNK         0.1400 
     19 N           0.3117  -21.6867  -46.1952 N.am      11 UNK        -0.5000 
     20 C           0.4673  -22.7812  -45.4361 C.2       10 UNK         0.5000 
     21 O           0.3369  -23.9301  -45.8571 O.2       10 UNK        -0.5000 
     22 CA          0.7645  -22.5546  -43.9414 C.3       10 UNK         0.1400 
     23 CB          2.2713  -22.3698  -43.7117 C.3       10 UNK        -0.1800 
     24 N           0.0402  -21.4134  -43.3781 N.am      10 UNK        -0.5000 
     25 C          -1.2958  -21.3047  -43.3322 C.2       9 UNK         0.5000 
     26 O          -2.0618  -22.1814  -43.7262 O.2       9 UNK        -0.5000 
     27 CA         -1.8868  -19.9879  -42.7994 C.3       9 UNK         0.1400 
     28 CB         -2.2423  -20.1179  -41.3129 C.3       9 UNK        -0.1800 
     29 N          -1.0057  -18.8368  -42.9973 N.am      9 UNK        -0.5000 
     30 C          -0.6834  -18.3232  -44.1931 C.2       8 UNK         0.5000 
     31 O          -1.0879  -18.7806  -45.2629 O.2       8 UNK        -0.5000 
     32 CA          0.2632  -17.1106  -44.1857 C.3       8 UNK         0.1400 
     33 CB         -0.5436  -15.8050  -44.1468 C.3       8 UNK        -0.1800 
     34 N           1.2042  -17.1418  -43.0617 N.am      8 UNK        -0.5000 
     35 C           2.2534  -17.9741  -43.0002 C.2       7 UNK         0.5000 
     36 O           2.5480  -18.7675  -43.8940 O.2       7 UNK        -0.5000 
     37 CA          3.0841  -17.9540  -41.7048 C.3       7 UNK         0.1400 
     38 CB          3.9052  -16.6605  -41.5833 C.3       7 UNK        -0.1800 
     39 N           2.2637  -18.1327  -40.5063 N.am      7 UNK        -0.5000 
     40 C           1.5696  -19.2369  -40.1992 C.2       6 UNK         0.5000 
     41 O           1.5326  -20.2369  -40.9150 O.2       6 UNK        -0.5000 
     42 CA          0.7383  -19.2158  -38.9000 C.3       6 UNK         0.1400 
     43 CB          1.6106  -19.4928  -37.6598 C.3       6 UNK        -0.1800 
     44 N          -0.0784  -18.0012  -38.7605 N.am      6 UNK        -0.5000 
     45 C           0.3341  -16.7529  -38.5072 C.2       5 UNK         0.5000 
     46 O           1.4952  -16.4559  -38.2140 O.2       5 UNK        -0.5000 
     47 CA         -0.7303  -15.6467  -38.6531 C.3       5 UNK         0.1400 
     48 CB         -1.4584  -15.4209  -37.3196 C.3       5 UNK        -0.1800 
     49 N          -0.1559  -14.3762  -39.1030 N.am      5 UNK        -0.5000 
     50 C           0.5661  -14.2021  -40.2192 C.2       4 UNK         0.5000 
     51 O           0.7401  -15.0873  -41.0636 O.2       4 UNK        -0.5000 
     52 CA          1.2256  -12.8146  -40.3772 C.3       4 UNK         0.1400 
     53 CB          2.1860  -12.5239  -39.2095 C.3       4 UNK        -0.1800 
     54 N           1.9827  -12.6880  -41.6214 N.am      4 UNK        -0.5000 
     55 C           1.4516  -12.5742  -42.8433 C.2       3 UNK         0.5000 
     56 O           0.2396  -12.4808  -43.0560 O.2       3 UNK        -0.5000 
     57 CA          2.4686  -12.5705  -44.0039 C.3       3 UNK         0.1400 
     58 CB          3.2618  -13.8889  -44.0511 C.3       3 UNK        -0.1800 
     59 N           1.8422  -12.3427  -45.3071 N.am      3 UNK        -0.5000 
     60 C           1.3923  -11.1531  -45.7343 C.2       2 UNK         0.5000 
     61 O           1.4935  -10.1174  -45.0737 O.2       2 UNK        -0.5000 
     62 CA          0.7531  -11.0768  -47.1375 C.3       2 UNK         0.1400 
     63 CB          1.6263  -10.2346  -48.0825 C.3       2 UNK        -0.1800 
     64 N           0.5382  -12.3845  -47.7560 N.am      2 UNK        -0.5000 
     65 C          -0.5129  -13.1845  -47.5319 C.2       1 UNK         0.5000 
     66 O          -1.4538  -12.8853  -46.7966 O.2       1 UNK        -0.5000 
     67 C          -1.5133  -22.2505  -47.7723 C.2       11 UNK         0.5000 
     68 O          -1.7507  -23.1086  -48.6241 O.2       11 UNK        -0.5000 
     69 N          -2.4365  -21.7715  -46.9256 N.am      12 UNK        -0.5000 
     70 CA         -3.8352  -22.1983  -46.8994 C.3       12 UNK         0.1400 
     71 CB         -4.6449  -21.2556  -45.9971 C.3       12 UNK        -0.1800 
     72 C          -3.9972  -23.6651  -46.4610 C.2       12 UNK         0.5000 
     73 O          -4.7627  -24.3993  -47.0847 O.2       12 UNK        -0.5000 
     74 N          -3.2413  -24.0788  -45.4343 N.am      13 UNK        -0.5000 
     75 CA         -3.1931  -25.4492  -44.9178 C.3       13 UNK         0.1400 
     76 CB         -2.3585  -25.4789  -43.6288 C.3       13 UNK        -0.1800 
     77 C          -2.6453  -26.4625  -45.9403 C.2       13 UNK         0.5000 
     78 O          -3.1306  -27.5928  -45.9957 O.2       13 UNK        -0.5000 
     79 N          -1.6738  -26.0292  -46.7550 N.am      14 UNK        -0.5000 
     80 CA         -1.1252  -26.7886  -47.8801 C.3       14 UNK         0.1400 
     81 CB          0.2347  -26.1843  -48.2665 C.3       14 UNK        -0.1800 
     82 C          -2.0589  -26.8296  -49.1085 C.2       14 UNK         0.5000 
     83 O          -1.7879  -27.5956  -50.0341 O.2       14 UNK        -0.5000 
     84 N          -3.1143  -25.9986  -49.1093 N.am      15 UNK        -0.5000 
     85 CA         -4.0537  -25.7443  -50.2071 C.3       15 UNK         0.1400 
     86 CB         -4.9082  -26.9927  -50.5081 C.3       15 UNK        -0.1800 
     87 C          -3.3495  -25.1682  -51.4534 C.2       15 UNK         0.5000 
     88 O          -3.6974  -25.5125  -52.5838 O.2       15 UNK        -0.5000 
     89 N          -2.3575  -24.3059  -51.2117 N.am      16 UNK        -0.5000 
     90 CA         -1.5068  -23.6807  -52.2117 C.3       16 UNK         0.1400 
     91 CB         -0.1803  -24.4568  -52.3073 C.3       16 UNK        -0.1800 
     92 C          -1.3239  -22.2190  -51.7957 C.2       16 UNK         0.5000 
     93 O          -0.2646  -21.8527  -51.2929 O.2       16 UNK        -0.5000 
     94 N          -2.3958  -21.4383  -51.9541 N.am      17 UNK        -0.5000 
     95 CA         -2.4798  -20.0148  -51.6441 C.3       17 UNK         0.1400 
     96 CB         -3.1964  -19.8335  -50.2945 C.3       17 UNK        -0.1800 
     97 C          -3.2622  -19.3132  -52.7619 C.2       17 UNK         0.5000 
     98 O          -3.8271  -19.9870  -53.6321 O.2       17 UNK        -0.5000 
     99 N          -3.3031  -17.9747  -52.7112 N.am      18 UNK        -0.5000 
    100 CA        -4.0812  -17.1205  -53.6117 C.3       18 UNK         0.1400 
    101 CB        -3.8845  -15.6466  -53.2282 C.3       18 UNK        -0.1800 
    102 C         -5.5766  -17.4827  -53.6005 C.2       18 UNK         0.5000 
    103 O         -6.1693  -17.5793  -52.5245 O.2       18 UNK        -0.5000 
    104 N         -6.1328  -17.7231  -54.7936 N.am      19 UNK        -0.5000 
    105 CA        -7.5004  -18.1635  -55.0996 C.3       19 UNK         0.1400 
    106 CB        -8.5565  -17.1966  -54.5291 C.3       19 UNK        -0.1800 
    107 C         -7.8064  -19.6267  -54.7156 C.2       19 UNK         0.5000 
    108 O         -8.6854  -20.2285  -55.3340 O.2       19 UNK        -0.5000 
    109 N         -7.0750  -20.1936  -53.7455 N.am      20 UNK        -0.5000 
    110 CA        -7.1277  -21.6104  -53.3801 C.3       20 UNK         0.1400 
    111 CB        -6.4296  -21.8245  -52.0274 C.3       20 UNK        -0.1800 
    112 C         -6.5017  -22.5031  -54.4674 C.2       20 UNK         0.5000 
    113 O         -7.0211  -23.5872  -54.7351 O.2       20 UNK        -0.5000 
    114 N         -5.4254  -22.0113  -55.0941 N.am      21 UNK        -0.5000 
    115 CA        -4.7704  -22.6320  -56.2438 C.3       21 UNK         0.1400 
    116 CB        -3.8677  -23.7946  -55.7955 C.3       21 UNK        -0.1800 
    117 C         -3.9621  -21.6045  -57.0491 C.2       21 UNK         0.5000 
    118 O         -3.9572  -21.6732  -58.2789 O.2       21 UNK        -0.5000 
    119 N         -3.2851  -20.6830  -56.3533 N.am      22 UNK        -0.5000 
    120 CA        -2.4407  -19.6414  -56.9531 C.3       22 UNK         0.1400 
    121 C         -3.2804  -18.4601  -57.5126 C.2       22 UNK         0.5000 
    122 N         -2.8010  -17.7895  -58.5505 N.am      22 UNK        -0.7600 
    123 O         -4.3408  -18.1172  -56.9924 O.2       22 UNK        -0.5000 
    124 C124       -1.3657  -19.1319  -55.9581 C.3       23 UNK        -0.0398 
    125 S125       -0.3124  -20.4759  -55.3056 S.3       23 UNK        -0.2404 
    126 C126        1.1946  -19.5717  -54.8295 C.3       23 UNK        -0.0205 
    127 H127        3.9447  -15.2406  -48.0841 H         1 UNK         0.0600 
    128 H128        3.0499  -16.0115  -49.3984 H         1 UNK         0.0600 
    129 H129        3.2987  -16.8717  -47.8767 H         1 UNK         0.0600 
    130 H130        0.9759  -15.2246  -49.5832 H         1 UNK         0.3000 
    131 H131       -0.9323  -15.2756  -47.5494 H         1 UNK         0.0600 
    132 H132       -2.4515  -14.1996  -49.1916 H         1 UNK         0.0800 
    133 H133       -1.1091  -13.7394  -50.2025 H         1 UNK         0.0800 
    134 H134       -0.7356  -15.5531  -52.5272 H         1 UNK         0.0800 
    135 H135        0.4634  -15.2263  -51.3134 H         1 UNK         0.0800 
    136 H136       -0.0037  -17.2649  -53.9908 H         1 UNK         0.1150 
    137 H137        2.2014  -20.6379  -52.5394 H         1 UNK         0.1150 
    138 H138        0.9633  -17.5596  -49.8305 H         1 UNK         0.1150 
    139 H139        2.1924  -21.0580  -50.1080 H         1 UNK         0.0800 
    140 H140        3.3922  -19.7959  -49.9642 H         1 UNK         0.0800 
    141 H141       -0.2991  -20.3208  -49.2977 H         1 UNK         0.0800 
    142 H142       -0.6094  -19.5776  -47.7613 H         1 UNK         0.0800 
    143 H143        0.5883  -22.3751  -48.1373 H         1 UNK         0.0600 
    144 H144        0.4217  -20.7779  -45.7669 H         1 UNK         0.3000 
    145 H145        0.4451  -23.4473  -43.4004 H         1 UNK         0.0600 
    146 H146        2.4999  -22.2704  -42.6505 H         1 UNK         0.0600 
    147 H147        2.8311  -23.2276  -44.0864 H         1 UNK         0.0600 
    148 H148        2.6500  -21.4828  -44.2206 H         1 UNK         0.0600 
    149 H149        0.6026  -20.6690  -42.9860 H         1 UNK         0.3000 
    150 H150       -2.8094  -19.7962  -43.3513 H         1 UNK         0.0600 
    151 H151       -2.9919  -20.8958  -41.1620 H         1 UNK         0.0600 
    152 H152       -2.6534  -19.1893  -40.9167 H         1 UNK         0.0600 
    153 H153       -1.3718  -20.3894  -40.7189 H         1 UNK         0.0600 
    154 H154       -0.6108  -18.4087  -42.1741 H         1 UNK         0.3000 
    155 H155        0.8309  -17.1352  -45.1176 H         1 UNK         0.0600 
    156 H156       -1.0929  -15.6945  -43.2113 H         1 UNK         0.0600 
    157 H157        0.1092  -14.9402  -44.2560 H         1 UNK         0.0600 
    158 H158       -1.2656  -15.7649  -44.9632 H         1 UNK         0.0600 
    159 H159        1.0387  -16.4859  -42.3005 H         1 UNK         0.3000 
    160 H160        3.7848  -18.7903  -41.7523 H         1 UNK         0.0600 
    161 H161        4.5751  -16.7001  -40.7244 H         1 UNK         0.0600 
    162 H162        3.2687  -15.7836  -41.4679 H         1 UNK         0.0600 
    163 H163        4.5216  -16.5051  -42.4697 H         1 UNK         0.0600 
    164 H164        2.2119  -17.3512  -39.8607 H         1 UNK         0.3000 
    165 H165        0.0279  -20.0400  -38.9646 H         1 UNK         0.0600 
    166 H166        1.0164  -19.4710  -36.7463 H         1 UNK         0.0600 
    167 H167        2.0687  -20.4803  -37.7262 H         1 UNK         0.0600 
    168 H168        2.4209  -18.7718  -37.5520 H         1 UNK         0.0600 
    169 H169       -1.0570  -18.1302  -38.9761 H         1 UNK         0.3000 
    170 H170       -1.4586  -15.9608  -39.4036 H         1 UNK         0.0600 
    171 H171       -1.9250  -16.3414  -36.9665 H         1 UNK         0.0600 
    172 H172       -0.7739  -15.0810  -36.5411 H         1 UNK         0.0600 
    173 H173       -2.2485  -14.6766  -37.4212 H         1 UNK         0.0600 
    174 H174       -0.2292  -13.6071  -38.4540 H         1 UNK         0.3000 
    175 H175        0.4330  -12.0636  -40.3757 H         1 UNK         0.0600 
    176 H176        2.6709  -11.5547  -39.3289 H         1 UNK         0.0600 
    177 H177        2.9667  -13.2825  -39.1350 H         1 UNK         0.0600 
    178 H178        1.6613  -12.4999  -38.2540 H         1 UNK         0.0600 
    179 H179        2.9834  -12.7845  -41.5376 H         1 UNK         0.3000 
    180 H180        3.1760  -11.7583  -43.8233 H         1 UNK         0.0600 
    181 H181        2.6013  -14.7561  -44.0686 H         1 UNK         0.0600 
    182 H182        3.9099  -13.9914  -43.1807 H         1 UNK         0.0600 
    183 H183        3.9015  -13.9379  -44.9324 H         1 UNK         0.0600 
    184 H184        1.6870  -13.1682  -45.8758 H         1 UNK         0.3000 
    185 H185       -0.2096  -10.5732  -47.0277 H         1 UNK         0.0600 
    186 H186        2.6105  -10.6822  -48.2265 H         1 UNK         0.0600 
    187 H187        1.1587  -10.1277  -49.0615 H         1 UNK         0.0600 
    188 H188        1.7777   -9.2295  -47.6865 H         1 UNK         0.0600 
    189 H189        1.2704  -12.7214  -48.3640 H         1 UNK         0.3000 
    190 H190       -2.1541  -21.0940  -46.2311 H         1 UNK         0.3000 
    191 H191       -4.2280  -22.1116  -47.9150 H         1 UNK         0.0600 
    192 H192       -4.5755  -20.2238  -46.3423 H         1 UNK         0.0600 
    193 H193       -5.7009  -21.5285  -45.9984 H         1 UNK         0.0600 
    194 H194       -4.3005  -21.2871  -44.9633 H         1 UNK         0.0600 
    195 H195       -2.6802  -23.3899  -44.9366 H         1 UNK         0.3000 
    196 H196       -4.2141  -25.7470  -44.6708 H         1 UNK         0.0600 
    197 H197       -2.3282  -26.4834  -43.2049 H         1 UNK         0.0600 
    198 H198       -2.7796  -24.8182  -42.8708 H         1 UNK         0.0600 
    199 H199       -1.3297  -25.1670  -43.8106 H         1 UNK         0.0600 
    200 H200       -1.2848  -25.1049  -46.6040 H         1 UNK         0.3000 
    201 H201       -0.9616  -27.8192  -47.5588 H         1 UNK         0.0600 
    202 H202        0.9301  -26.2098  -47.4273 H         1 UNK         0.0600 
    203 H203        0.1364  -25.1468  -48.5882 H         1 UNK         0.0600 
    204 H204        0.6945  -26.7391  -49.0852 H         1 UNK         0.0600 
    205 H205       -3.2523  -25.4189  -48.2910 H         1 UNK         0.3000 
    206 H206       -4.7283  -24.9628  -49.8546 H         1 UNK         0.0600 
    207 H207       -5.3909  -27.3657  -49.6048 H         1 UNK         0.0600 
    208 H208       -5.6967  -26.7612  -51.2250 H         1 UNK         0.0600 
    209 H209       -4.3120  -27.8023  -50.9297 H         1 UNK         0.0600 
    210 H210       -2.1642  -24.0286  -50.2508 H         1 UNK         0.3000 
    211 H211       -1.9861  -23.6906  -53.1903 H         1 UNK         0.0600 
    212 H212        0.3314  -24.5000  -51.3448 H         1 UNK         0.0600 
    213 H213        0.4957  -23.9857  -53.0219 H         1 UNK         0.0600 
    214 H214       -0.3486  -25.4809  -52.6406 H         1 UNK         0.0600 
    215 H215       -3.2066  -21.8100  -52.4280 H         1 UNK         0.3000 
    216 H216       -1.4805  -19.5782  -51.5976 H         1 UNK         0.0600 
    217 H217       -3.2220  -18.7852  -49.9961 H         1 UNK         0.0600 
    218 H218       -2.6906  -20.3776  -49.5021 H         1 UNK         0.0600 
    219 H219       -4.2264  -20.1897  -50.3320 H         1 UNK         0.0600 
    220 H220       -2.8349  -17.5025  -51.9496 H         1 UNK         0.3000 
    221 H221       -3.6901  -17.2579  -54.6192 H         1 UNK         0.0600 
    222 H222       -4.1563  -15.4606  -52.1883 H         1 UNK         0.0600 
    223 H223       -2.8510  -15.3361  -53.3697 H         1 UNK         0.0600 
    224 H224       -4.5006  -14.9956  -53.8498 H         1 UNK         0.0600 
    225 H225       -5.5167  -17.7043  -55.6055 H         1 UNK         0.3000 
    226 H226       -7.5745  -18.1173  -56.1872 H         1 UNK         0.0600 
    227 H227       -8.3535  -16.1683  -54.8283 H         1 UNK         0.0600 
    228 H228       -9.5514  -17.4513  -54.8962 H         1 UNK         0.0600 
    229 H229       -8.5976  -17.2296  -53.4403 H         1 UNK         0.0600 
    230 H230       -6.3970  -19.6163  -53.2648 H         1 UNK         0.3000 
    231 H231       -8.1756  -21.8974  -53.2705 H         1 UNK         0.0600 
    232 H232       -5.3714  -21.5726  -52.0735 H         1 UNK         0.0600 
    233 H233       -6.5027  -22.8664  -51.7129 H         1 UNK         0.0600 
    234 H234       -6.8856  -21.2156  -51.2465 H         1 UNK         0.0600 
    235 H235       -5.0706  -21.1079  -54.8001 H         1 UNK         0.3000 
    236 H236       -5.5425  -23.0265  -56.9080 H         1 UNK         0.0600 
    237 H237       -3.0575  -23.4418  -55.1594 H         1 UNK         0.0600 
    238 H238       -4.4257  -24.5503  -55.2427 H         1 UNK         0.0600 
    239 H239       -3.4155  -24.2898  -56.6556 H         1 UNK         0.0600 
    240 H240       -3.3576  -20.6502  -55.3422 H         1 UNK         0.3000 
    241 H241       -1.9128  -20.0923  -57.7961 H         1 UNK         0.0600 
    242 H242       -3.3310  -17.0130  -58.9148 H         1 UNK         0.3800 
    243 H243       -1.9337  -18.0463  -58.9963 H         1 UNK         0.3800 
    244 H244       -0.7268  -18.3987  -56.4528 H         1 UNK         0.0800 
    245 H245       -1.8241  -18.6133  -55.1189 H         1 UNK         0.0800 
    246 H246        1.4012  -18.7706  -55.5402 H         1 UNK         0.0800 
    247 H247        2.0406  -20.2568  -54.9017 H         1 UNK         0.0800 
@<TRIPOS>BOND
     1    1    2 1    
     2    1  127 1    
     3    1  128 1    
     4    1  129 1    
     5    2    3 2    
     6    2    4 am   BACKBONE|DICT|INTERRES
     7    4    5 1    
     8    4  130 1    
     9    5    6 1    
    10    5   65 1    
    11    5  131 1    
    12    6    7 1    
    13    6  132 1    
    14    6  133 1    
    15    7    8 1    
    16    8    9 1    
    17    8  134 1    
    18    8  135 1    
    19    9   10 ar   
    20    9   14 ar   
    21   10   11 ar   
    22   10  136 1    
    23   11   12 ar   
    24   11  126 1    
    25   12   13 ar   
    26   12  137 1    
    27   13   14 ar   
    28   13   15 1    
    29   14  138 1    
    30   15   16 1    
    31   15  139 1    
    32   15  140 1    
    33   16   17 1    
    34   17   18 1    
    35   17  141 1    
    36   17  142 1    
    37   18   19 1    
    38   18   67 1    
    39   18  143 1    
    40   19   20 am   BACKBONE|DICT|INTERRES
    41   19  144 1    
    42   20   21 2    
    43   20   22 1    
    44   22   23 1    
    45   22   24 1    
    46   22  145 1    
    47   23  146 1    
    48   23  147 1    
    49   23  148 1    
    50   24   25 am   BACKBONE|DICT|INTERRES
    51   24  149 1    
    52   25   26 2    
    53   25   27 1    
    54   27   28 1    
    55   27   29 1    
    56   27  150 1    
    57   28  151 1    
    58   28  152 1    
    59   28  153 1    
    60   29   30 am   BACKBONE|DICT|INTERRES
    61   29  154 1    
    62   30   31 2    
    63   30   32 1    
    64   32   33 1    
    65   32   34 1    
    66   32  155 1    
    67   33  156 1    
    68   33  157 1    
    69   33  158 1    
    70   34   35 am   BACKBONE|DICT|INTERRES
    71   34  159 1    
    72   35   36 2    
    73   35   37 1    
    74   37   38 1    
    75   37   39 1    
    76   37  160 1    
    77   38  161 1    
    78   38  162 1    
    79   38  163 1    
    80   39   40 am   BACKBONE|DICT|INTERRES
    81   39  164 1    
    82   40   41 2    
    83   40   42 1    
    84   42   43 1    
    85   42   44 1    
    86   42  165 1    
    87   43  166 1    
    88   43  167 1    
    89   43  168 1    
    90   44   45 am   BACKBONE|DICT|INTERRES
    91   44  169 1    
    92   45   46 2    
    93   45   47 1    
    94   47   48 1    
    95   47   49 1    
    96   47  170 1    
    97   48  171 1    
    98   48  172 1    
    99   48  173 1    
   100   49   50 am   BACKBONE|DICT|INTERRES
   101   49  174 1    
   102   50   51 2    
   103   50   52 1    
   104   52   53 1    
   105   52   54 1    
   106   52  175 1    
   107   53  176 1    
   108   53  177 1    
   109   53  178 1    
   110   54   55 am   BACKBONE|DICT|INTERRES
   111   54  179 1    
   112   55   56 2    
   113   55   57 1    
   114   57   58 1    
   115   57   59 1    
   116   57  180 1    
   117   58  181 1    
   118   58  182 1    
   119   58  183 1    
   120   59   60 am   BACKBONE|DICT|INTERRES
   121   59  184 1    
   122   60   61 2    
   123   60   62 1    
   124   62   63 1    
   125   62   64 1    
   126   62  185 1    
   127   63  186 1    
   128   63  187 1    
   129   63  188 1    
   130   64   65 am   BACKBONE|DICT|INTERRES
   131   64  189 1    
   132   65   66 2    
   133   67   68 2    
   134   67   69 am   BACKBONE|DICT|INTERRES
   135   69   70 1    
   136   69  190 1    
   137   70   71 1    
   138   70   72 1    
   139   70  191 1    
   140   71  192 1    
   141   71  193 1    
   142   71  194 1    
   143   72   73 2    
   144   72   74 am   BACKBONE|DICT|INTERRES
   145   74   75 1    
   146   74  195 1    
   147   75   76 1    
   148   75   77 1    
   149   75  196 1    
   150   76  197 1    
   151   76  198 1    
   152   76  199 1    
   153   77   78 2    
   154   77   79 am   BACKBONE|DICT|INTERRES
   155   79   80 1    
   156   79  200 1    
   157   80   81 1    
   158   80   82 1    
   159   80  201 1    
   160   81  202 1    
   161   81  203 1    
   162   81  204 1    
   163   82   83 2    
   164   82   84 am   BACKBONE|DICT|INTERRES
   165   84   85 1    
   166   84  205 1    
   167   85   86 1    
   168   85   87 1    
   169   85  206 1    
   170   86  207 1    
   171   86  208 1    
   172   86  209 1    
   173   87   88 2    
   174   87   89 am   BACKBONE|DICT|INTERRES
   175   89   90 1    
   176   89  210 1    
   177   90   91 1    
   178   90   92 1    
   179   90  211 1    
   180   91  212 1    
   181   91  213 1    
   182   91  214 1    
   183   92   93 2    
   184   92   94 am   BACKBONE|DICT|INTERRES
   185   94   95 1    
   186   94  215 1    
   187   95   96 1    
   188   95   97 1    
   189   95  216 1    
   190   96  217 1    
   191   96  218 1    
   192   96  219 1    
   193   97   98 2    
   194   97   99 am   BACKBONE|DICT|INTERRES
   195   99  100 1    
   196   99  220 1    
   197  100  101 1    
   198  100  102 1    
   199  100  221 1    
   200  101  222 1    
   201  101  223 1    
   202  101  224 1    
   203  102  103 2    
   204  102  104 am   BACKBONE|DICT|INTERRES
   205  104  105 1    
   206  104  225 1    
   207  105  106 1    
   208  105  107 1    
   209  105  226 1    
   210  106  227 1    
   211  106  228 1    
   212  106  229 1    
   213  107  108 2    
   214  107  109 am   BACKBONE|DICT|INTERRES
   215  109  110 1    
   216  109  230 1    
   217  110  111 1    
   218  110  112 1    
   219  110  231 1    
   220  111  232 1    
   221  111  233 1    
   222  111  234 1    
   223  112  113 2    
   224  112  114 am   BACKBONE|DICT|INTERRES
   225  114  115 1    
   226  114  235 1    
   227  115  116 1    
   228  115  117 1    
   229  115  236 1    
   230  116  237 1    
   231  116  238 1    
   232  116  239 1    
   233  117  118 2    
   234  117  119 am   BACKBONE|DICT|INTERRES
   235  119  120 1    
   236  119  240 1    
   237  120  121 1    
   238  120  124 1    
   239  120  241 1    
   240  121  122 am   BACKBONE|DICT|INTERRES
   241  121  123 2    
   242  122  242 1    
   243  122  243 1    
   244  124  125 1    
   245  124  244 1    
   246  124  245 1    
   247  125  126 1    
   248  126  246 1    
   249  126  247 1    
@<TRIPOS>SUBSTRUCTURE
     1 UNK         1 GROUP             0       ****    0 ROOT    
