@<TRIPOS>MOLECULE
3R540
247   249    1
SMALL
USER_CHARGES


@<TRIPOS>ATOM
      1 CA         -4.5944  -12.9493  -46.6915 C.3       0 UNK        -0.1800 
      2 C          -3.1588  -13.2490  -46.2862 C.2       0 UNK         0.5000 
      3 O          -2.6623  -12.6779  -45.3157 O.2       0 UNK        -0.5000 
      4 N          -2.4942  -14.1600  -47.0098 N.am      1 UNK        -0.5000 
      5 CA         -1.0837  -14.5372  -46.8212 C.3       1 UNK         0.1400 
      6 C6         -0.5406  -15.3966  -47.9866 C.3       23 UNK        -0.0398 
      7 S7         -0.8237  -14.6638  -49.6320 S.3       23 UNK        -0.2404 
      8 C8          0.0420  -15.8662  -50.7007 C.3       23 UNK        -0.0205 
      9 C9         -0.4287  -17.3108  -50.5397 C.ar      23 UNK        -0.0193 
     10 C10        -1.7811  -17.6212  -50.3701 C.ar      23 UNK        -0.1150 
     11 C11        -2.2022  -18.9473  -50.2463 C.ar      23 UNK        -0.0193 
     12 C12        -1.2532  -19.9737  -50.2954 C.ar      23 UNK        -0.1150 
     13 C13         0.1093  -19.6849  -50.4558 C.ar      23 UNK        -0.0193 
     14 C14         0.5052  -18.3495  -50.5810 C.ar      23 UNK        -0.1150 
     15 C15         1.1894  -20.7682  -50.5325 C.3       23 UNK        -0.0205 
     16 S16         0.7398  -22.4086  -49.8625 S.3       23 UNK        -0.2404 
     17 C17         0.7057  -22.0554  -48.0768 C.3       23 UNK        -0.0398 
     18 CA         -0.1920  -23.0357  -47.2841 C.3       11 UNK         0.1400 
     19 N           0.1422  -23.0286  -45.8577 N.am      11 UNK        -0.5000 
     20 C          -0.3073  -23.9111  -44.9545 C.2       10 UNK         0.5000 
     21 O          -1.0387  -24.8601  -45.2289 O.2       10 UNK        -0.5000 
     22 CA          0.0866  -23.6579  -43.4883 C.3       10 UNK         0.1400 
     23 CB          1.4903  -24.2096  -43.1993 C.3       10 UNK        -0.1800 
     24 N           0.0378  -22.2378  -43.1388 N.am      10 UNK        -0.5000 
     25 C          -1.0873  -21.5099  -43.1026 C.2       9 UNK         0.5000 
     26 O          -2.2081  -21.9735  -43.3064 O.2       9 UNK        -0.5000 
     27 CA         -0.9277  -20.0006  -42.8542 C.3       9 UNK         0.1400 
     28 CB         -0.9235  -19.6874  -41.3514 C.3       9 UNK        -0.1800 
     29 N           0.2740  -19.4348  -43.4710 N.am      9 UNK        -0.5000 
     30 C           0.5198  -19.3975  -44.7879 C.2       8 UNK         0.5000 
     31 O          -0.2335  -19.8983  -45.6244 O.2       8 UNK        -0.5000 
     32 CA          1.8128  -18.6859  -45.2373 C.3       8 UNK         0.1400 
     33 CB          1.7610  -18.2681  -46.7175 C.3       8 UNK        -0.1800 
     34 N           2.0916  -17.5015  -44.4230 N.am      8 UNK        -0.5000 
     35 C           2.8085  -17.4796  -43.2931 C.2       7 UNK         0.5000 
     36 O           3.2771  -18.4957  -42.7776 O.2       7 UNK        -0.5000 
     37 CA          2.9985  -16.1055  -42.6137 C.3       7 UNK         0.1400 
     38 CB          4.1967  -16.0766  -41.6427 C.3       7 UNK        -0.1800 
     39 N           3.0737  -14.9805  -43.5517 N.am      7 UNK        -0.5000 
     40 C           3.9682  -14.7857  -44.5329 C.2       6 UNK         0.5000 
     41 O           4.8709  -15.5776  -44.8062 O.2       6 UNK        -0.5000 
     42 CA          3.8674  -13.4704  -45.3253 C.3       6 UNK         0.1400 
     43 CB          2.9043  -13.5980  -46.5160 C.3       6 UNK        -0.1800 
     44 N           3.4519  -12.3526  -44.4749 N.am      6 UNK        -0.5000 
     45 C           4.0773  -11.1689  -44.4072 C.2       5 UNK         0.5000 
     46 O           5.0438  -10.8642  -45.1077 O.2       5 UNK        -0.5000 
     47 CA          3.5477  -10.1431  -43.3812 C.3       5 UNK         0.1400 
     48 CB          2.5981   -9.1460  -44.0631 C.3       5 UNK        -0.1800 
     49 N           2.8539  -10.7512  -42.2450 N.am      5 UNK        -0.5000 
     50 C           3.4170  -11.5541  -41.3320 C.2       4 UNK         0.5000 
     51 O           4.6263  -11.7800  -41.2801 O.2       4 UNK        -0.5000 
     52 CA          2.4788  -12.2433  -40.3175 C.3       4 UNK         0.1400 
     53 CB          2.6417  -11.6122  -38.9258 C.3       4 UNK        -0.1800 
     54 N           1.0492  -12.2584  -40.6601 N.am      4 UNK        -0.5000 
     55 C           0.5002  -12.7718  -41.7689 C.2       3 UNK         0.5000 
     56 O           1.1526  -13.1657  -42.7388 O.2       3 UNK        -0.5000 
     57 CA         -1.0381  -12.8090  -41.8143 C.3       3 UNK         0.1400 
     58 CB         -1.5831  -11.4863  -42.3725 C.3       3 UNK        -0.1800 
     59 N          -1.5249  -13.9129  -42.6414 N.am      3 UNK        -0.5000 
     60 C          -1.3641  -15.2139  -42.3518 C.2       2 UNK         0.5000 
     61 O          -0.8908  -15.6223  -41.2907 O.2       2 UNK        -0.5000 
     62 CA         -1.7878  -16.2399  -43.4231 C.3       2 UNK         0.1400 
     63 CB         -3.1455  -16.8671  -43.0729 C.3       2 UNK        -0.1800 
     64 N          -1.8584  -15.6790  -44.7712 N.am      2 UNK        -0.5000 
     65 C          -0.8044  -15.2522  -45.4801 C.2       1 UNK         0.5000 
     66 O           0.3589  -15.4041  -45.1113 O.2       1 UNK        -0.5000 
     67 C          -1.6903  -22.7455  -47.5005 C.2       11 UNK         0.5000 
     68 O          -2.3613  -23.4813  -48.2268 O.2       11 UNK        -0.5000 
     69 N          -2.1943  -21.7090  -46.8168 N.am      12 UNK        -0.5000 
     70 CA         -3.6000  -21.3102  -46.8244 C.3       12 UNK         0.1400 
     71 CB         -3.7557  -19.9911  -46.0526 C.3       12 UNK        -0.1800 
     72 C          -4.5486  -22.3922  -46.2752 C.2       12 UNK         0.5000 
     73 O          -5.6600  -22.5300  -46.7845 O.2       12 UNK        -0.5000 
     74 N          -4.0928  -23.1452  -45.2665 N.am      13 UNK        -0.5000 
     75 CA         -4.8232  -24.2642  -44.6805 C.3       13 UNK         0.1400 
     76 CB         -4.2656  -24.5623  -43.2792 C.3       13 UNK        -0.1800 
     77 C          -4.7857  -25.5246  -45.5635 C.2       13 UNK         0.5000 
     78 O          -5.8411  -26.0917  -45.8491 O.2       13 UNK        -0.5000 
     79 N          -3.5779  -25.9684  -45.9395 N.am      14 UNK        -0.5000 
     80 CA         -3.3556  -27.2651  -46.5796 C.3       14 UNK         0.1400 
     81 CB         -1.9082  -27.7212  -46.3363 C.3       14 UNK        -0.1800 
     82 C          -3.6721  -27.2720  -48.0825 C.2       14 UNK         0.5000 
     83 O          -4.3297  -28.2022  -48.5519 O.2       14 UNK        -0.5000 
     84 N          -3.1772  -26.2654  -48.8127 N.am      15 UNK        -0.5000 
     85 CA         -3.3041  -26.1790  -50.2672 C.3       15 UNK         0.1400 
     86 CB         -1.9770  -25.6932  -50.8709 C.3       15 UNK        -0.1800 
     87 C          -4.4619  -25.2592  -50.6728 C.2       15 UNK         0.5000 
     88 O          -5.2268  -25.6122  -51.5715 O.2       15 UNK        -0.5000 
     89 N          -4.5750  -24.1022  -50.0043 N.am      16 UNK        -0.5000 
     90 CA         -5.5530  -23.0440  -50.2697 C.3       16 UNK         0.1400 
     91 CB         -6.9688  -23.4997  -49.8485 C.3       16 UNK        -0.1800 
     92 C          -5.4514  -22.5570  -51.7323 C.2       16 UNK         0.5000 
     93 O          -4.3612  -22.1806  -52.1633 O.2       16 UNK        -0.5000 
     94 N          -6.5570  -22.6136  -52.4866 N.am      17 UNK        -0.5000 
     95 CA         -6.6360  -22.2412  -53.9016 C.3       17 UNK         0.1400 
     96 CB         -8.0988  -22.3335  -54.3601 C.3       17 UNK        -0.1800 
     97 C          -5.7274  -23.0711  -54.8326 C.2       17 UNK         0.5000 
     98 O          -5.3175  -22.5643  -55.8779 O.2       17 UNK        -0.5000 
     99 N          -5.3959  -24.3100  -54.4359 N.am      18 UNK        -0.5000 
    100 CA        -4.5144  -25.2102  -55.1860 C.3       18 UNK         0.1400 
    101 CB        -4.6836  -26.6473  -54.6686 C.3       18 UNK        -0.1800 
    102 C         -3.0301  -24.7916  -55.1539 C.2       18 UNK         0.5000 
    103 O         -2.2392  -25.3379  -55.9236 O.2       18 UNK        -0.5000 
    104 N         -2.6706  -23.8318  -54.2877 N.am      19 UNK        -0.5000 
    105 CA        -1.3251  -23.2655  -54.1878 C.3       19 UNK         0.1400 
    106 CB        -1.2343  -22.4269  -52.9067 C.3       19 UNK        -0.1800 
    107 C         -0.9294  -22.3879  -55.3906 C.2       19 UNK         0.5000 
    108 O          0.2592  -22.1173  -55.5639 O.2       19 UNK        -0.5000 
    109 N         -1.9229  -21.9054  -56.1552 N.am      20 UNK        -0.5000 
    110 CA        -1.8495  -20.9639  -57.2841 C.3       20 UNK         0.1400 
    111 CB        -0.9482  -21.4904  -58.4166 C.3       20 UNK        -0.1800 
    112 C         -1.4614  -19.5286  -56.8728 C.2       20 UNK         0.5000 
    113 O         -2.0860  -18.5757  -57.3411 O.2       20 UNK        -0.5000 
    114 N         -0.4982  -19.3959  -55.9502 N.am      21 UNK        -0.5000 
    115 CA        -0.0729  -18.1526  -55.2969 C.3       21 UNK         0.1400 
    116 CB         1.0950  -18.4697  -54.3497 C.3       21 UNK        -0.1800 
    117 C         -1.2030  -17.4415  -54.5245 C.2       21 UNK         0.5000 
    118 O         -1.1434  -16.2258  -54.3392 O.2       21 UNK        -0.5000 
    119 N         -2.2187  -18.2139  -54.1203 N.am      22 UNK        -0.5000 
    120 CA        -3.4713  -17.7374  -53.5223 C.3       22 UNK         0.1400 
    121 C         -4.4249  -16.9990  -54.5114 C.2       22 UNK         0.5000 
    122 N         -4.2002  -17.0394  -55.8208 N.am      22 UNK        -0.7600 
    123 O         -5.3880  -16.3701  -54.0830 O.2       22 UNK        -0.5000 
    124 C124       -4.1979  -18.8945  -52.7807 C.3       23 UNK        -0.0398 
    125 S125       -4.8194  -18.3938  -51.1426 S.3       23 UNK        -0.2404 
    126 C126       -3.6751  -19.2810  -50.0312 C.3       23 UNK        -0.0205 
    127 H127       -4.9026  -13.5369  -47.5567 H         1 UNK         0.0600 
    128 H128       -5.2715  -13.1747  -45.8676 H         1 UNK         0.0600 
    129 H129       -4.6998  -11.8938  -46.9419 H         1 UNK         0.0600 
    130 H130       -2.9513  -14.5895  -47.8019 H         1 UNK         0.3000 
    131 H131       -0.5097  -13.6087  -46.7996 H         1 UNK         0.0600 
    132 H132        0.5351  -15.5451  -47.8753 H         1 UNK         0.0800 
    133 H133       -0.9968  -16.3876  -47.9637 H         1 UNK         0.0800 
    134 H134        1.1119  -15.7918  -50.5002 H         1 UNK         0.0800 
    135 H135       -0.0984  -15.5724  -51.7417 H         1 UNK         0.0800 
    136 H136       -2.5129  -16.8272  -50.3362 H         1 UNK         0.1150 
    137 H137       -1.5852  -20.9980  -50.2084 H         1 UNK         0.1150 
    138 H138        1.5520  -18.1177  -50.7194 H         1 UNK         0.1150 
    139 H139        2.0861  -20.4253  -50.0138 H         1 UNK         0.0800 
    140 H140        1.4738  -20.8904  -51.5779 H         1 UNK         0.0800 
    141 H141        0.3942  -21.0230  -47.9151 H         1 UNK         0.0800 
    142 H142        1.7350  -22.1195  -47.7216 H         1 UNK         0.0800 
    143 H143        0.0019  -24.0472  -47.6484 H         1 UNK         0.0600 
    144 H144        0.6837  -22.2439  -45.5288 H         1 UNK         0.3000 
    145 H145       -0.6269  -24.1894  -42.8548 H         1 UNK         0.0600 
    146 H146        1.5479  -25.2724  -43.4387 H         1 UNK         0.0600 
    147 H147        1.7468  -24.1010  -42.1454 H         1 UNK         0.0600 
    148 H148        2.2552  -23.6990  -43.7857 H         1 UNK         0.0600 
    149 H149        0.9174  -21.7775  -42.9561 H         1 UNK         0.3000 
    150 H150       -1.7919  -19.5074  -43.3018 H         1 UNK         0.0600 
    151 H151       -0.0644  -20.1335  -40.8489 H         1 UNK         0.0600 
    152 H152       -1.8233  -20.0729  -40.8702 H         1 UNK         0.0600 
    153 H153       -0.8961  -18.6123  -41.1719 H         1 UNK         0.0600 
    154 H154        0.9646  -19.0373  -42.8496 H         1 UNK         0.3000 
    155 H155        2.6305  -19.4002  -45.1243 H         1 UNK         0.0600 
    156 H156        0.8718  -17.6779  -46.9319 H         1 UNK         0.0600 
    157 H157        1.7387  -19.1392  -47.3720 H         1 UNK         0.0600 
    158 H158        2.6339  -17.6774  -46.9962 H         1 UNK         0.0600 
    159 H159        1.6515  -16.6350  -44.7295 H         1 UNK         0.3000 
    160 H160        2.0955  -15.9384  -42.0246 H         1 UNK         0.0600 
    161 H161        5.1336  -16.3052  -42.1516 H         1 UNK         0.0600 
    162 H162        4.0715  -16.8072  -40.8429 H         1 UNK         0.0600 
    163 H163        4.3014  -15.0984  -41.1737 H         1 UNK         0.0600 
    164 H164        2.3273  -14.2982  -43.4323 H         1 UNK         0.3000 
    165 H165        4.8666  -13.2858  -45.7255 H         1 UNK         0.0600 
    166 H166        3.0924  -14.5091  -47.0858 H         1 UNK         0.0600 
    167 H167        1.8670  -13.6179  -46.1880 H         1 UNK         0.0600 
    168 H168        3.0166  -12.7560  -47.1990 H         1 UNK         0.0600 
    169 H169        2.6685  -12.5210  -43.8523 H         1 UNK         0.3000 
    170 H170        4.4067   -9.5911  -42.9945 H         1 UNK         0.0600 
    171 H171        2.2773   -8.3684  -43.3698 H         1 UNK         0.0600 
    172 H172        1.7066   -9.6411  -44.4504 H         1 UNK         0.0600 
    173 H173        3.0887   -8.6498  -44.9016 H         1 UNK         0.0600 
    174 H174        1.8529  -10.6297  -42.2098 H         1 UNK         0.3000 
    175 H175        2.8002  -13.2847  -40.2559 H         1 UNK         0.0600 
    176 H176        3.6865  -11.6150  -38.6119 H         1 UNK         0.0600 
    177 H177        2.2979  -10.5772  -38.9127 H         1 UNK         0.0600 
    178 H178        2.0790  -12.1639  -38.1725 H         1 UNK         0.0600 
    179 H179        0.4296  -11.9233  -39.9363 H         1 UNK         0.3000 
    180 H180       -1.4191  -12.9496  -40.8008 H         1 UNK         0.0600 
    181 H181       -1.2088  -11.2909  -43.3785 H         1 UNK         0.0600 
    182 H182       -1.2912  -10.6438  -41.7443 H         1 UNK         0.0600 
    183 H183       -2.6723  -11.4954  -42.4179 H         1 UNK         0.0600 
    184 H184       -1.8909  -13.6580  -43.5513 H         1 UNK         0.3000 
    185 H185       -1.0344  -17.0274  -43.4274 H         1 UNK         0.0600 
    186 H186       -3.1162  -17.3396  -42.0902 H         1 UNK         0.0600 
    187 H187       -3.9400  -16.1200  -43.0548 H         1 UNK         0.0600 
    188 H188       -3.4238  -17.6357  -43.7942 H         1 UNK         0.0600 
    189 H189       -2.7799  -15.5169  -45.1496 H         1 UNK         0.3000 
    190 H190       -1.5613  -21.1364  -46.2646 H         1 UNK         0.3000 
    191 H191       -3.8816  -21.1361  -47.8624 H         1 UNK         0.0600 
    192 H192       -3.1167  -19.2113  -46.4682 H         1 UNK         0.0600 
    193 H193       -4.7839  -19.6307  -46.0988 H         1 UNK         0.0600 
    194 H194       -3.4961  -20.1101  -45.0006 H         1 UNK         0.0600 
    195 H195       -3.1969  -22.9158  -44.8510 H         1 UNK         0.3000 
    196 H196       -5.8688  -23.9710  -44.5635 H         1 UNK         0.0600 
    197 H197       -4.7901  -25.4005  -42.8190 H         1 UNK         0.0600 
    198 H198       -4.3842  -23.7028  -42.6192 H         1 UNK         0.0600 
    199 H199       -3.2049  -24.8136  -43.3096 H         1 UNK         0.0600 
    200 H200       -2.7445  -25.4502  -45.6706 H         1 UNK         0.3000 
    201 H201       -4.0100  -27.9978  -46.1019 H         1 UNK         0.0600 
    202 H202       -1.7388  -28.7171  -46.7476 H         1 UNK         0.0600 
    203 H203       -1.6822  -27.7663  -45.2708 H         1 UNK         0.0600 
    204 H204       -1.1880  -27.0482  -46.8031 H         1 UNK         0.0600 
    205 H205       -2.7102  -25.4931  -48.3504 H         1 UNK         0.3000 
    206 H206       -3.5074  -27.1657  -50.6890 H         1 UNK         0.0600 
    207 H207       -1.1732  -26.4012  -50.6694 H         1 UNK         0.0600 
    208 H208       -2.0542  -25.5890  -51.9538 H         1 UNK         0.0600 
    209 H209       -1.6754  -24.7275  -50.4663 H         1 UNK         0.0600 
    210 H210       -3.8585  -23.8806  -49.3180 H         1 UNK         0.3000 
    211 H211       -5.2762  -22.1986  -49.6405 H         1 UNK         0.0600 
    212 H212       -7.6862  -22.6822  -49.9286 H         1 UNK         0.0600 
    213 H213       -6.9759  -23.8270  -48.8087 H         1 UNK         0.0600 
    214 H214       -7.3357  -24.3306  -50.4518 H         1 UNK         0.0600 
    215 H215       -7.4049  -22.9650  -52.0663 H         1 UNK         0.3000 
    216 H216       -6.3193  -21.2006  -53.9866 H         1 UNK         0.0600 
    217 H217       -8.7395  -21.6759  -53.7724 H         1 UNK         0.0600 
    218 H218       -8.4849  -23.3496  -54.2695 H         1 UNK         0.0600 
    219 H219       -8.2012  -22.0352  -55.4045 H         1 UNK         0.0600 
    220 H220       -5.7187  -24.6431  -53.5349 H         1 UNK         0.3000 
    221 H221       -4.8313  -25.1934  -56.2309 H         1 UNK         0.0600 
    222 H222       -4.2657  -26.7703  -53.6698 H         1 UNK         0.0600 
    223 H223       -5.7335  -26.9390  -54.6353 H         1 UNK         0.0600 
    224 H224       -4.1708  -27.3556  -55.3204 H         1 UNK         0.0600 
    225 H225       -3.3738  -23.4303  -53.6779 H         1 UNK         0.3000 
    226 H226       -0.6088  -24.0866  -54.1179 H         1 UNK         0.0600 
    227 H227       -1.5194  -23.0007  -52.0267 H         1 UNK         0.0600 
    228 H228       -0.2152  -22.0755  -52.7518 H         1 UNK         0.0600 
    229 H229       -1.8764  -21.5473  -52.9517 H         1 UNK         0.0600 
    230 H230       -2.8627  -22.1840  -55.9039 H         1 UNK         0.3000 
    231 H231       -2.8654  -20.9088  -57.6789 H         1 UNK         0.0600 
    232 H232        0.1011  -21.5290  -58.1239 H         1 UNK         0.0600 
    233 H233       -1.0148  -20.8460  -59.2940 H         1 UNK         0.0600 
    234 H234       -1.2482  -22.4919  -58.7250 H         1 UNK         0.0600 
    235 H235       -0.0319  -20.2490  -55.6536 H         1 UNK         0.3000 
    236 H236        0.2791  -17.4697  -56.0722 H         1 UNK         0.0600 
    237 H237        1.4501  -17.5683  -53.8482 H         1 UNK         0.0600 
    238 H238        0.8006  -19.1804  -53.5761 H         1 UNK         0.0600 
    239 H239        1.9397  -18.8948  -54.8919 H         1 UNK         0.0600 
    240 H240       -2.1679  -19.1986  -54.3278 H         1 UNK         0.3000 
    241 H241       -3.1794  -16.9828  -52.7900 H         1 UNK         0.0600 
    242 H242       -3.4121  -17.5445  -56.2103 H         1 UNK         0.3800 
    243 H243       -4.8267  -16.5505  -56.4404 H         1 UNK         0.3800 
    244 H244       -5.0295  -19.2921  -53.3639 H         1 UNK         0.0800 
    245 H245       -3.5273  -19.7418  -52.6375 H         1 UNK         0.0800 
    246 H246       -3.9375  -19.0349  -49.0023 H         1 UNK         0.0800 
    247 H247       -3.8399  -20.3512  -50.1522 H         1 UNK         0.0800 
@<TRIPOS>BOND
     1    1    2 1    
     2    1  127 1    
     3    1  128 1    
     4    1  129 1    
     5    2    3 2    
     6    2    4 am   BACKBONE|DICT|INTERRES
     7    4    5 1    
     8    4  130 1    
     9    5    6 1    
    10    5   65 1    
    11    5  131 1    
    12    6    7 1    
    13    6  132 1    
    14    6  133 1    
    15    7    8 1    
    16    8    9 1    
    17    8  134 1    
    18    8  135 1    
    19    9   10 ar   
    20    9   14 ar   
    21   10   11 ar   
    22   10  136 1    
    23   11   12 ar   
    24   11  126 1    
    25   12   13 ar   
    26   12  137 1    
    27   13   14 ar   
    28   13   15 1    
    29   14  138 1    
    30   15   16 1    
    31   15  139 1    
    32   15  140 1    
    33   16   17 1    
    34   17   18 1    
    35   17  141 1    
    36   17  142 1    
    37   18   19 1    
    38   18   67 1    
    39   18  143 1    
    40   19   20 am   BACKBONE|DICT|INTERRES
    41   19  144 1    
    42   20   21 2    
    43   20   22 1    
    44   22   23 1    
    45   22   24 1    
    46   22  145 1    
    47   23  146 1    
    48   23  147 1    
    49   23  148 1    
    50   24   25 am   BACKBONE|DICT|INTERRES
    51   24  149 1    
    52   25   26 2    
    53   25   27 1    
    54   27   28 1    
    55   27   29 1    
    56   27  150 1    
    57   28  151 1    
    58   28  152 1    
    59   28  153 1    
    60   29   30 am   BACKBONE|DICT|INTERRES
    61   29  154 1    
    62   30   31 2    
    63   30   32 1    
    64   32   33 1    
    65   32   34 1    
    66   32  155 1    
    67   33  156 1    
    68   33  157 1    
    69   33  158 1    
    70   34   35 am   BACKBONE|DICT|INTERRES
    71   34  159 1    
    72   35   36 2    
    73   35   37 1    
    74   37   38 1    
    75   37   39 1    
    76   37  160 1    
    77   38  161 1    
    78   38  162 1    
    79   38  163 1    
    80   39   40 am   BACKBONE|DICT|INTERRES
    81   39  164 1    
    82   40   41 2    
    83   40   42 1    
    84   42   43 1    
    85   42   44 1    
    86   42  165 1    
    87   43  166 1    
    88   43  167 1    
    89   43  168 1    
    90   44   45 am   BACKBONE|DICT|INTERRES
    91   44  169 1    
    92   45   46 2    
    93   45   47 1    
    94   47   48 1    
    95   47   49 1    
    96   47  170 1    
    97   48  171 1    
    98   48  172 1    
    99   48  173 1    
   100   49   50 am   BACKBONE|DICT|INTERRES
   101   49  174 1    
   102   50   51 2    
   103   50   52 1    
   104   52   53 1    
   105   52   54 1    
   106   52  175 1    
   107   53  176 1    
   108   53  177 1    
   109   53  178 1    
   110   54   55 am   BACKBONE|DICT|INTERRES
   111   54  179 1    
   112   55   56 2    
   113   55   57 1    
   114   57   58 1    
   115   57   59 1    
   116   57  180 1    
   117   58  181 1    
   118   58  182 1    
   119   58  183 1    
   120   59   60 am   BACKBONE|DICT|INTERRES
   121   59  184 1    
   122   60   61 2    
   123   60   62 1    
   124   62   63 1    
   125   62   64 1    
   126   62  185 1    
   127   63  186 1    
   128   63  187 1    
   129   63  188 1    
   130   64   65 am   BACKBONE|DICT|INTERRES
   131   64  189 1    
   132   65   66 2    
   133   67   68 2    
   134   67   69 am   BACKBONE|DICT|INTERRES
   135   69   70 1    
   136   69  190 1    
   137   70   71 1    
   138   70   72 1    
   139   70  191 1    
   140   71  192 1    
   141   71  193 1    
   142   71  194 1    
   143   72   73 2    
   144   72   74 am   BACKBONE|DICT|INTERRES
   145   74   75 1    
   146   74  195 1    
   147   75   76 1    
   148   75   77 1    
   149   75  196 1    
   150   76  197 1    
   151   76  198 1    
   152   76  199 1    
   153   77   78 2    
   154   77   79 am   BACKBONE|DICT|INTERRES
   155   79   80 1    
   156   79  200 1    
   157   80   81 1    
   158   80   82 1    
   159   80  201 1    
   160   81  202 1    
   161   81  203 1    
   162   81  204 1    
   163   82   83 2    
   164   82   84 am   BACKBONE|DICT|INTERRES
   165   84   85 1    
   166   84  205 1    
   167   85   86 1    
   168   85   87 1    
   169   85  206 1    
   170   86  207 1    
   171   86  208 1    
   172   86  209 1    
   173   87   88 2    
   174   87   89 am   BACKBONE|DICT|INTERRES
   175   89   90 1    
   176   89  210 1    
   177   90   91 1    
   178   90   92 1    
   179   90  211 1    
   180   91  212 1    
   181   91  213 1    
   182   91  214 1    
   183   92   93 2    
   184   92   94 am   BACKBONE|DICT|INTERRES
   185   94   95 1    
   186   94  215 1    
   187   95   96 1    
   188   95   97 1    
   189   95  216 1    
   190   96  217 1    
   191   96  218 1    
   192   96  219 1    
   193   97   98 2    
   194   97   99 am   BACKBONE|DICT|INTERRES
   195   99  100 1    
   196   99  220 1    
   197  100  101 1    
   198  100  102 1    
   199  100  221 1    
   200  101  222 1    
   201  101  223 1    
   202  101  224 1    
   203  102  103 2    
   204  102  104 am   BACKBONE|DICT|INTERRES
   205  104  105 1    
   206  104  225 1    
   207  105  106 1    
   208  105  107 1    
   209  105  226 1    
   210  106  227 1    
   211  106  228 1    
   212  106  229 1    
   213  107  108 2    
   214  107  109 am   BACKBONE|DICT|INTERRES
   215  109  110 1    
   216  109  230 1    
   217  110  111 1    
   218  110  112 1    
   219  110  231 1    
   220  111  232 1    
   221  111  233 1    
   222  111  234 1    
   223  112  113 2    
   224  112  114 am   BACKBONE|DICT|INTERRES
   225  114  115 1    
   226  114  235 1    
   227  115  116 1    
   228  115  117 1    
   229  115  236 1    
   230  116  237 1    
   231  116  238 1    
   232  116  239 1    
   233  117  118 2    
   234  117  119 am   BACKBONE|DICT|INTERRES
   235  119  120 1    
   236  119  240 1    
   237  120  121 1    
   238  120  124 1    
   239  120  241 1    
   240  121  122 am   BACKBONE|DICT|INTERRES
   241  121  123 2    
   242  122  242 1    
   243  122  243 1    
   244  124  125 1    
   245  124  244 1    
   246  124  245 1    
   247  125  126 1    
   248  126  246 1    
   249  126  247 1    
@<TRIPOS>SUBSTRUCTURE
     1 UNK         1 GROUP             0       ****    0 ROOT    
