@<TRIPOS>MOLECULE
3R540
247   249    1
SMALL
USER_CHARGES


@<TRIPOS>ATOM
      1 CA          8.2058  -13.8395  -50.9957 C.3       0 UNK        -0.1800 
      2 C           7.8494  -14.7241  -49.8090 C.2       0 UNK         0.5000 
      3 O           8.7046  -15.4587  -49.3130 O.2       0 UNK        -0.5000 
      4 N           6.5906  -14.6624  -49.3603 N.am      1 UNK        -0.5000 
      5 CA          6.0803  -15.3740  -48.1850 C.3       1 UNK         0.1400 
      6 C6          4.5485  -15.5868  -48.2696 C.3       23 UNK        -0.0398 
      7 S7          3.5693  -14.0460  -48.3840 S.3       23 UNK        -0.2404 
      8 C8          2.7871  -14.2223  -50.0179 C.3       23 UNK        -0.0205 
      9 C9          1.6863  -15.2737  -50.0162 C.ar      23 UNK        -0.0193 
     10 C10         0.4368  -14.9765  -49.4631 C.ar      23 UNK        -0.1150 
     11 C11        -0.5899  -15.9240  -49.4840 C.ar      23 UNK        -0.0193 
     12 C12        -0.3662  -17.1666  -50.0753 C.ar      23 UNK        -0.1150 
     13 C13         0.8858  -17.4906  -50.6028 C.ar      23 UNK        -0.0193 
     14 C14         1.9073  -16.5363  -50.5779 C.ar      23 UNK        -0.1150 
     15 C15         1.1238  -18.8651  -51.2118 C.3       23 UNK        -0.0205 
     16 S16         1.7677  -20.0745  -50.0061 S.3       23 UNK        -0.2404 
     17 C17         0.5047  -20.1037  -48.6843 C.3       23 UNK        -0.0398 
     18 CA          0.2723  -21.5230  -48.0989 C.3       11 UNK         0.1400 
     19 N           0.2541  -21.5152  -46.6349 N.am      11 UNK        -0.5000 
     20 C           0.3879  -22.6071  -45.8707 C.2       10 UNK         0.5000 
     21 O           0.4107  -23.7522  -46.3220 O.2       10 UNK        -0.5000 
     22 CA          0.5214  -22.3843  -44.3565 C.3       10 UNK         0.1400 
     23 CB          1.9352  -21.8913  -44.0100 C.3       10 UNK        -0.1800 
     24 N          -0.4547  -21.4053  -43.8852 N.am      10 UNK        -0.5000 
     25 C          -1.5778  -21.7073  -43.2207 C.2       9 UNK         0.5000 
     26 O          -1.8791  -22.8473  -42.8657 O.2       9 UNK        -0.5000 
     27 CA         -2.5434  -20.5438  -42.9082 C.3       9 UNK         0.1400 
     28 CB         -2.2758  -19.9884  -41.5013 C.3       9 UNK        -0.1800 
     29 N          -2.4892  -19.4392  -43.8693 N.am      9 UNK        -0.5000 
     30 C          -2.7314  -19.5485  -45.1834 C.2       8 UNK         0.5000 
     31 O          -3.0250  -20.6042  -45.7379 O.2       8 UNK        -0.5000 
     32 CA         -2.5494  -18.2810  -46.0370 C.3       8 UNK         0.1400 
     33 CB         -3.8668  -17.4901  -46.0574 C.3       8 UNK        -0.1800 
     34 N          -1.4545  -17.4081  -45.5944 N.am      8 UNK        -0.5000 
     35 C          -0.1907  -17.7948  -45.3466 C.2       7 UNK         0.5000 
     36 O           0.2010  -18.9560  -45.4741 O.2       7 UNK        -0.5000 
     37 CA          0.8125  -16.7393  -44.8433 C.3       7 UNK         0.1400 
     38 CB          1.8186  -16.4058  -45.9522 C.3       7 UNK        -0.1800 
     39 N           0.2098  -15.5014  -44.3443 N.am      7 UNK        -0.5000 
     40 C          -0.6236  -15.4121  -43.2970 C.2       6 UNK         0.5000 
     41 O          -0.9440  -16.3747  -42.5979 O.2       6 UNK        -0.5000 
     42 CA         -1.2433  -14.0312  -43.0062 C.3       6 UNK         0.1400 
     43 CB         -0.4379  -13.2902  -41.9301 C.3       6 UNK        -0.1800 
     44 N          -1.3692  -13.1661  -44.1814 N.am      6 UNK        -0.5000 
     45 C          -2.0879  -13.4210  -45.2815 C.2       5 UNK         0.5000 
     46 O          -2.7099  -14.4683  -45.4569 O.2       5 UNK        -0.5000 
     47 CA         -2.0894  -12.3471  -46.3898 C.3       5 UNK         0.1400 
     48 CB         -3.0847  -11.2155  -46.0733 C.3       5 UNK        -0.1800 
     49 N          -0.7566  -11.8287  -46.7286 N.am      5 UNK        -0.5000 
     50 C           0.0763  -11.0992  -45.9749 C.2       4 UNK         0.5000 
     51 O          -0.1964  -10.6707  -44.8506 O.2       4 UNK        -0.5000 
     52 CA          1.4713  -10.8363  -46.5701 C.3       4 UNK         0.1400 
     53 CB          1.5802   -9.3928  -47.0834 C.3       4 UNK        -0.1800 
     54 N           2.5353  -11.0851  -45.5960 N.am      4 UNK        -0.5000 
     55 C           2.7670  -12.2633  -45.0031 C.2       3 UNK         0.5000 
     56 O           2.1055  -13.2833  -45.2099 O.2       3 UNK        -0.5000 
     57 CA          3.9277  -12.3150  -44.0054 C.3       3 UNK         0.1400 
     58 CB          3.4108  -12.3800  -42.5568 C.3       3 UNK        -0.1800 
     59 N           4.7389  -13.4868  -44.3117 N.am      3 UNK        -0.5000 
     60 C           5.9987  -13.6821  -43.9071 C.2       2 UNK         0.5000 
     61 O           6.6151  -12.8968  -43.1852 O.2       2 UNK        -0.5000 
     62 CA          6.7005  -14.9651  -44.3956 C.3       2 UNK         0.1400 
     63 CB          6.4476  -16.1185  -43.4119 C.3       2 UNK        -0.1800 
     64 N           6.3127  -15.3950  -45.7429 N.am      2 UNK        -0.5000 
     65 C           6.5137  -14.6903  -46.8663 C.2       1 UNK         0.5000 
     66 O           7.0146  -13.5621  -46.8821 O.2       1 UNK        -0.5000 
     67 C          -0.9643  -22.2218  -48.7045 C.2       11 UNK         0.5000 
     68 O          -0.8145  -22.9727  -49.6683 O.2       11 UNK        -0.5000 
     69 N          -2.1533  -22.0211  -48.1110 N.am      12 UNK        -0.5000 
     70 CA         -3.3832  -22.6972  -48.5353 C.3       12 UNK         0.1400 
     71 CB         -4.6211  -22.0037  -47.9507 C.3       12 UNK        -0.1800 
     72 C          -3.3793  -24.1859  -48.1615 C.2       12 UNK         0.5000 
     73 O          -3.9173  -24.9933  -48.9155 O.2       12 UNK        -0.5000 
     74 N          -2.7464  -24.5332  -47.0313 N.am      13 UNK        -0.5000 
     75 CA         -2.5527  -25.9160  -46.5941 C.3       13 UNK         0.1400 
     76 CB         -2.0516  -25.9441  -45.1422 C.3       13 UNK        -0.1800 
     77 C          -1.6043  -26.6810  -47.5344 C.2       13 UNK         0.5000 
     78 O          -1.9100  -27.8117  -47.9133 O.2       13 UNK        -0.5000 
     79 N          -0.5113  -26.0255  -47.9526 N.am      14 UNK        -0.5000 
     80 CA          0.4283  -26.5236  -48.9610 C.3       14 UNK         0.1400 
     81 CB          1.6389  -25.5812  -49.0385 C.3       14 UNK        -0.1800 
     82 C          -0.2186  -26.7023  -50.3501 C.2       14 UNK         0.5000 
     83 O           0.1036  -27.6606  -51.0527 O.2       14 UNK        -0.5000 
     84 N          -1.1503  -25.8049  -50.6988 N.am      15 UNK        -0.5000 
     85 CA         -1.9701  -25.8583  -51.9118 C.3       15 UNK         0.1400 
     86 CB         -2.4310  -24.4328  -52.2552 C.3       15 UNK        -0.1800 
     87 C          -3.1827  -26.8100  -51.8035 C.2       15 UNK         0.5000 
     88 O          -3.9674  -26.8812  -52.7500 O.2       15 UNK        -0.5000 
     89 N          -3.3462  -27.4979  -50.6616 N.am      16 UNK        -0.5000 
     90 CA         -4.4257  -28.4391  -50.3339 C.3       16 UNK         0.1400 
     91 CB         -4.2931  -29.7219  -51.1805 C.3       16 UNK        -0.1800 
     92 C          -5.8369  -27.8130  -50.4115 C.2       16 UNK         0.5000 
     93 O          -6.7964  -28.4917  -50.7814 O.2       16 UNK        -0.5000 
     94 N          -5.9237  -26.5168  -50.0795 N.am      17 UNK        -0.5000 
     95 CA         -7.0976  -25.6391  -50.1123 C.3       17 UNK         0.1400 
     96 CB         -8.1711  -26.1207  -49.1151 C.3       17 UNK        -0.1800 
     97 C          -7.6752  -25.3829  -51.5224 C.2       17 UNK         0.5000 
     98 O          -8.7645  -24.8172  -51.6304 O.2       17 UNK        -0.5000 
     99 N          -6.9474  -25.7682  -52.5812 N.am      18 UNK        -0.5000 
    100 CA        -7.3452  -25.5561  -53.9756 C.3       18 UNK         0.1400 
    101 CB        -6.6311  -26.5888  -54.8611 C.3       18 UNK        -0.1800 
    102 C         -7.0482  -24.1269  -54.4701 C.2       18 UNK         0.5000 
    103 O         -7.6201  -23.7019  -55.4749 O.2       18 UNK        -0.5000 
    104 N         -6.1609  -23.4175  -53.7657 N.am      19 UNK        -0.5000 
    105 CA        -5.7004  -22.0630  -54.0434 C.3       19 UNK         0.1400 
    106 CB        -4.7228  -22.0793  -55.2377 C.3       19 UNK        -0.1800 
    107 C         -5.0358  -21.5117  -52.7701 C.2       19 UNK         0.5000 
    108 O         -5.0378  -22.1887  -51.7384 O.2       19 UNK        -0.5000 
    109 N         -4.4645  -20.3023  -52.8736 N.am      20 UNK        -0.5000 
    110 CA        -3.5948  -19.6415  -51.8874 C.3       20 UNK         0.1400 
    111 CB        -2.3208  -20.4775  -51.6545 C.3       20 UNK        -0.1800 
    112 C         -4.2756  -19.2125  -50.5684 C.2       20 UNK         0.5000 
    113 O         -3.5911  -18.7951  -49.6321 O.2       20 UNK        -0.5000 
    114 N         -5.6100  -19.2774  -50.5209 N.am      21 UNK        -0.5000 
    115 CA        -6.4326  -18.8238  -49.4059 C.3       21 UNK         0.1400 
    116 CB        -7.7265  -19.6564  -49.3787 C.3       21 UNK        -0.1800 
    117 C         -6.6996  -17.3138  -49.5382 C.2       21 UNK         0.5000 
    118 O         -7.7495  -16.9176  -50.0479 O.2       21 UNK        -0.5000 
    119 N         -5.7269  -16.4986  -49.1096 N.am      22 UNK        -0.5000 
    120 CA        -5.7996  -15.0244  -49.1308 C.3       22 UNK         0.1400 
    121 C         -6.8814  -14.4013  -48.1961 C.2       22 UNK         0.5000 
    122 N         -7.4103  -15.1193  -47.2124 N.am      22 UNK        -0.7600 
    123 O         -7.2462  -13.2417  -48.3692 O.2       22 UNK        -0.5000 
    124 C124       -4.4293  -14.3565  -48.8479 C.3       23 UNK        -0.0398 
    125 S125       -3.0964  -14.8539  -49.9925 S.3       23 UNK        -0.2404 
    126 C126       -1.9292  -15.6294  -48.8355 C.3       23 UNK        -0.0205 
    127 H127        7.3504  -13.2565  -51.3383 H         1 UNK         0.0600 
    128 H128        9.0013  -13.1466  -50.7212 H         1 UNK         0.0600 
    129 H129        8.5558  -14.4503  -51.8279 H         1 UNK         0.0600 
    130 H130        5.9461  -14.0060  -49.7763 H         1 UNK         0.3000 
    131 H131        6.5363  -16.3667  -48.1788 H         1 UNK         0.0600 
    132 H132        4.3326  -16.2181  -49.1309 H         1 UNK         0.0800 
    133 H133        4.1949  -16.1570  -47.4119 H         1 UNK         0.0800 
    134 H134        2.3621  -13.2602  -50.3073 H         1 UNK         0.0800 
    135 H135        3.5461  -14.4551  -50.7663 H         1 UNK         0.0800 
    136 H136        0.2674  -14.0093  -49.0129 H         1 UNK         0.1150 
    137 H137       -1.1711  -17.8848  -50.1079 H         1 UNK         0.1150 
    138 H138        2.8723  -16.7772  -51.0010 H         1 UNK         0.1150 
    139 H139        0.2123  -19.2429  -51.6692 H         1 UNK         0.0800 
    140 H140        1.8431  -18.7797  -52.0276 H         1 UNK         0.0800 
    141 H141       -0.4314  -19.6651  -49.0221 H         1 UNK         0.0800 
    142 H142        0.8765  -19.4234  -47.9186 H         1 UNK         0.0800 
    143 H143        1.1301  -22.1426  -48.3709 H         1 UNK         0.0600 
    144 H144        0.2415  -20.6000  -46.1897 H         1 UNK         0.3000 
    145 H145        0.3714  -23.3472  -43.8637 H         1 UNK         0.0600 
    146 H146        2.0604  -21.7879  -42.9321 H         1 UNK         0.0600 
    147 H147        2.6911  -22.5959  -44.3591 H         1 UNK         0.0600 
    148 H148        2.1511  -20.9237  -44.4652 H         1 UNK         0.0600 
    149 H149       -0.3081  -20.4459  -44.1774 H         1 UNK         0.3000 
    150 H150       -3.5571  -20.9488  -42.9308 H         1 UNK         0.0600 
    151 H151       -2.3271  -20.7787  -40.7512 H         1 UNK         0.0600 
    152 H152       -3.0135  -19.2337  -41.2278 H         1 UNK         0.0600 
    153 H153       -1.2875  -19.5317  -41.4319 H         1 UNK         0.0600 
    154 H154       -2.2189  -18.5353  -43.5058 H         1 UNK         0.3000 
    155 H155       -2.3196  -18.6016  -47.0552 H         1 UNK         0.0600 
    156 H156       -3.8091  -16.6250  -46.7131 H         1 UNK         0.0600 
    157 H157       -4.1319  -17.1290  -45.0628 H         1 UNK         0.0600 
    158 H158       -4.6900  -18.1111  -46.4124 H         1 UNK         0.0600 
    159 H159       -1.6944  -16.4350  -45.4460 H         1 UNK         0.3000 
    160 H160        1.3595  -17.1962  -44.0164 H         1 UNK         0.0600 
    161 H161        2.6534  -15.8279  -45.5582 H         1 UNK         0.0600 
    162 H162        1.3574  -15.8295  -46.7551 H         1 UNK         0.0600 
    163 H163        2.2359  -17.3108  -46.3959 H         1 UNK         0.0600 
    164 H164        0.4803  -14.6485  -44.8211 H         1 UNK         0.3000 
    165 H165       -2.2493  -14.2064  -42.6198 H         1 UNK         0.0600 
    166 H166        0.5508  -13.0152  -42.2953 H         1 UNK         0.0600 
    167 H167       -0.9444  -12.3765  -41.6187 H         1 UNK         0.0600 
    168 H168       -0.3040  -13.9077  -41.0408 H         1 UNK         0.0600 
    169 H169       -0.8763  -12.2773  -44.1519 H         1 UNK         0.3000 
    170 H170       -2.4447  -12.8333  -47.2976 H         1 UNK         0.0600 
    171 H171       -4.0927  -11.6125  -45.9461 H         1 UNK         0.0600 
    172 H172       -2.8277  -10.6854  -45.1560 H         1 UNK         0.0600 
    173 H173       -3.1228  -10.4867  -46.8829 H         1 UNK         0.0600 
    174 H174       -0.4121  -12.1300  -47.6286 H         1 UNK         0.3000 
    175 H175        1.6322  -11.5146  -47.4110 H         1 UNK         0.0600 
    176 H176        2.5463   -9.2130  -47.5555 H         1 UNK         0.0600 
    177 H177        0.8115   -9.1846  -47.8288 H         1 UNK         0.0600 
    178 H178        1.4595   -8.6687  -46.2765 H         1 UNK         0.0600 
    179 H179        3.1042  -10.2901  -45.3455 H         1 UNK         0.3000 
    180 H180        4.5387  -11.4181  -44.1289 H         1 UNK         0.0600 
    181 H181        2.8924  -13.3193  -42.3617 H         1 UNK         0.0600 
    182 H182        2.7148  -11.5657  -42.3510 H         1 UNK         0.0600 
    183 H183        4.2271  -12.2965  -41.8394 H         1 UNK         0.0600 
    184 H184        4.2976  -14.1595  -44.9244 H         1 UNK         0.3000 
    185 H185        7.7734  -14.7621  -44.4120 H         1 UNK         0.0600 
    186 H186        7.0190  -17.0055  -43.6866 H         1 UNK         0.0600 
    187 H187        6.7476  -15.8420  -42.4001 H         1 UNK         0.0600 
    188 H188        5.3927  -16.3941  -43.3771 H         1 UNK         0.0600 
    189 H189        5.9076  -16.3173  -45.8095 H         1 UNK         0.3000 
    190 H190       -2.2287  -21.4279  -47.2896 H         1 UNK         0.3000 
    191 H191       -3.4526  -22.6265  -49.6199 H         1 UNK         0.0600 
    192 H192       -4.5718  -20.9252  -48.0885 H         1 UNK         0.0600 
    193 H193       -5.5274  -22.3559  -48.4448 H         1 UNK         0.0600 
    194 H194       -4.7336  -22.2008  -46.8842 H         1 UNK         0.0600 
    195 H195       -2.3078  -23.8104  -46.4801 H         1 UNK         0.3000 
    196 H196       -3.5235  -26.4155  -46.6231 H         1 UNK         0.0600 
    197 H197       -1.9610  -26.9701  -44.7838 H         1 UNK         0.0600 
    198 H198       -2.7425  -25.4269  -44.4761 H         1 UNK         0.0600 
    199 H199       -1.0739  -25.4754  -45.0361 H         1 UNK         0.0600 
    200 H200       -0.3053  -25.1164  -47.5484 H         1 UNK         0.3000 
    201 H201        0.7802  -27.5032  -48.6314 H         1 UNK         0.0600 
    202 H202        2.1347  -25.4959  -48.0713 H         1 UNK         0.0600 
    203 H203        1.3506  -24.5787  -49.3550 H         1 UNK         0.0600 
    204 H204        2.3765  -25.9512  -49.7518 H         1 UNK         0.0600 
    205 H205       -1.3039  -25.0094  -50.0897 H         1 UNK         0.3000 
    206 H206       -1.3523  -26.2193  -52.7363 H         1 UNK         0.0600 
    207 H207       -1.5834  -23.7553  -52.3600 H         1 UNK         0.0600 
    208 H208       -2.9834  -24.4085  -53.1953 H         1 UNK         0.0600 
    209 H209       -3.0852  -24.0332  -51.4815 H         1 UNK         0.0600 
    210 H210       -2.6732  -27.3470  -49.9206 H         1 UNK         0.3000 
    211 H211       -4.2779  -28.7165  -49.2894 H         1 UNK         0.0600 
    212 H212       -4.4861  -29.5309  -52.2367 H         1 UNK         0.0600 
    213 H213       -4.9998  -30.4844  -50.8511 H         1 UNK         0.0600 
    214 H214       -3.2940  -30.1489  -51.0938 H         1 UNK         0.0600 
    215 H215       -5.0693  -26.0546  -49.7674 H         1 UNK         0.3000 
    216 H216       -6.7419  -24.6684  -49.7631 H         1 UNK         0.0600 
    217 H217       -7.7467  -26.2727  -48.1227 H         1 UNK         0.0600 
    218 H218       -8.6288  -27.0577  -49.4328 H         1 UNK         0.0600 
    219 H219       -8.9707  -25.3860  -49.0142 H         1 UNK         0.0600 
    220 H220       -6.0559  -26.2257  -52.4286 H         1 UNK         0.3000 
    221 H221       -8.4208  -25.7220  -54.0659 H         1 UNK         0.0600 
    222 H222       -5.5512  -26.4376  -54.8652 H         1 UNK         0.0600 
    223 H223       -6.8267  -27.6058  -54.5203 H         1 UNK         0.0600 
    224 H224       -6.9739  -26.5195  -55.8942 H         1 UNK         0.0600 
    225 H225       -5.7844  -23.8077  -52.9107 H         1 UNK         0.3000 
    226 H226       -6.5614  -21.4337  -54.2765 H         1 UNK         0.0600 
    227 H227       -5.1853  -22.5057  -56.1277 H         1 UNK         0.0600 
    228 H228       -4.3980  -21.0734  -55.5044 H         1 UNK         0.0600 
    229 H229       -3.8304  -22.6656  -55.0145 H         1 UNK         0.0600 
    230 H230       -4.5534  -19.8131  -53.7534 H         1 UNK         0.3000 
    231 H231       -3.2786  -18.7046  -52.3481 H         1 UNK         0.0600 
    232 H232       -1.7163  -20.5293  -52.5596 H         1 UNK         0.0600 
    233 H233       -2.5426  -21.4983  -51.3533 H         1 UNK         0.0600 
    234 H234       -1.7027  -20.0498  -50.8704 H         1 UNK         0.0600 
    235 H235       -6.0987  -19.6090  -51.3386 H         1 UNK         0.3000 
    236 H236       -5.9102  -18.9945  -48.4627 H         1 UNK         0.0600 
    237 H237       -8.3772  -19.3390  -48.5630 H         1 UNK         0.0600 
    238 H238       -8.2912  -19.5624  -50.3071 H         1 UNK         0.0600 
    239 H239       -7.5081  -20.7139  -49.2278 H         1 UNK         0.0600 
    240 H240       -4.8585  -16.9060  -48.7919 H         1 UNK         0.3000 
    241 H241       -6.0898  -14.7439  -50.1452 H         1 UNK         0.0600 
    242 H242       -7.1224  -16.0707  -47.0550 H         1 UNK         0.3800 
    243 H243       -8.1109  -14.7036  -46.6190 H         1 UNK         0.3800 
    244 H244       -4.5176  -13.2712  -48.9256 H         1 UNK         0.0800 
    245 H245       -4.1283  -14.5541  -47.8188 H         1 UNK         0.0800 
    246 H246       -1.7746  -14.9923  -47.9661 H         1 UNK         0.0800 
    247 H247       -2.3642  -16.5575  -48.4681 H         1 UNK         0.0800 
@<TRIPOS>BOND
     1    1    2 1    
     2    1  127 1    
     3    1  128 1    
     4    1  129 1    
     5    2    3 2    
     6    2    4 am   BACKBONE|DICT|INTERRES
     7    4    5 1    
     8    4  130 1    
     9    5    6 1    
    10    5   65 1    
    11    5  131 1    
    12    6    7 1    
    13    6  132 1    
    14    6  133 1    
    15    7    8 1    
    16    8    9 1    
    17    8  134 1    
    18    8  135 1    
    19    9   10 ar   
    20    9   14 ar   
    21   10   11 ar   
    22   10  136 1    
    23   11   12 ar   
    24   11  126 1    
    25   12   13 ar   
    26   12  137 1    
    27   13   14 ar   
    28   13   15 1    
    29   14  138 1    
    30   15   16 1    
    31   15  139 1    
    32   15  140 1    
    33   16   17 1    
    34   17   18 1    
    35   17  141 1    
    36   17  142 1    
    37   18   19 1    
    38   18   67 1    
    39   18  143 1    
    40   19   20 am   BACKBONE|DICT|INTERRES
    41   19  144 1    
    42   20   21 2    
    43   20   22 1    
    44   22   23 1    
    45   22   24 1    
    46   22  145 1    
    47   23  146 1    
    48   23  147 1    
    49   23  148 1    
    50   24   25 am   BACKBONE|DICT|INTERRES
    51   24  149 1    
    52   25   26 2    
    53   25   27 1    
    54   27   28 1    
    55   27   29 1    
    56   27  150 1    
    57   28  151 1    
    58   28  152 1    
    59   28  153 1    
    60   29   30 am   BACKBONE|DICT|INTERRES
    61   29  154 1    
    62   30   31 2    
    63   30   32 1    
    64   32   33 1    
    65   32   34 1    
    66   32  155 1    
    67   33  156 1    
    68   33  157 1    
    69   33  158 1    
    70   34   35 am   BACKBONE|DICT|INTERRES
    71   34  159 1    
    72   35   36 2    
    73   35   37 1    
    74   37   38 1    
    75   37   39 1    
    76   37  160 1    
    77   38  161 1    
    78   38  162 1    
    79   38  163 1    
    80   39   40 am   BACKBONE|DICT|INTERRES
    81   39  164 1    
    82   40   41 2    
    83   40   42 1    
    84   42   43 1    
    85   42   44 1    
    86   42  165 1    
    87   43  166 1    
    88   43  167 1    
    89   43  168 1    
    90   44   45 am   BACKBONE|DICT|INTERRES
    91   44  169 1    
    92   45   46 2    
    93   45   47 1    
    94   47   48 1    
    95   47   49 1    
    96   47  170 1    
    97   48  171 1    
    98   48  172 1    
    99   48  173 1    
   100   49   50 am   BACKBONE|DICT|INTERRES
   101   49  174 1    
   102   50   51 2    
   103   50   52 1    
   104   52   53 1    
   105   52   54 1    
   106   52  175 1    
   107   53  176 1    
   108   53  177 1    
   109   53  178 1    
   110   54   55 am   BACKBONE|DICT|INTERRES
   111   54  179 1    
   112   55   56 2    
   113   55   57 1    
   114   57   58 1    
   115   57   59 1    
   116   57  180 1    
   117   58  181 1    
   118   58  182 1    
   119   58  183 1    
   120   59   60 am   BACKBONE|DICT|INTERRES
   121   59  184 1    
   122   60   61 2    
   123   60   62 1    
   124   62   63 1    
   125   62   64 1    
   126   62  185 1    
   127   63  186 1    
   128   63  187 1    
   129   63  188 1    
   130   64   65 am   BACKBONE|DICT|INTERRES
   131   64  189 1    
   132   65   66 2    
   133   67   68 2    
   134   67   69 am   BACKBONE|DICT|INTERRES
   135   69   70 1    
   136   69  190 1    
   137   70   71 1    
   138   70   72 1    
   139   70  191 1    
   140   71  192 1    
   141   71  193 1    
   142   71  194 1    
   143   72   73 2    
   144   72   74 am   BACKBONE|DICT|INTERRES
   145   74   75 1    
   146   74  195 1    
   147   75   76 1    
   148   75   77 1    
   149   75  196 1    
   150   76  197 1    
   151   76  198 1    
   152   76  199 1    
   153   77   78 2    
   154   77   79 am   BACKBONE|DICT|INTERRES
   155   79   80 1    
   156   79  200 1    
   157   80   81 1    
   158   80   82 1    
   159   80  201 1    
   160   81  202 1    
   161   81  203 1    
   162   81  204 1    
   163   82   83 2    
   164   82   84 am   BACKBONE|DICT|INTERRES
   165   84   85 1    
   166   84  205 1    
   167   85   86 1    
   168   85   87 1    
   169   85  206 1    
   170   86  207 1    
   171   86  208 1    
   172   86  209 1    
   173   87   88 2    
   174   87   89 am   BACKBONE|DICT|INTERRES
   175   89   90 1    
   176   89  210 1    
   177   90   91 1    
   178   90   92 1    
   179   90  211 1    
   180   91  212 1    
   181   91  213 1    
   182   91  214 1    
   183   92   93 2    
   184   92   94 am   BACKBONE|DICT|INTERRES
   185   94   95 1    
   186   94  215 1    
   187   95   96 1    
   188   95   97 1    
   189   95  216 1    
   190   96  217 1    
   191   96  218 1    
   192   96  219 1    
   193   97   98 2    
   194   97   99 am   BACKBONE|DICT|INTERRES
   195   99  100 1    
   196   99  220 1    
   197  100  101 1    
   198  100  102 1    
   199  100  221 1    
   200  101  222 1    
   201  101  223 1    
   202  101  224 1    
   203  102  103 2    
   204  102  104 am   BACKBONE|DICT|INTERRES
   205  104  105 1    
   206  104  225 1    
   207  105  106 1    
   208  105  107 1    
   209  105  226 1    
   210  106  227 1    
   211  106  228 1    
   212  106  229 1    
   213  107  108 2    
   214  107  109 am   BACKBONE|DICT|INTERRES
   215  109  110 1    
   216  109  230 1    
   217  110  111 1    
   218  110  112 1    
   219  110  231 1    
   220  111  232 1    
   221  111  233 1    
   222  111  234 1    
   223  112  113 2    
   224  112  114 am   BACKBONE|DICT|INTERRES
   225  114  115 1    
   226  114  235 1    
   227  115  116 1    
   228  115  117 1    
   229  115  236 1    
   230  116  237 1    
   231  116  238 1    
   232  116  239 1    
   233  117  118 2    
   234  117  119 am   BACKBONE|DICT|INTERRES
   235  119  120 1    
   236  119  240 1    
   237  120  121 1    
   238  120  124 1    
   239  120  241 1    
   240  121  122 am   BACKBONE|DICT|INTERRES
   241  121  123 2    
   242  122  242 1    
   243  122  243 1    
   244  124  125 1    
   245  124  244 1    
   246  124  245 1    
   247  125  126 1    
   248  126  246 1    
   249  126  247 1    
@<TRIPOS>SUBSTRUCTURE
     1 UNK         1 GROUP             0       ****    0 ROOT    
