@<TRIPOS>MOLECULE
3R540
247   249    1
SMALL
USER_CHARGES


@<TRIPOS>ATOM
      1 CA          2.0271  -10.5597  -48.2696 C.3       0 UNK        -0.1800 
      2 C           2.0709  -11.6354  -47.1956 C.2       0 UNK         0.5000 
      3 O           2.2164  -11.3156  -46.0167 O.2       0 UNK        -0.5000 
      4 N           1.9136  -12.9057  -47.5879 N.am      1 UNK        -0.5000 
      5 CA          2.0074  -14.0982  -46.7294 C.3       1 UNK         0.1400 
      6 C6          2.0066  -15.3987  -47.5707 C.3       23 UNK        -0.0398 
      7 S7          3.5476  -15.5876  -48.5273 S.3       23 UNK        -0.2404 
      8 C8          2.9725  -15.3532  -50.2439 C.3       23 UNK        -0.0205 
      9 C9          1.9992  -16.4193  -50.7447 C.ar      23 UNK        -0.0193 
     10 C10         0.9965  -16.0562  -51.6478 C.ar      23 UNK        -0.1150 
     11 C11         0.1163  -17.0125  -52.1616 C.ar      23 UNK        -0.0193 
     12 C12         0.2233  -18.3442  -51.7477 C.ar      23 UNK        -0.1150 
     13 C13         1.2255  -18.7252  -50.8509 C.ar      23 UNK        -0.0193 
     14 C14         2.1141  -17.7612  -50.3635 C.ar      23 UNK        -0.1150 
     15 C15         1.3917  -20.1803  -50.4378 C.3       23 UNK        -0.0205 
     16 S16         1.0587  -20.4170  -48.6637 S.3       23 UNK        -0.2404 
     17 C17        -0.6592  -21.0386  -48.6303 C.3       23 UNK        -0.0398 
     18 CA         -0.7521  -22.4164  -47.9279 C.3       11 UNK         0.1400 
     19 N          -0.1494  -22.4100  -46.5895 N.am      11 UNK        -0.5000 
     20 C           0.1069  -23.5025  -45.8581 C.2       10 UNK         0.5000 
     21 O          -0.0993  -24.6486  -46.2511 O.2       10 UNK        -0.5000 
     22 CA          0.6226  -23.2749  -44.4275 C.3       10 UNK         0.1400 
     23 CB          2.1517  -23.1330  -44.4081 C.3       10 UNK        -0.1800 
     24 N          -0.0012  -22.1004  -43.8168 N.am      10 UNK        -0.5000 
     25 C          -1.2770  -22.0678  -43.4028 C.2       9 UNK         0.5000 
     26 O          -2.0237  -23.0460  -43.4336 O.2       9 UNK        -0.5000 
     27 CA         -1.8284  -20.7111  -42.9232 C.3       9 UNK         0.1400 
     28 CB         -1.5787  -20.5295  -41.4193 C.3       9 UNK        -0.1800 
     29 N          -1.2614  -19.5792  -43.6599 N.am      9 UNK        -0.5000 
     30 C          -1.4833  -19.3490  -44.9638 C.2       8 UNK         0.5000 
     31 O          -2.2482  -20.0304  -45.6449 O.2       8 UNK        -0.5000 
     32 CA         -0.6934  -18.2132  -45.6470 C.3       8 UNK         0.1400 
     33 CB         -1.5609  -16.9551  -45.7745 C.3       8 UNK        -0.1800 
     34 N           0.5661  -17.8713  -44.9846 N.am      8 UNK        -0.5000 
     35 C           1.5794  -18.7226  -44.7743 C.2       7 UNK         0.5000 
     36 O           1.5775  -19.8892  -45.1659 O.2       7 UNK        -0.5000 
     37 CA          2.7586  -18.2150  -43.9237 C.3       7 UNK         0.1400 
     38 CB          3.8861  -17.6812  -44.8202 C.3       7 UNK        -0.1800 
     39 N           2.4044  -17.1855  -42.9420 N.am      7 UNK        -0.5000 
     40 C           1.4817  -17.2823  -41.9718 C.2       6 UNK         0.5000 
     41 O           0.7593  -18.2683  -41.8235 O.2       6 UNK        -0.5000 
     42 CA          1.3474  -16.0866  -41.0044 C.3       6 UNK         0.1400 
     43 CB          1.2860  -16.5575  -39.5410 C.3       6 UNK        -0.1800 
     44 N           2.4690  -15.1545  -41.1519 N.am      6 UNK        -0.5000 
     45 C           2.4001  -13.9541  -41.7364 C.2       5 UNK         0.5000 
     46 O           1.3492  -13.4172  -42.0957 O.2       5 UNK        -0.5000 
     47 CA          3.7455  -13.2555  -41.9855 C.3       5 UNK         0.1400 
     48 CB          4.6422  -14.0782  -42.9331 C.3       5 UNK        -0.1800 
     49 N           3.4892  -11.9533  -42.5818 N.am      5 UNK        -0.5000 
     50 C           4.2765  -10.8763  -42.5122 C.2       4 UNK         0.5000 
     51 O           5.3499  -10.8542  -41.9080 O.2       4 UNK        -0.5000 
     52 CA          3.7946   -9.6130  -43.2506 C.3       4 UNK         0.1400 
     53 CB          4.7014   -9.3179  -44.4566 C.3       4 UNK        -0.1800 
     54 N           2.4176   -9.7414  -43.7308 N.am      4 UNK        -0.5000 
     55 C           1.3261   -9.3941  -43.0392 C.2       3 UNK         0.5000 
     56 O           1.3585   -8.9131  -41.9059 O.2       3 UNK        -0.5000 
     57 CA         -0.0267   -9.6291  -43.7262 C.3       3 UNK         0.1400 
     58 CB         -0.2355   -8.6253  -44.8727 C.3       3 UNK        -0.1800 
     59 N          -0.1335  -10.9903  -44.2569 N.am      3 UNK        -0.5000 
     60 C          -1.0723  -11.8772  -43.8936 C.2       2 UNK         0.5000 
     61 O          -1.9029  -11.6594  -43.0096 O.2       2 UNK        -0.5000 
     62 CA         -1.1454  -13.2150  -44.6603 C.3       2 UNK         0.1400 
     63 CB         -2.5098  -13.3486  -45.3601 C.3       2 UNK        -0.1800 
     64 N          -0.0975  -13.3395  -45.6751 N.am      2 UNK        -0.5000 
     65 C           0.9420  -14.1807  -45.6121 C.2       1 UNK         0.5000 
     66 O           1.0861  -15.0211  -44.7240 O.2       1 UNK        -0.5000 
     67 C          -2.2069  -22.9308  -47.8796 C.2       11 UNK         0.5000 
     68 O          -2.6057  -23.7165  -48.7396 O.2       11 UNK        -0.5000 
     69 N          -2.9583  -22.5257  -46.8457 N.am      12 UNK        -0.5000 
     70 CA         -4.2963  -23.0290  -46.5389 C.3       12 UNK         0.1400 
     71 CB         -4.9413  -22.1660  -45.4460 C.3       12 UNK        -0.1800 
     72 C          -4.3028  -24.5180  -46.1522 C.2       12 UNK         0.5000 
     73 O          -5.1938  -25.2448  -46.5842 O.2       12 UNK        -0.5000 
     74 N          -3.3024  -24.9637  -45.3814 N.am      13 UNK        -0.5000 
     75 CA         -3.1213  -26.3741  -45.0327 C.3       13 UNK         0.1400 
     76 CB         -2.0626  -26.5039  -43.9271 C.3       13 UNK        -0.1800 
     77 C          -2.7567  -27.2433  -46.2530 C.2       13 UNK         0.5000 
     78 O          -3.2908  -28.3437  -46.3969 O.2       13 UNK        -0.5000 
     79 N          -1.8608  -26.7322  -47.1075 N.am      14 UNK        -0.5000 
     80 CA         -1.3604  -27.4172  -48.2973 C.3       14 UNK         0.1400 
     81 CB         -0.0713  -26.7289  -48.7724 C.3       14 UNK        -0.1800 
     82 C          -2.3796  -27.4857  -49.4479 C.2       14 UNK         0.5000 
     83 O          -2.4760  -28.5270  -50.0990 O.2       14 UNK        -0.5000 
     84 N          -3.0951  -26.3814  -49.6986 N.am      15 UNK        -0.5000 
     85 CA         -3.9407  -26.1947  -50.8778 C.3       15 UNK         0.1400 
     86 CB         -3.2180  -25.2697  -51.8746 C.3       15 UNK        -0.1800 
     87 C          -5.3420  -25.6890  -50.4998 C.2       15 UNK         0.5000 
     88 O          -5.8498  -24.7622  -51.1357 O.2       15 UNK        -0.5000 
     89 N          -5.9395  -26.3128  -49.4750 N.am      16 UNK        -0.5000 
     90 CA         -7.3235  -26.2014  -48.9804 C.3       16 UNK         0.1400 
     91 CB         -8.3229  -26.6601  -50.0594 C.3       16 UNK        -0.1800 
     92 C          -7.7401  -24.8304  -48.4063 C.2       16 UNK         0.5000 
     93 O          -8.3494  -24.7784  -47.3371 O.2       16 UNK        -0.5000 
     94 N          -7.4163  -23.7543  -49.1235 N.am      17 UNK        -0.5000 
     95 CA         -7.6842  -22.3598  -48.7810 C.3       17 UNK         0.1400 
     96 CB         -9.1678  -22.0252  -49.0385 C.3       17 UNK        -0.1800 
     97 C          -6.7226  -21.4381  -49.5550 C.2       17 UNK         0.5000 
     98 O          -7.1004  -20.3207  -49.9086 O.2       17 UNK        -0.5000 
     99 N          -5.5077  -21.9425  -49.8316 N.am      18 UNK        -0.5000 
    100 CA        -4.4793  -21.3569  -50.6964 C.3       18 UNK         0.1400 
    101 CB        -3.9360  -20.0367  -50.1098 C.3       18 UNK        -0.1800 
    102 C         -4.9828  -21.2312  -52.1484 C.2       18 UNK         0.5000 
    103 O         -4.9038  -20.1588  -52.7468 O.2       18 UNK        -0.5000 
    104 N         -5.5338  -22.3346  -52.6725 N.am      19 UNK        -0.5000 
    105 CA        -6.1298  -22.4141  -54.0070 C.3       19 UNK         0.1400 
    106 CB        -7.1414  -23.5711  -54.0184 C.3       19 UNK        -0.1800 
    107 C         -5.0944  -22.5960  -55.1346 C.2       19 UNK         0.5000 
    108 O         -5.4202  -22.3437  -56.2953 O.2       19 UNK        -0.5000 
    109 N         -3.8823  -23.0516  -54.7905 N.am      20 UNK        -0.5000 
    110 CA        -2.7764  -23.2621  -55.7236 C.3       20 UNK         0.1400 
    111 CB        -1.7184  -24.1548  -55.0570 C.3       20 UNK        -0.1800 
    112 C         -2.1606  -21.9216  -56.1579 C.2       20 UNK         0.5000 
    113 O         -1.8727  -21.0860  -55.2976 O.2       20 UNK        -0.5000 
    114 N         -1.9583  -21.7505  -57.4726 N.am      21 UNK        -0.5000 
    115 CA        -1.4432  -20.5457  -58.1344 C.3       21 UNK         0.1400 
    116 CB         0.0555  -20.3460  -57.8098 C.3       21 UNK        -0.1800 
    117 C         -2.3275  -19.3176  -57.8270 C.2       21 UNK         0.5000 
    118 O         -3.4606  -19.2589  -58.3072 O.2       21 UNK        -0.5000 
    119 N         -1.8123  -18.3827  -57.0215 N.am      22 UNK        -0.5000 
    120 CA        -2.5561  -17.2558  -56.4363 C.3       22 UNK         0.1400 
    121 C         -3.5978  -17.6541  -55.3493 C.2       22 UNK         0.5000 
    122 N         -3.5469  -18.8579  -54.7971 N.am      22 UNK        -0.7600 
    123 O         -4.4611  -16.8520  -55.0037 O.2       22 UNK        -0.5000 
    124 C124       -1.5989  -16.1495  -55.9155 C.3       23 UNK        -0.0398 
    125 S125       -0.2293  -16.7692  -54.8725 S.3       23 UNK        -0.2404 
    126 C126       -0.9202  -16.6089  -53.1965 C.3       23 UNK        -0.0205 
    127 H127        2.9538   -9.9862  -48.2607 H         1 UNK         0.0600 
    128 H128        1.2000   -9.8755  -48.0808 H         1 UNK         0.0600 
    129 H129        1.8988  -10.9850  -49.2652 H         1 UNK         0.0600 
    130 H130        1.7816  -13.0947  -48.5704 H         1 UNK         0.3000 
    131 H131        2.9643  -14.0359  -46.2067 H         1 UNK         0.0600 
    132 H132        1.1384  -15.4319  -48.2309 H         1 UNK         0.0800 
    133 H133        1.9277  -16.2837  -46.9384 H         1 UNK         0.0800 
    134 H134        3.8432  -15.3532  -50.9006 H         1 UNK         0.0800 
    135 H135        2.5262  -14.3614  -50.3277 H         1 UNK         0.0800 
    136 H136        0.9155  -15.0292  -51.9759 H         1 UNK         0.1150 
    137 H137       -0.4533  -19.0857  -52.1497 H         1 UNK         0.1150 
    138 H138        2.8989  -18.0657  -49.6857 H         1 UNK         0.1150 
    139 H139        0.7663  -20.8400  -51.0407 H         1 UNK         0.0800 
    140 H140        2.4213  -20.4807  -50.6369 H         1 UNK         0.0800 
    141 H141       -1.0472  -21.1063  -49.6475 H         1 UNK         0.0800 
    142 H142       -1.2773  -20.2989  -48.1215 H         1 UNK         0.0800 
    143 H143       -0.1855  -23.1294  -48.5307 H         1 UNK         0.0600 
    144 H144        0.0915  -21.5058  -46.2064 H         1 UNK         0.3000 
    145 H145        0.3613  -24.1519  -43.8316 H         1 UNK         0.0600 
    146 H146        2.5198  -22.9524  -43.3981 H         1 UNK         0.0600 
    147 H147        2.4948  -22.3162  -45.0429 H         1 UNK         0.0600 
    148 H148        2.6275  -24.0452  -44.7698 H         1 UNK         0.0600 
    149 H149        0.5355  -21.2420  -43.8336 H         1 UNK         0.3000 
    150 H150       -2.9076  -20.7124  -43.0888 H         1 UNK         0.0600 
    151 H151       -2.0636  -21.3209  -40.8464 H         1 UNK         0.0600 
    152 H152       -1.9762  -19.5788  -41.0637 H         1 UNK         0.0600 
    153 H153       -0.5148  -20.5586  -41.1811 H         1 UNK         0.0600 
    154 H154       -0.5985  -18.9977  -43.1567 H         1 UNK         0.3000 
    155 H155       -0.4468  -18.5542  -46.6536 H         1 UNK         0.0600 
    156 H156       -2.5284  -17.1862  -46.2225 H         1 UNK         0.0600 
    157 H157       -1.0817  -16.2147  -46.4139 H         1 UNK         0.0600 
    158 H158       -1.7473  -16.4960  -44.8030 H         1 UNK         0.0600 
    159 H159        0.6651  -16.9172  -44.6484 H         1 UNK         0.3000 
    160 H160        3.1417  -19.0739  -43.3693 H         1 UNK         0.0600 
    161 H161        3.6018  -16.7533  -45.3163 H         1 UNK         0.0600 
    162 H162        4.1490  -18.4026  -45.5953 H         1 UNK         0.0600 
    163 H163        4.7886  -17.4850  -44.2411 H         1 UNK         0.0600 
    164 H164        2.8913  -16.3072  -43.0280 H         1 UNK         0.3000 
    165 H165        0.4032  -15.5930  -41.2431 H         1 UNK         0.0600 
    166 H166        1.1814  -15.7122  -38.8607 H         1 UNK         0.0600 
    167 H167        0.4307  -17.2134  -39.3735 H         1 UNK         0.0600 
    168 H168        2.1837  -17.1079  -39.2572 H         1 UNK         0.0600 
    169 H169        3.3719  -15.5075  -40.8663 H         1 UNK         0.3000 
    170 H170        4.2428  -13.1250  -41.0222 H         1 UNK         0.0600 
    171 H171        4.1479  -14.2685  -43.8868 H         1 UNK         0.0600 
    172 H172        5.5771  -13.5582  -43.1428 H         1 UNK         0.0600 
    173 H173        4.9072  -15.0425  -42.4987 H         1 UNK         0.0600 
    174 H174        2.5858  -11.8726  -43.0308 H         1 UNK         0.3000 
    175 H175        3.8669   -8.7742  -42.5552 H         1 UNK         0.0600 
    176 H176        4.6867  -10.1348  -45.1795 H         1 UNK         0.0600 
    177 H177        4.3887   -8.4094  -44.9716 H         1 UNK         0.0600 
    178 H178        5.7363   -9.1739  -44.1438 H         1 UNK         0.0600 
    179 H179        2.3126  -10.1774  -44.6450 H         1 UNK         0.3000 
    180 H180       -0.8005   -9.4422  -42.9788 H         1 UNK         0.0600 
    181 H181       -1.2290   -8.7307  -45.3087 H         1 UNK         0.0600 
    182 H182        0.4949   -8.7625  -45.6710 H         1 UNK         0.0600 
    183 H183       -0.1447   -7.5987  -44.5156 H         1 UNK         0.0600 
    184 H184        0.5637  -11.2649  -44.9396 H         1 UNK         0.3000 
    185 H185       -1.0594  -14.0123  -43.9191 H         1 UNK         0.0600 
    186 H186       -2.6813  -12.5330  -46.0636 H         1 UNK         0.0600 
    187 H187       -2.5858  -14.2840  -45.9126 H         1 UNK         0.0600 
    188 H188       -3.3258  -13.3354  -44.6366 H         1 UNK         0.0600 
    189 H189       -0.1458  -12.6994  -46.4543 H         1 UNK         0.3000 
    190 H190       -2.5890  -21.8104  -46.2252 H         1 UNK         0.3000 
    191 H191       -4.9026  -22.9314  -47.4375 H         1 UNK         0.0600 
    192 H192       -4.9951  -21.1206  -45.7507 H         1 UNK         0.0600 
    193 H193       -4.3828  -22.2142  -44.5115 H         1 UNK         0.0600 
    194 H194       -5.9592  -22.4983  -45.2382 H         1 UNK         0.0600 
    195 H195       -2.6357  -24.3021  -45.0010 H         1 UNK         0.3000 
    196 H196       -4.0676  -26.7447  -44.6328 H         1 UNK         0.0600 
    197 H197       -2.3392  -25.9244  -43.0461 H         1 UNK         0.0600 
    198 H198       -1.0838  -26.1597  -44.2599 H         1 UNK         0.0600 
    199 H199       -1.9541  -27.5426  -43.6130 H         1 UNK         0.0600 
    200 H200       -1.4175  -25.8471  -46.8754 H         1 UNK         0.3000 
    201 H201       -1.1082  -28.4421  -48.0170 H         1 UNK         0.0600 
    202 H202        0.6972  -26.7557  -47.9997 H         1 UNK         0.0600 
    203 H203       -0.2464  -25.6843  -49.0332 H         1 UNK         0.0600 
    204 H204        0.3367  -27.2248  -49.6541 H         1 UNK         0.0600 
    205 H205       -2.9471  -25.5523  -49.1278 H         1 UNK         0.3000 
    206 H206       -4.1075  -27.1487  -51.3814 H         1 UNK         0.0600 
    207 H207       -3.0449  -24.2798  -51.4534 H         1 UNK         0.0600 
    208 H208       -2.2508  -25.6824  -52.1616 H         1 UNK         0.0600 
    209 H209       -3.8008  -25.1505  -52.7882 H         1 UNK         0.0600 
    210 H210       -5.3773  -26.9895  -48.9776 H         1 UNK         0.3000 
    211 H211       -7.3902  -26.9097  -48.1531 H         1 UNK         0.0600 
    212 H212       -8.3059  -26.0085  -50.9338 H         1 UNK         0.0600 
    213 H213       -9.3427  -26.6587  -49.6724 H         1 UNK         0.0600 
    214 H214       -8.1041  -27.6743  -50.3933 H         1 UNK         0.0600 
    215 H215       -6.9329  -23.9226  -50.0042 H         1 UNK         0.3000 
    216 H216       -7.4722  -22.2134  -47.7201 H         1 UNK         0.0600 
    217 H217       -9.3951  -20.9967  -48.7559 H         1 UNK         0.0600 
    218 H218       -9.8294  -22.6681  -48.4584 H         1 UNK         0.0600 
    219 H219       -9.4250  -22.1437  -50.0917 H         1 UNK         0.0600 
    220 H220       -5.3028  -22.8742  -49.5012 H         1 UNK         0.3000 
    221 H221       -3.6516  -22.0660  -50.7182 H         1 UNK         0.0600 
    222 H222       -4.6818  -19.2418  -50.1325 H         1 UNK         0.0600 
    223 H223       -3.6196  -20.1659  -49.0750 H         1 UNK         0.0600 
    224 H224       -3.0725  -19.6863  -50.6765 H         1 UNK         0.0600 
    225 H225       -5.5983  -23.1764  -52.1058 H         1 UNK         0.3000 
    226 H226       -6.6725  -21.4873  -54.2054 H         1 UNK         0.0600 
    227 H227       -7.9066  -23.4338  -53.2541 H         1 UNK         0.0600 
    228 H228       -7.6507  -23.6374  -54.9806 H         1 UNK         0.0600 
    229 H229       -6.6559  -24.5309  -53.8363 H         1 UNK         0.0600 
    230 H230       -3.6839  -23.1865  -53.8117 H         1 UNK         0.3000 
    231 H231       -3.1586  -23.7838  -56.6037 H         1 UNK         0.0600 
    232 H232       -1.3296  -23.7057  -54.1420 H         1 UNK         0.0600 
    233 H233       -0.8727  -24.3228  -55.7251 H         1 UNK         0.0600 
    234 H234       -2.1298  -25.1320  -54.8042 H         1 UNK         0.0600 
    235 H235       -2.2551  -22.4863  -58.0983 H         1 UNK         0.3000 
    236 H236       -1.5251  -20.7193  -59.2084 H         1 UNK         0.0600 
    237 H237        0.2388  -20.2124  -56.7432 H         1 UNK         0.0600 
    238 H238        0.6394  -21.2067  -58.1358 H         1 UNK         0.0600 
    239 H239        0.4561  -19.4737  -58.3279 H         1 UNK         0.0600 
    240 H240       -0.8862  -18.5267  -56.6451 H         1 UNK         0.3000 
    241 H241       -3.1422  -16.8118  -57.2432 H         1 UNK         0.0600 
    242 H242       -4.2052  -19.1250  -54.0691 H         1 UNK         0.3800 
    243 H243       -2.8344  -19.5308  -55.0675 H         1 UNK         0.3800 
    244 H244       -2.1430  -15.3641  -55.3876 H         1 UNK         0.0800 
    245 H245       -1.1425  -15.6526  -56.7724 H         1 UNK         0.0800 
    246 H246       -1.8068  -17.2357  -53.0959 H         1 UNK         0.0800 
    247 H247       -1.2429  -15.5806  -53.0268 H         1 UNK         0.0800 
@<TRIPOS>BOND
     1    1    2 1    
     2    1  127 1    
     3    1  128 1    
     4    1  129 1    
     5    2    3 2    
     6    2    4 am   BACKBONE|DICT|INTERRES
     7    4    5 1    
     8    4  130 1    
     9    5    6 1    
    10    5   65 1    
    11    5  131 1    
    12    6    7 1    
    13    6  132 1    
    14    6  133 1    
    15    7    8 1    
    16    8    9 1    
    17    8  134 1    
    18    8  135 1    
    19    9   10 ar   
    20    9   14 ar   
    21   10   11 ar   
    22   10  136 1    
    23   11   12 ar   
    24   11  126 1    
    25   12   13 ar   
    26   12  137 1    
    27   13   14 ar   
    28   13   15 1    
    29   14  138 1    
    30   15   16 1    
    31   15  139 1    
    32   15  140 1    
    33   16   17 1    
    34   17   18 1    
    35   17  141 1    
    36   17  142 1    
    37   18   19 1    
    38   18   67 1    
    39   18  143 1    
    40   19   20 am   BACKBONE|DICT|INTERRES
    41   19  144 1    
    42   20   21 2    
    43   20   22 1    
    44   22   23 1    
    45   22   24 1    
    46   22  145 1    
    47   23  146 1    
    48   23  147 1    
    49   23  148 1    
    50   24   25 am   BACKBONE|DICT|INTERRES
    51   24  149 1    
    52   25   26 2    
    53   25   27 1    
    54   27   28 1    
    55   27   29 1    
    56   27  150 1    
    57   28  151 1    
    58   28  152 1    
    59   28  153 1    
    60   29   30 am   BACKBONE|DICT|INTERRES
    61   29  154 1    
    62   30   31 2    
    63   30   32 1    
    64   32   33 1    
    65   32   34 1    
    66   32  155 1    
    67   33  156 1    
    68   33  157 1    
    69   33  158 1    
    70   34   35 am   BACKBONE|DICT|INTERRES
    71   34  159 1    
    72   35   36 2    
    73   35   37 1    
    74   37   38 1    
    75   37   39 1    
    76   37  160 1    
    77   38  161 1    
    78   38  162 1    
    79   38  163 1    
    80   39   40 am   BACKBONE|DICT|INTERRES
    81   39  164 1    
    82   40   41 2    
    83   40   42 1    
    84   42   43 1    
    85   42   44 1    
    86   42  165 1    
    87   43  166 1    
    88   43  167 1    
    89   43  168 1    
    90   44   45 am   BACKBONE|DICT|INTERRES
    91   44  169 1    
    92   45   46 2    
    93   45   47 1    
    94   47   48 1    
    95   47   49 1    
    96   47  170 1    
    97   48  171 1    
    98   48  172 1    
    99   48  173 1    
   100   49   50 am   BACKBONE|DICT|INTERRES
   101   49  174 1    
   102   50   51 2    
   103   50   52 1    
   104   52   53 1    
   105   52   54 1    
   106   52  175 1    
   107   53  176 1    
   108   53  177 1    
   109   53  178 1    
   110   54   55 am   BACKBONE|DICT|INTERRES
   111   54  179 1    
   112   55   56 2    
   113   55   57 1    
   114   57   58 1    
   115   57   59 1    
   116   57  180 1    
   117   58  181 1    
   118   58  182 1    
   119   58  183 1    
   120   59   60 am   BACKBONE|DICT|INTERRES
   121   59  184 1    
   122   60   61 2    
   123   60   62 1    
   124   62   63 1    
   125   62   64 1    
   126   62  185 1    
   127   63  186 1    
   128   63  187 1    
   129   63  188 1    
   130   64   65 am   BACKBONE|DICT|INTERRES
   131   64  189 1    
   132   65   66 2    
   133   67   68 2    
   134   67   69 am   BACKBONE|DICT|INTERRES
   135   69   70 1    
   136   69  190 1    
   137   70   71 1    
   138   70   72 1    
   139   70  191 1    
   140   71  192 1    
   141   71  193 1    
   142   71  194 1    
   143   72   73 2    
   144   72   74 am   BACKBONE|DICT|INTERRES
   145   74   75 1    
   146   74  195 1    
   147   75   76 1    
   148   75   77 1    
   149   75  196 1    
   150   76  197 1    
   151   76  198 1    
   152   76  199 1    
   153   77   78 2    
   154   77   79 am   BACKBONE|DICT|INTERRES
   155   79   80 1    
   156   79  200 1    
   157   80   81 1    
   158   80   82 1    
   159   80  201 1    
   160   81  202 1    
   161   81  203 1    
   162   81  204 1    
   163   82   83 2    
   164   82   84 am   BACKBONE|DICT|INTERRES
   165   84   85 1    
   166   84  205 1    
   167   85   86 1    
   168   85   87 1    
   169   85  206 1    
   170   86  207 1    
   171   86  208 1    
   172   86  209 1    
   173   87   88 2    
   174   87   89 am   BACKBONE|DICT|INTERRES
   175   89   90 1    
   176   89  210 1    
   177   90   91 1    
   178   90   92 1    
   179   90  211 1    
   180   91  212 1    
   181   91  213 1    
   182   91  214 1    
   183   92   93 2    
   184   92   94 am   BACKBONE|DICT|INTERRES
   185   94   95 1    
   186   94  215 1    
   187   95   96 1    
   188   95   97 1    
   189   95  216 1    
   190   96  217 1    
   191   96  218 1    
   192   96  219 1    
   193   97   98 2    
   194   97   99 am   BACKBONE|DICT|INTERRES
   195   99  100 1    
   196   99  220 1    
   197  100  101 1    
   198  100  102 1    
   199  100  221 1    
   200  101  222 1    
   201  101  223 1    
   202  101  224 1    
   203  102  103 2    
   204  102  104 am   BACKBONE|DICT|INTERRES
   205  104  105 1    
   206  104  225 1    
   207  105  106 1    
   208  105  107 1    
   209  105  226 1    
   210  106  227 1    
   211  106  228 1    
   212  106  229 1    
   213  107  108 2    
   214  107  109 am   BACKBONE|DICT|INTERRES
   215  109  110 1    
   216  109  230 1    
   217  110  111 1    
   218  110  112 1    
   219  110  231 1    
   220  111  232 1    
   221  111  233 1    
   222  111  234 1    
   223  112  113 2    
   224  112  114 am   BACKBONE|DICT|INTERRES
   225  114  115 1    
   226  114  235 1    
   227  115  116 1    
   228  115  117 1    
   229  115  236 1    
   230  116  237 1    
   231  116  238 1    
   232  116  239 1    
   233  117  118 2    
   234  117  119 am   BACKBONE|DICT|INTERRES
   235  119  120 1    
   236  119  240 1    
   237  120  121 1    
   238  120  124 1    
   239  120  241 1    
   240  121  122 am   BACKBONE|DICT|INTERRES
   241  121  123 2    
   242  122  242 1    
   243  122  243 1    
   244  124  125 1    
   245  124  244 1    
   246  124  245 1    
   247  125  126 1    
   248  126  246 1    
   249  126  247 1    
@<TRIPOS>SUBSTRUCTURE
     1 UNK         1 GROUP             0       ****    0 ROOT    
