@<TRIPOS>MOLECULE
3R540
247   249    1
SMALL
USER_CHARGES


@<TRIPOS>ATOM
      1 CA         -2.5039  -13.0462  -49.7049 C.3       0 UNK        -0.1800 
      2 C          -2.1544  -13.8324  -48.4506 C.2       0 UNK         0.5000 
      3 O          -1.7501  -13.2456  -47.4468 O.2       0 UNK        -0.5000 
      4 N          -2.3406  -15.1568  -48.4877 N.am      1 UNK        -0.5000 
      5 CA         -2.1099  -16.0703  -47.3630 C.3       1 UNK         0.1400 
      6 C6         -2.1447  -17.5605  -47.7736 C.3       23 UNK        -0.0398 
      7 S7         -0.9221  -17.9612  -49.0596 S.3       23 UNK        -0.2404 
      8 C8         -1.4670  -19.6429  -49.5155 C.3       23 UNK        -0.0205 
      9 C9         -0.4012  -20.5240  -50.1665 C.ar      23 UNK        -0.0193 
     10 C10        -0.8131  -21.6825  -50.8323 C.ar      23 UNK        -0.1150 
     11 C11         0.1131  -22.5194  -51.4677 C.ar      23 UNK        -0.0193 
     12 C12         1.4703  -22.1940  -51.4092 C.ar      23 UNK        -0.1150 
     13 C13         1.9049  -21.0611  -50.7191 C.ar      23 UNK        -0.0193 
     14 C14         0.9676  -20.2330  -50.0990 C.ar      23 UNK        -0.1150 
     15 C15         3.3871  -20.7241  -50.6604 C.3       23 UNK        -0.0205 
     16 S16         4.3264  -21.8958  -49.6293 S.3       23 UNK        -0.2404 
     17 C17         3.7307  -21.5036  -47.9493 C.3       23 UNK        -0.0398 
     18 CA          3.2398  -22.7595  -47.1842 C.3       11 UNK         0.1400 
     19 N           3.3875  -22.5864  -45.7376 N.am      11 UNK        -0.5000 
     20 C           3.7329  -23.5493  -44.8735 C.2       10 UNK         0.5000 
     21 O           4.0131  -24.7008  -45.2078 O.2       10 UNK        -0.5000 
     22 CA          3.7804  -23.1638  -43.3802 C.3       10 UNK         0.1400 
     23 CB          5.2002  -22.7314  -42.9835 C.3       10 UNK        -0.1800 
     24 N           2.8432  -22.0959  -43.0258 N.am      10 UNK        -0.5000 
     25 C           1.5118  -22.2382  -42.9839 C.2       9 UNK         0.5000 
     26 O           0.9328  -23.3053  -43.1881 O.2       9 UNK        -0.5000 
     27 CA          0.6803  -20.9741  -42.6862 C.3       9 UNK         0.1400 
     28 CB          0.4063  -20.8580  -41.1798 C.3       9 UNK        -0.1800 
     29 N           1.2435  -19.7057  -43.1661 N.am      9 UNK        -0.5000 
     30 C           1.6678  -19.4313  -44.4083 C.2       8 UNK         0.5000 
     31 O           1.7572  -20.2743  -45.2998 O.2       8 UNK        -0.5000 
     32 CA          2.0601  -17.9804  -44.7281 C.3       8 UNK         0.1400 
     33 CB          0.9733  -17.3250  -45.5906 C.3       8 UNK        -0.1800 
     34 N           2.2739  -17.1709  -43.5258 N.am      8 UNK        -0.5000 
     35 C           3.4778  -16.8184  -43.0517 C.2       7 UNK         0.5000 
     36 O           4.5402  -17.1305  -43.5905 O.2       7 UNK        -0.5000 
     37 CA          3.5182  -15.9794  -41.7578 C.3       7 UNK         0.1400 
     38 CB          3.6933  -14.4880  -42.0808 C.3       7 UNK        -0.1800 
     39 N           2.3341  -16.1547  -40.9159 N.am      7 UNK        -0.5000 
     40 C           2.0889  -17.2536  -40.1875 C.2       6 UNK         0.5000 
     41 O           2.8614  -18.2096  -40.1190 O.2       6 UNK        -0.5000 
     42 CA          0.7467  -17.3192  -39.4308 C.3       6 UNK         0.1400 
     43 CB          0.9345  -16.8781  -37.9716 C.3       6 UNK        -0.1800 
     44 N          -0.3346  -16.5308  -40.0286 N.am      6 UNK        -0.5000 
     45 C          -0.7960  -16.6446  -41.2816 C.2       5 UNK         0.5000 
     46 O          -0.3243  -17.4237  -42.1112 O.2       5 UNK        -0.5000 
     47 CA         -1.9457  -15.7076  -41.7015 C.3       5 UNK         0.1400 
     48 CB         -2.5931  -14.9280  -40.5354 C.3       5 UNK        -0.1800 
     49 N          -1.5286  -14.7821  -42.7549 N.am      5 UNK        -0.5000 
     50 C          -0.5077  -13.9128  -42.7232 C.2       4 UNK         0.5000 
     51 O           0.2746  -13.8021  -41.7774 O.2       4 UNK        -0.5000 
     52 CA         -0.3357  -13.0036  -43.9552 C.3       4 UNK         0.1400 
     53 CB          0.5615  -13.6753  -45.0022 C.3       4 UNK        -0.1800 
     54 N          -1.6026  -12.6327  -44.5897 N.am      4 UNK        -0.5000 
     55 C          -2.5297  -11.8328  -44.0434 C.2       3 UNK         0.5000 
     56 O          -2.4132  -11.3015  -42.9386 O.2       3 UNK        -0.5000 
     57 CA         -3.8045  -11.5904  -44.8700 C.3       3 UNK         0.1400 
     58 CB         -3.5586  -10.5393  -45.9640 C.3       3 UNK        -0.1800 
     59 N          -4.2912  -12.8265  -45.4816 N.am      3 UNK        -0.5000 
     60 C          -5.0487  -13.7350  -44.8504 C.2       2 UNK         0.5000 
     61 O          -5.4696  -13.5955  -43.7018 O.2       2 UNK        -0.5000 
     62 CA         -5.3846  -15.0256  -45.6257 C.3       2 UNK         0.1400 
     63 CB         -6.7129  -14.8772  -46.3821 C.3       2 UNK        -0.1800 
     64 N          -4.3399  -15.4182  -46.5720 N.am      2 UNK        -0.5000 
     65 C          -3.1089  -15.8166  -46.2197 C.2       1 UNK         0.5000 
     66 O          -2.7400  -15.9455  -45.0541 O.2       1 UNK        -0.5000 
     67 C           1.7795  -23.1131  -47.5308 C.2       11 UNK         0.5000 
     68 O           1.5406  -23.9871  -48.3644 O.2       11 UNK        -0.5000 
     69 N           0.8286  -22.4668  -46.8410 N.am      12 UNK        -0.5000 
     70 CA         -0.6237  -22.5706  -47.0046 C.3       12 UNK         0.1400 
     71 CB         -1.2719  -21.3694  -46.2925 C.3       12 UNK        -0.1800 
     72 C          -1.2445  -23.9073  -46.5374 C.2       12 UNK         0.5000 
     73 O          -2.3768  -23.9171  -46.0518 O.2       12 UNK        -0.5000 
     74 N          -0.5281  -25.0237  -46.7138 N.am      13 UNK        -0.5000 
     75 CA         -0.9591  -26.3776  -46.3546 C.3       13 UNK         0.1400 
     76 CB          0.2271  -27.3382  -46.5246 C.3       13 UNK        -0.1800 
     77 C          -2.1765  -26.8661  -47.1658 C.2       13 UNK         0.5000 
     78 O          -2.9633  -27.6672  -46.6606 O.2       13 UNK        -0.5000 
     79 N          -2.3194  -26.3499  -48.3932 N.am      14 UNK        -0.5000 
     80 CA         -3.4497  -26.5890  -49.2920 C.3       14 UNK         0.1400 
     81 CB         -2.9024  -26.7818  -50.7156 C.3       14 UNK        -0.1800 
     82 C          -4.4967  -25.4540  -49.2392 C.2       14 UNK         0.5000 
     83 O          -5.3999  -25.4367  -50.0761 O.2       14 UNK        -0.5000 
     84 N          -4.3664  -24.5341  -48.2690 N.am      15 UNK        -0.5000 
     85 CA         -5.1809  -23.3366  -48.0505 C.3       15 UNK         0.1400 
     86 CB         -6.6406  -23.6994  -47.6967 C.3       15 UNK        -0.1800 
     87 C          -5.0472  -22.3352  -49.2138 C.2       15 UNK         0.5000 
     88 O          -4.0838  -21.5704  -49.2306 O.2       15 UNK        -0.5000 
     89 N          -6.0205  -22.3288  -50.1361 N.am      16 UNK        -0.5000 
     90 CA         -6.1374  -21.5217  -51.3628 C.3       16 UNK         0.1400 
     91 CB         -4.9566  -21.7890  -52.3122 C.3       16 UNK        -0.1800 
     92 C          -6.3344  -20.0037  -51.1639 C.2       16 UNK         0.5000 
     93 O          -6.8248  -19.3466  -52.0808 O.2       16 UNK        -0.5000 
     94 N          -5.9534  -19.4741  -49.9942 N.am      17 UNK        -0.5000 
     95 CA         -6.0260  -18.0785  -49.5392 C.3       17 UNK         0.1400 
     96 CB         -7.4579  -17.5150  -49.6294 C.3       17 UNK        -0.1800 
     97 C          -5.0010  -17.1290  -50.1913 C.2       17 UNK         0.5000 
     98 O          -4.8071  -16.0279  -49.6751 O.2       17 UNK        -0.5000 
     99 N          -4.3140  -17.5698  -51.2491 N.am      18 UNK        -0.5000 
    100 CA        -3.2180  -16.8757  -51.9117 C.3       18 UNK         0.1400 
    101 CB        -3.7661  -15.8166  -52.8830 C.3       18 UNK        -0.1800 
    102 C         -2.3707  -17.9155  -52.6521 C.2       18 UNK         0.5000 
    103 O         -2.9173  -18.9039  -53.1464 O.2       18 UNK        -0.5000 
    104 N         -1.0584  -17.6677  -52.7411 N.am      19 UNK        -0.5000 
    105 CA        -0.0971  -18.5507  -53.4083 C.3       19 UNK         0.1400 
    106 CB         1.3295  -18.0780  -53.0927 C.3       19 UNK        -0.1800 
    107 C         -0.3186  -18.6401  -54.9302 C.2       19 UNK         0.5000 
    108 O         -0.0759  -19.6936  -55.5172 O.2       19 UNK        -0.5000 
    109 N         -0.8108  -17.5471  -55.5323 N.am      20 UNK        -0.5000 
    110 CA        -1.1947  -17.4755  -56.9431 C.3       20 UNK         0.1400 
    111 CB        -1.4193  -16.0075  -57.3361 C.3       20 UNK        -0.1800 
    112 C         -2.4453  -18.3197  -57.2504 C.2       20 UNK         0.5000 
    113 O         -2.4804  -19.0094  -58.2700 O.2       20 UNK        -0.5000 
    114 N         -3.4293  -18.2878  -56.3386 N.am      21 UNK        -0.5000 
    115 CA        -4.6503  -19.0979  -56.3998 C.3       21 UNK         0.1400 
    116 CB        -5.6565  -18.5800  -55.3606 C.3       21 UNK        -0.1800 
    117 C         -4.3756  -20.6003  -56.1940 C.2       21 UNK         0.5000 
    118 O         -5.1238  -21.4339  -56.7051 O.2       21 UNK        -0.5000 
    119 N         -3.2902  -20.9081  -55.4751 N.am      22 UNK        -0.5000 
    120 CA        -2.7429  -22.2553  -55.2705 C.3       22 UNK         0.1400 
    121 C         -2.1099  -22.9046  -56.5398 C.2       22 UNK         0.5000 
    122 N         -1.8904  -22.1761  -57.6293 N.am      22 UNK        -0.7600 
    123 O         -1.8226  -24.0981  -56.5436 O.2       22 UNK        -0.5000 
    124 C124       -1.7578  -22.2620  -54.0707 C.3       23 UNK        -0.0398 
    125 S125       -1.9438  -23.7258  -53.0027 S.3       23 UNK        -0.2404 
    126 C126       -0.3062  -23.7940  -52.2001 C.3       23 UNK        -0.0205 
    127 H127       -1.6119  -12.5653  -50.1059 H         1 UNK         0.0600 
    128 H128       -3.2346  -12.2724  -49.4700 H         1 UNK         0.0600 
    129 H129       -2.9255  -13.6874  -50.4796 H         1 UNK         0.0600 
    130 H130       -2.7889  -15.5665  -49.2965 H         1 UNK         0.3000 
    131 H131       -1.1134  -15.8565  -46.9747 H         1 UNK         0.0600 
    132 H132       -1.9337  -18.1935  -46.9095 H         1 UNK         0.0800 
    133 H133       -3.1354  -17.8470  -48.1255 H         1 UNK         0.0800 
    134 H134       -1.8386  -20.1558  -48.6325 H         1 UNK         0.0800 
    135 H135       -2.3216  -19.5562  -50.1870 H         1 UNK         0.0800 
    136 H136       -1.8653  -21.9278  -50.8556 H         1 UNK         0.1150 
    137 H137        2.1987  -22.8349  -51.8859 H         1 UNK         0.1150 
    138 H138        1.3172  -19.3605  -49.5680 H         1 UNK         0.1150 
    139 H139        3.7934  -20.7437  -51.6726 H         1 UNK         0.0800 
    140 H140        3.5442  -19.7096  -50.2906 H         1 UNK         0.0800 
    141 H141        2.9673  -20.7238  -47.9748 H         1 UNK         0.0800 
    142 H142        4.5786  -21.0604  -47.4250 H         1 UNK         0.0800 
    143 H143        3.8597  -23.6048  -47.4914 H         1 UNK         0.0600 
    144 H144        3.0986  -21.6861  -45.3702 H         1 UNK         0.3000 
    145 H145        3.5208  -24.0529  -42.8016 H         1 UNK         0.0600 
    146 H146        5.2667  -22.5285  -41.9144 H         1 UNK         0.0600 
    147 H147        5.9248  -23.5148  -43.2100 H         1 UNK         0.0600 
    148 H148        5.5112  -21.8322  -43.5168 H         1 UNK         0.0600 
    149 H149        3.2340  -21.1836  -42.8407 H         1 UNK         0.3000 
    150 H150       -0.2807  -21.1013  -43.1841 H         1 UNK         0.0600 
    151 H151       -0.0051  -21.7864  -40.7810 H         1 UNK         0.0600 
    152 H152       -0.3194  -20.0713  -40.9742 H         1 UNK         0.0600 
    153 H153        1.3166  -20.6346  -40.6221 H         1 UNK         0.0600 
    154 H154        1.1435  -18.9222  -42.5344 H         1 UNK         0.3000 
    155 H155        2.9720  -18.0274  -45.3267 H         1 UNK         0.0600 
    156 H156        1.3227  -16.3743  -45.9903 H         1 UNK         0.0600 
    157 H157        0.0578  -17.1471  -45.0244 H         1 UNK         0.0600 
    158 H158        0.7174  -17.9525  -46.4454 H         1 UNK         0.0600 
    159 H159        1.4425  -16.9173  -43.0032 H         1 UNK         0.3000 
    160 H160        4.3933  -16.3016  -41.1891 H         1 UNK         0.0600 
    161 H161        2.8450  -14.0930  -42.6381 H         1 UNK         0.0600 
    162 H162        4.5877  -14.3201  -42.6821 H         1 UNK         0.0600 
    163 H163        3.7987  -13.8976  -41.1705 H         1 UNK         0.0600 
    164 H164        1.6414  -15.4153  -40.9396 H         1 UNK         0.3000 
    165 H165        0.4266  -18.3621  -39.4296 H         1 UNK         0.0600 
    166 H166        0.0192  -17.0159  -37.3957 H         1 UNK         0.0600 
    167 H167        1.7146  -17.4634  -37.4827 H         1 UNK         0.0600 
    168 H168        1.2206  -15.8277  -37.9034 H         1 UNK         0.0600 
    169 H169       -0.7594  -15.8354  -39.4327 H         1 UNK         0.3000 
    170 H170       -2.7132  -16.3471  -42.1397 H         1 UNK         0.0600 
    171 H171       -2.9668  -15.6048  -39.7660 H         1 UNK         0.0600 
    172 H172       -1.8972  -14.2329  -40.0644 H         1 UNK         0.0600 
    173 H173       -3.4448  -14.3461  -40.8889 H         1 UNK         0.0600 
    174 H174       -2.0440  -14.8796  -43.6250 H         1 UNK         0.3000 
    175 H175        0.1574  -12.0887  -43.6202 H         1 UNK         0.0600 
    176 H176        0.0645  -14.5385  -45.4404 H         1 UNK         0.0600 
    177 H177        0.8056  -12.9870  -45.8115 H         1 UNK         0.0600 
    178 H178        1.5010  -14.0174  -44.5684 H         1 UNK         0.0600 
    179 H179       -1.7503  -12.9742  -45.5352 H         1 UNK         0.3000 
    180 H180       -4.5711  -11.1980  -44.1982 H         1 UNK         0.0600 
    181 H181       -4.4726  -10.3284  -46.5194 H         1 UNK         0.0600 
    182 H182       -2.8006  -10.8627  -46.6779 H         1 UNK         0.0600 
    183 H183       -3.2183   -9.5985  -45.5295 H         1 UNK         0.0600 
    184 H184       -3.9572  -13.0345  -46.4113 H         1 UNK         0.3000 
    185 H185       -5.4966  -15.8282  -44.8935 H         1 UNK         0.0600 
    186 H186       -6.6477  -14.1231  -47.1674 H         1 UNK         0.0600 
    187 H187       -7.0080  -15.8192  -46.8440 H         1 UNK         0.0600 
    188 H188       -7.5173  -14.5818  -45.7072 H         1 UNK         0.0600 
    189 H189       -4.5596  -15.3432  -47.5584 H         1 UNK         0.3000 
    190 H190        1.1357  -21.7603  -46.1776 H         1 UNK         0.3000 
    191 H191       -0.8394  -22.4871  -48.0702 H         1 UNK         0.0600 
    192 H192       -2.3285  -21.2830  -46.5493 H         1 UNK         0.0600 
    193 H193       -0.7889  -20.4317  -46.5674 H         1 UNK         0.0600 
    194 H194       -1.2077  -21.4689  -45.2104 H         1 UNK         0.0600 
    195 H195        0.3677  -24.9307  -47.1833 H         1 UNK         0.3000 
    196 H196       -1.2466  -26.3688  -45.3012 H         1 UNK         0.0600 
    197 H197        0.5756  -27.3675  -47.5578 H         1 UNK         0.0600 
    198 H198        1.0672  -27.0417  -45.8958 H         1 UNK         0.0600 
    199 H199       -0.0485  -28.3547  -46.2407 H         1 UNK         0.0600 
    200 H200       -1.6180  -25.7000  -48.7179 H         1 UNK         0.3000 
    201 H201       -3.9652  -27.5079  -49.0060 H         1 UNK         0.0600 
    202 H202       -2.3937  -25.8866  -51.0694 H         1 UNK         0.0600 
    203 H203       -3.7021  -27.0070  -51.4222 H         1 UNK         0.0600 
    204 H204       -2.1933  -27.6087  -50.7569 H         1 UNK         0.0600 
    205 H205       -3.5936  -24.6347  -47.6216 H         1 UNK         0.3000 
    206 H206       -4.7558  -22.8401  -47.1768 H         1 UNK         0.0600 
    207 H207       -6.6785  -24.3078  -46.7931 H         1 UNK         0.0600 
    208 H208       -7.2289  -22.8015  -47.5033 H         1 UNK         0.0600 
    209 H209       -7.1422  -24.2572  -48.4872 H         1 UNK         0.0600 
    210 H210       -6.7597  -23.0060  -50.0095 H         1 UNK         0.3000 
    211 H211       -7.0407  -21.8789  -51.8595 H         1 UNK         0.0600 
    212 H212       -5.1107  -21.2936  -53.2708 H         1 UNK         0.0600 
    213 H213       -4.8444  -22.8546  -52.5110 H         1 UNK         0.0600 
    214 H214       -4.0148  -21.4188  -51.9070 H         1 UNK         0.0600 
    215 H215       -5.4664  -20.1071  -49.3694 H         1 UNK         0.3000 
    216 H216       -5.7625  -18.1099  -48.4810 H         1 UNK         0.0600 
    217 H217       -7.5206  -16.5348  -49.1558 H         1 UNK         0.0600 
    218 H218       -7.7857  -17.3910  -50.6615 H         1 UNK         0.0600 
    219 H219       -8.1713  -18.1658  -49.1241 H         1 UNK         0.0600 
    220 H220       -4.5166  -18.4872  -51.6259 H         1 UNK         0.3000 
    221 H221       -2.5921  -16.3911  -51.1608 H         1 UNK         0.0600 
    222 H222       -4.3412  -15.0560  -52.3548 H         1 UNK         0.0600 
    223 H223       -4.4172  -16.2619  -53.6360 H         1 UNK         0.0600 
    224 H224       -2.9569  -15.3050  -53.4054 H         1 UNK         0.0600 
    225 H225       -0.6778  -16.8429  -52.3005 H         1 UNK         0.3000 
    226 H226       -0.2201  -19.5548  -52.9973 H         1 UNK         0.0600 
    227 H227        1.5210  -17.0793  -53.4868 H         1 UNK         0.0600 
    228 H228        1.5087  -18.0549  -52.0178 H         1 UNK         0.0600 
    229 H229        2.0677  -18.7526  -53.5286 H         1 UNK         0.0600 
    230 H230       -0.9648  -16.7209  -54.9738 H         1 UNK         0.3000 
    231 H231       -0.3704  -17.8675  -57.5427 H         1 UNK         0.0600 
    232 H232       -2.2179  -15.5489  -56.7515 H         1 UNK         0.0600 
    233 H233       -1.6930  -15.9234  -58.3887 H         1 UNK         0.0600 
    234 H234       -0.5144  -15.4176  -57.1890 H         1 UNK         0.0600 
    235 H235       -3.3032  -17.7275  -55.5096 H         1 UNK         0.3000 
    236 H236       -5.0902  -18.9753  -57.3917 H         1 UNK         0.0600 
    237 H237       -6.5897  -19.1426  -55.4070 H         1 UNK         0.0600 
    238 H238       -5.2736  -18.6731  -54.3443 H         1 UNK         0.0600 
    239 H239       -5.9004  -17.5318  -55.5330 H         1 UNK         0.0600 
    240 H240       -2.7745  -20.1485  -55.0515 H         1 UNK         0.3000 
    241 H241       -3.5990  -22.8827  -55.0152 H         1 UNK         0.0600 
    242 H242       -1.4856  -22.6132  -58.4421 H         1 UNK         0.3800 
    243 H243       -2.1179  -21.1918  -57.6522 H         1 UNK         0.3800 
    244 H244       -1.9343  -21.3981  -53.4296 H         1 UNK         0.0800 
    245 H245       -0.7212  -22.1690  -54.4004 H         1 UNK         0.0800 
    246 H246        0.4312  -24.0455  -52.9640 H         1 UNK         0.0800 
    247 H247       -0.2999  -24.6169  -51.4848 H         1 UNK         0.0800 
@<TRIPOS>BOND
     1    1    2 1    
     2    1  127 1    
     3    1  128 1    
     4    1  129 1    
     5    2    3 2    
     6    2    4 am   BACKBONE|DICT|INTERRES
     7    4    5 1    
     8    4  130 1    
     9    5    6 1    
    10    5   65 1    
    11    5  131 1    
    12    6    7 1    
    13    6  132 1    
    14    6  133 1    
    15    7    8 1    
    16    8    9 1    
    17    8  134 1    
    18    8  135 1    
    19    9   10 ar   
    20    9   14 ar   
    21   10   11 ar   
    22   10  136 1    
    23   11   12 ar   
    24   11  126 1    
    25   12   13 ar   
    26   12  137 1    
    27   13   14 ar   
    28   13   15 1    
    29   14  138 1    
    30   15   16 1    
    31   15  139 1    
    32   15  140 1    
    33   16   17 1    
    34   17   18 1    
    35   17  141 1    
    36   17  142 1    
    37   18   19 1    
    38   18   67 1    
    39   18  143 1    
    40   19   20 am   BACKBONE|DICT|INTERRES
    41   19  144 1    
    42   20   21 2    
    43   20   22 1    
    44   22   23 1    
    45   22   24 1    
    46   22  145 1    
    47   23  146 1    
    48   23  147 1    
    49   23  148 1    
    50   24   25 am   BACKBONE|DICT|INTERRES
    51   24  149 1    
    52   25   26 2    
    53   25   27 1    
    54   27   28 1    
    55   27   29 1    
    56   27  150 1    
    57   28  151 1    
    58   28  152 1    
    59   28  153 1    
    60   29   30 am   BACKBONE|DICT|INTERRES
    61   29  154 1    
    62   30   31 2    
    63   30   32 1    
    64   32   33 1    
    65   32   34 1    
    66   32  155 1    
    67   33  156 1    
    68   33  157 1    
    69   33  158 1    
    70   34   35 am   BACKBONE|DICT|INTERRES
    71   34  159 1    
    72   35   36 2    
    73   35   37 1    
    74   37   38 1    
    75   37   39 1    
    76   37  160 1    
    77   38  161 1    
    78   38  162 1    
    79   38  163 1    
    80   39   40 am   BACKBONE|DICT|INTERRES
    81   39  164 1    
    82   40   41 2    
    83   40   42 1    
    84   42   43 1    
    85   42   44 1    
    86   42  165 1    
    87   43  166 1    
    88   43  167 1    
    89   43  168 1    
    90   44   45 am   BACKBONE|DICT|INTERRES
    91   44  169 1    
    92   45   46 2    
    93   45   47 1    
    94   47   48 1    
    95   47   49 1    
    96   47  170 1    
    97   48  171 1    
    98   48  172 1    
    99   48  173 1    
   100   49   50 am   BACKBONE|DICT|INTERRES
   101   49  174 1    
   102   50   51 2    
   103   50   52 1    
   104   52   53 1    
   105   52   54 1    
   106   52  175 1    
   107   53  176 1    
   108   53  177 1    
   109   53  178 1    
   110   54   55 am   BACKBONE|DICT|INTERRES
   111   54  179 1    
   112   55   56 2    
   113   55   57 1    
   114   57   58 1    
   115   57   59 1    
   116   57  180 1    
   117   58  181 1    
   118   58  182 1    
   119   58  183 1    
   120   59   60 am   BACKBONE|DICT|INTERRES
   121   59  184 1    
   122   60   61 2    
   123   60   62 1    
   124   62   63 1    
   125   62   64 1    
   126   62  185 1    
   127   63  186 1    
   128   63  187 1    
   129   63  188 1    
   130   64   65 am   BACKBONE|DICT|INTERRES
   131   64  189 1    
   132   65   66 2    
   133   67   68 2    
   134   67   69 am   BACKBONE|DICT|INTERRES
   135   69   70 1    
   136   69  190 1    
   137   70   71 1    
   138   70   72 1    
   139   70  191 1    
   140   71  192 1    
   141   71  193 1    
   142   71  194 1    
   143   72   73 2    
   144   72   74 am   BACKBONE|DICT|INTERRES
   145   74   75 1    
   146   74  195 1    
   147   75   76 1    
   148   75   77 1    
   149   75  196 1    
   150   76  197 1    
   151   76  198 1    
   152   76  199 1    
   153   77   78 2    
   154   77   79 am   BACKBONE|DICT|INTERRES
   155   79   80 1    
   156   79  200 1    
   157   80   81 1    
   158   80   82 1    
   159   80  201 1    
   160   81  202 1    
   161   81  203 1    
   162   81  204 1    
   163   82   83 2    
   164   82   84 am   BACKBONE|DICT|INTERRES
   165   84   85 1    
   166   84  205 1    
   167   85   86 1    
   168   85   87 1    
   169   85  206 1    
   170   86  207 1    
   171   86  208 1    
   172   86  209 1    
   173   87   88 2    
   174   87   89 am   BACKBONE|DICT|INTERRES
   175   89   90 1    
   176   89  210 1    
   177   90   91 1    
   178   90   92 1    
   179   90  211 1    
   180   91  212 1    
   181   91  213 1    
   182   91  214 1    
   183   92   93 2    
   184   92   94 am   BACKBONE|DICT|INTERRES
   185   94   95 1    
   186   94  215 1    
   187   95   96 1    
   188   95   97 1    
   189   95  216 1    
   190   96  217 1    
   191   96  218 1    
   192   96  219 1    
   193   97   98 2    
   194   97   99 am   BACKBONE|DICT|INTERRES
   195   99  100 1    
   196   99  220 1    
   197  100  101 1    
   198  100  102 1    
   199  100  221 1    
   200  101  222 1    
   201  101  223 1    
   202  101  224 1    
   203  102  103 2    
   204  102  104 am   BACKBONE|DICT|INTERRES
   205  104  105 1    
   206  104  225 1    
   207  105  106 1    
   208  105  107 1    
   209  105  226 1    
   210  106  227 1    
   211  106  228 1    
   212  106  229 1    
   213  107  108 2    
   214  107  109 am   BACKBONE|DICT|INTERRES
   215  109  110 1    
   216  109  230 1    
   217  110  111 1    
   218  110  112 1    
   219  110  231 1    
   220  111  232 1    
   221  111  233 1    
   222  111  234 1    
   223  112  113 2    
   224  112  114 am   BACKBONE|DICT|INTERRES
   225  114  115 1    
   226  114  235 1    
   227  115  116 1    
   228  115  117 1    
   229  115  236 1    
   230  116  237 1    
   231  116  238 1    
   232  116  239 1    
   233  117  118 2    
   234  117  119 am   BACKBONE|DICT|INTERRES
   235  119  120 1    
   236  119  240 1    
   237  120  121 1    
   238  120  124 1    
   239  120  241 1    
   240  121  122 am   BACKBONE|DICT|INTERRES
   241  121  123 2    
   242  122  242 1    
   243  122  243 1    
   244  124  125 1    
   245  124  244 1    
   246  124  245 1    
   247  125  126 1    
   248  126  246 1    
   249  126  247 1    
@<TRIPOS>SUBSTRUCTURE
     1 UNK         1 GROUP             0       ****    0 ROOT    
