@<TRIPOS>MOLECULE
3R540
247   249    1
SMALL
USER_CHARGES


@<TRIPOS>ATOM
      1 CA          6.3110  -12.2183  -52.1026 C.3       0 UNK        -0.1800 
      2 C           5.5286  -12.2755  -50.7981 C.2       0 UNK         0.5000 
      3 O           4.6407  -11.4492  -50.5932 O.2       0 UNK        -0.5000 
      4 N           5.8769  -13.2373  -49.9308 N.am      1 UNK        -0.5000 
      5 CA          5.3240  -13.5993  -48.6126 C.3       1 UNK         0.1400 
      6 C6          3.9481  -14.3224  -48.6561 C.3       23 UNK        -0.0398 
      7 S7          2.5013  -13.2836  -49.0709 S.3       23 UNK        -0.2404 
      8 C8          1.7518  -14.2119  -50.4439 C.3       23 UNK        -0.0205 
      9 C9          0.8813  -15.3417  -49.9197 C.ar      23 UNK        -0.0193 
     10 C10        -0.4060  -15.0601  -49.4575 C.ar      23 UNK        -0.1150 
     11 C11        -1.2079  -16.0740  -48.9324 C.ar      23 UNK        -0.0193 
     12 C12        -0.7136  -17.3786  -48.8788 C.ar      23 UNK        -0.1150 
     13 C13         0.5669  -17.6844  -49.3511 C.ar      23 UNK        -0.0193 
     14 C14         1.3593  -16.6552  -49.8731 C.ar      23 UNK        -0.1150 
     15 C15         1.1265  -19.1022  -49.2561 C.3       23 UNK        -0.0205 
     16 S16         0.0897  -20.3584  -50.0732 S.3       23 UNK        -0.2404 
     17 C17        -0.9825  -20.9597  -48.7220 C.3       23 UNK        -0.0398 
     18 CA         -0.4352  -22.2546  -48.0632 C.3       11 UNK         0.1400 
     19 N           0.2221  -21.9827  -46.7830 N.am      11 UNK        -0.5000 
     20 C           0.9112  -22.8779  -46.0639 C.2       10 UNK         0.5000 
     21 O           1.1275  -24.0319  -46.4319 O.2       10 UNK        -0.5000 
     22 CA          1.3844  -22.4213  -44.6733 C.3       10 UNK         0.1400 
     23 CB          2.6728  -21.5902  -44.7710 C.3       10 UNK        -0.1800 
     24 N           0.3518  -21.6574  -43.9707 N.am      10 UNK        -0.5000 
     25 C          -0.7905  -22.1836  -43.5072 C.2       9 UNK         0.5000 
     26 O          -1.0758  -23.3772  -43.5953 O.2       9 UNK        -0.5000 
     27 CA         -1.7968  -21.2114  -42.8663 C.3       9 UNK         0.1400 
     28 CB         -1.4457  -20.9594  -41.3928 C.3       9 UNK        -0.1800 
     29 N          -1.8778  -19.9328  -43.5715 N.am      9 UNK        -0.5000 
     30 C          -2.3909  -19.7771  -44.8005 C.2       8 UNK         0.5000 
     31 O          -2.8439  -20.6994  -45.4774 O.2       8 UNK        -0.5000 
     32 CA         -2.3365  -18.3579  -45.3967 C.3       8 UNK         0.1400 
     33 CB         -3.4781  -17.5040  -44.8222 C.3       8 UNK        -0.1800 
     34 N          -1.0607  -17.6715  -45.1745 N.am      8 UNK        -0.5000 
     35 C           0.1591  -18.1755  -45.4149 C.2       7 UNK         0.5000 
     36 O           0.3529  -19.2857  -45.9055 O.2       7 UNK        -0.5000 
     37 CA          1.3724  -17.3353  -44.9815 C.3       7 UNK         0.1400 
     38 CB          1.8848  -16.4838  -46.1493 C.3       7 UNK        -0.1800 
     39 N           1.1065  -16.4757  -43.8274 N.am      7 UNK        -0.5000 
     40 C           0.7606  -16.9065  -42.6048 C.2       6 UNK         0.5000 
     41 O           0.6112  -18.0936  -42.3114 O.2       6 UNK        -0.5000 
     42 CA          0.5058  -15.8223  -41.5458 C.3       6 UNK         0.1400 
     43 CB          1.8290  -15.3183  -40.9489 C.3       6 UNK        -0.1800 
     44 N          -0.2335  -14.6988  -42.1202 N.am      6 UNK        -0.5000 
     45 C          -1.5675  -14.6620  -42.2449 C.2       5 UNK         0.5000 
     46 O          -2.3184  -15.5334  -41.8061 O.2       5 UNK        -0.5000 
     47 CA         -2.1691  -13.4579  -42.9971 C.3       5 UNK         0.1400 
     48 CB         -2.5153  -12.3287  -42.0149 C.3       5 UNK        -0.1800 
     49 N          -1.2963  -12.9279  -44.0468 N.am      5 UNK        -0.5000 
     50 C          -0.9582  -13.5906  -45.1617 C.2       4 UNK         0.5000 
     51 O          -1.3591  -14.7221  -45.4282 O.2       4 UNK        -0.5000 
     52 CA          0.0342  -12.8903  -46.1107 C.3       4 UNK         0.1400 
     53 CB         -0.7147  -11.9943  -47.1075 C.3       4 UNK        -0.1800 
     54 N           1.0643  -12.0990  -45.4282 N.am      4 UNK        -0.5000 
     55 C           1.9102  -12.5581  -44.4961 C.2       3 UNK         0.5000 
     56 O           1.8838  -13.7123  -44.0653 O.2       3 UNK        -0.5000 
     57 CA          2.9575  -11.5584  -43.9717 C.3       3 UNK         0.1400 
     58 CB          3.7576  -12.1133  -42.7797 C.3       3 UNK        -0.1800 
     59 N           3.8917  -11.1950  -45.0330 N.am      3 UNK        -0.5000 
     60 C           3.7026  -10.2492  -45.9587 C.2       2 UNK         0.5000 
     61 O           2.6942   -9.5434  -46.0103 O.2       2 UNK        -0.5000 
     62 CA          4.8099  -10.0829  -47.0180 C.3       2 UNK         0.1400 
     63 CB          6.1414   -9.6223  -46.3930 C.3       2 UNK        -0.1800 
     64 N           4.9878  -11.2719  -47.8580 N.am      2 UNK        -0.5000 
     65 C           5.3820  -12.5059  -47.5199 C.2       1 UNK         0.5000 
     66 O           5.7739  -12.8124  -46.3922 O.2       1 UNK        -0.5000 
     67 C          -1.5320  -23.3284  -47.9132 C.2       11 UNK         0.5000 
     68 O          -1.5555  -24.2695  -48.7045 O.2       11 UNK        -0.5000 
     69 N          -2.3911  -23.1942  -46.8908 N.am      12 UNK        -0.5000 
     70 CA         -3.4545  -24.1509  -46.5673 C.3       12 UNK         0.1400 
     71 CB         -4.3526  -23.5680  -45.4669 C.3       12 UNK        -0.1800 
     72 C          -2.9322  -25.5423  -46.1583 C.2       12 UNK         0.5000 
     73 O          -3.5880  -26.5442  -46.4449 O.2       12 UNK        -0.5000 
     74 N          -1.7627  -25.5872  -45.5055 N.am      13 UNK        -0.5000 
     75 CA         -1.0570  -26.8241  -45.1735 C.3       13 UNK         0.1400 
     76 CB          0.0103  -26.5398  -44.1058 C.3       13 UNK        -0.1800 
     77 C          -0.4302  -27.4894  -46.4133 C.2       13 UNK         0.5000 
     78 O          -0.4386  -28.7175  -46.5071 O.2       13 UNK        -0.5000 
     79 N           0.0962  -26.6752  -47.3398 N.am      14 UNK        -0.5000 
     80 CA          0.7020  -27.1223  -48.5944 C.3       14 UNK         0.1400 
     81 CB          1.4835  -25.9649  -49.2355 C.3       14 UNK        -0.1800 
     82 C          -0.3228  -27.7089  -49.5830 C.2       14 UNK         0.5000 
     83 O          -0.0358  -28.7304  -50.2094 O.2       14 UNK        -0.5000 
     84 N          -1.4968  -27.0764  -49.6951 N.am      15 UNK        -0.5000 
     85 CA         -2.6107  -27.5325  -50.5203 C.3       15 UNK         0.1400 
     86 CB         -2.4393  -27.0244  -51.9626 C.3       15 UNK        -0.1800 
     87 C          -3.9208  -27.0179  -49.9175 C.2       15 UNK         0.5000 
     88 O          -3.9899  -25.8510  -49.5336 O.2       15 UNK        -0.5000 
     89 N          -4.9570  -27.8666  -49.8945 N.am      16 UNK        -0.5000 
     90 CA         -6.2691  -27.5795  -49.2973 C.3       16 UNK         0.1400 
     91 CB         -7.1342  -28.8475  -49.3628 C.3       16 UNK        -0.1800 
     92 C          -7.0190  -26.3835  -49.9225 C.2       16 UNK         0.5000 
     93 O          -7.8537  -25.7740  -49.2533 O.2       16 UNK        -0.5000 
     94 N          -6.6914  -26.0542  -51.1793 N.am      17 UNK        -0.5000 
     95 CA         -7.1802  -24.8754  -51.8968 C.3       17 UNK         0.1400 
     96 CB         -6.9686  -25.0984  -53.4033 C.3       17 UNK        -0.1800 
     97 C          -6.5074  -23.5583  -51.4539 C.2       17 UNK         0.5000 
     98 O          -6.9498  -22.4932  -51.8853 O.2       17 UNK        -0.5000 
     99 N          -5.4354  -23.6427  -50.6493 N.am      18 UNK        -0.5000 
    100 CA        -4.6145  -22.5401  -50.1406 C.3       18 UNK         0.1400 
    101 CB        -5.3936  -21.7099  -49.1004 C.3       18 UNK        -0.1800 
    102 C         -4.0073  -21.6871  -51.2706 C.2       18 UNK         0.5000 
    103 O         -4.0880  -20.4594  -51.2292 O.2       18 UNK        -0.5000 
    104 N         -3.4510  -22.3718  -52.2824 N.am      19 UNK        -0.5000 
    105 CA        -2.9094  -21.8132  -53.5280 C.3       19 UNK         0.1400 
    106 CB        -1.6337  -20.9908  -53.2534 C.3       19 UNK        -0.1800 
    107 C         -3.9745  -21.0295  -54.3238 C.2       19 UNK         0.5000 
    108 O         -3.7209  -19.9080  -54.7657 O.2       19 UNK        -0.5000 
    109 N         -5.1654  -21.6358  -54.4509 N.am      20 UNK        -0.5000 
    110 CA        -6.3805  -21.0796  -55.0585 C.3       20 UNK         0.1400 
    111 CB        -6.2066  -20.9248  -56.5838 C.3       20 UNK        -0.1800 
    112 C         -6.8329  -19.7802  -54.3589 C.2       20 UNK         0.5000 
    113 O         -7.1059  -18.7783  -55.0224 O.2       20 UNK        -0.5000 
    114 N         -6.8751  -19.8369  -53.0199 N.am      21 UNK        -0.5000 
    115 CA        -7.1535  -18.7440  -52.0867 C.3       21 UNK         0.1400 
    116 CB        -8.6297  -18.3055  -52.1869 C.3       21 UNK        -0.1800 
    117 C         -6.1561  -17.5755  -52.2357 C.2       21 UNK         0.5000 
    118 O         -6.5633  -16.4413  -52.4979 O.2       21 UNK        -0.5000 
    119 N         -4.8660  -17.8857  -52.0525 N.am      22 UNK        -0.5000 
    120 CA        -3.7345  -16.9415  -52.0685 C.3       22 UNK         0.1400 
    121 C         -3.4599  -16.3158  -53.4702 C.2       22 UNK         0.5000 
    122 N         -3.6002  -17.0648  -54.5562 N.am      22 UNK        -0.7600 
    123 O         -3.1040  -15.1457  -53.5885 O.2       22 UNK        -0.5000 
    124 C124       -3.8211  -15.8773  -50.9350 C.3       23 UNK        -0.0398 
    125 S125       -3.9236  -16.6253  -49.2708 S.3       23 UNK        -0.2404 
    126 C126       -2.5917  -15.7532  -48.3879 C.3       23 UNK        -0.0205 
    127 H127        5.6355  -12.3402  -52.9493 H         1 UNK         0.0600 
    128 H128        7.0693  -12.9997  -52.1580 H         1 UNK         0.0600 
    129 H129        6.8091  -11.2536  -52.1989 H         1 UNK         0.0600 
    130 H130        6.6489  -13.8285  -50.2064 H         1 UNK         0.3000 
    131 H131        6.0286  -14.3565  -48.2638 H         1 UNK         0.0600 
    132 H132        4.0088  -15.1572  -49.3542 H         1 UNK         0.0800 
    133 H133        3.7485  -14.7782  -47.6863 H         1 UNK         0.0800 
    134 H134        1.1406  -13.5287  -51.0353 H         1 UNK         0.0800 
    135 H135        2.5246  -14.5862  -51.1168 H         1 UNK         0.0800 
    136 H136       -0.7726  -14.0440  -49.4901 H         1 UNK         0.1150 
    137 H137       -1.3407  -18.1488  -48.4654 H         1 UNK         0.1150 
    138 H138        2.3573  -16.8714  -50.2265 H         1 UNK         0.1150 
    139 H139        2.1108  -19.1419  -49.7246 H         1 UNK         0.0800 
    140 H140        1.2897  -19.3716  -48.2150 H         1 UNK         0.0800 
    141 H141       -1.9666  -21.1109  -49.1674 H         1 UNK         0.0800 
    142 H142       -1.1325  -20.1885  -47.9697 H         1 UNK         0.0800 
    143 H143        0.3223  -22.6926  -48.7169 H         1 UNK         0.0600 
    144 H144        0.1332  -21.0385  -46.4130 H         1 UNK         0.3000 
    145 H145        1.6034  -23.3153  -44.0855 H         1 UNK         0.0600 
    146 H146        3.0274  -21.2952  -43.7833 H         1 UNK         0.0600 
    147 H147        2.5317  -20.6844  -45.3605 H         1 UNK         0.0600 
    148 H148        3.4695  -22.1656  -45.2440 H         1 UNK         0.0600 
    149 H149        0.4830  -20.6574  -43.9126 H         1 UNK         0.3000 
    150 H150       -2.7820  -21.6809  -42.9043 H         1 UNK         0.0600 
    151 H151       -1.4078  -21.8962  -40.8353 H         1 UNK         0.0600 
    152 H152       -2.1912  -20.3253  -40.9125 H         1 UNK         0.0600 
    153 H153       -0.4745  -20.4744  -41.2866 H         1 UNK         0.0600 
    154 H154       -1.4695  -19.1308  -43.1102 H         1 UNK         0.3000 
    155 H155       -2.4817  -18.4459  -46.4739 H         1 UNK         0.0600 
    156 H156       -4.4464  -17.9686  -45.0125 H         1 UNK         0.0600 
    157 H157       -3.5036  -16.5105  -45.2679 H         1 UNK         0.0600 
    158 H158       -3.3803  -17.3769  -43.7434 H         1 UNK         0.0600 
    159 H159       -1.1174  -16.7117  -44.8526 H         1 UNK         0.3000 
    160 H160        2.1658  -18.0274  -44.6925 H         1 UNK         0.0600 
    161 H161        1.0938  -15.8648  -46.5712 H         1 UNK         0.0600 
    162 H162        2.2642  -17.1163  -46.9521 H         1 UNK         0.0600 
    163 H163        2.6982  -15.8301  -45.8353 H         1 UNK         0.0600 
    164 H164        1.2484  -15.4786  -43.9660 H         1 UNK         0.3000 
    165 H165       -0.0786  -16.2677  -40.7377 H         1 UNK         0.0600 
    166 H166        1.6536  -14.5585  -40.1871 H         1 UNK         0.0600 
    167 H167        2.3761  -16.1341  -40.4750 H         1 UNK         0.0600 
    168 H168        2.4810  -14.8866  -41.7086 H         1 UNK         0.0600 
    169 H169        0.3185  -13.9777  -42.5657 H         1 UNK         0.3000 
    170 H170       -3.0941  -13.7959  -43.4693 H         1 UNK         0.0600 
    171 H171       -1.6239  -11.9313  -41.5278 H         1 UNK         0.0600 
    172 H172       -3.0179  -11.5048  -42.5218 H         1 UNK         0.0600 
    173 H173       -3.1864  -12.6844  -41.2319 H         1 UNK         0.0600 
    174 H174       -0.9162  -12.0041  -43.9027 H         1 UNK         0.3000 
    175 H175        0.5460  -13.6668  -46.6797 H         1 UNK         0.0600 
    176 H176       -1.1926  -11.1498  -46.6098 H         1 UNK         0.0600 
    177 H177       -0.0382  -11.5998  -47.8660 H         1 UNK         0.0600 
    178 H178       -1.4939  -12.5526  -47.6276 H         1 UNK         0.0600 
    179 H179        1.1865  -11.1440  -45.7428 H         1 UNK         0.3000 
    180 H180        2.4261  -10.6672  -43.6318 H         1 UNK         0.0600 
    181 H181        4.4663  -11.3752  -42.4040 H         1 UNK         0.0600 
    182 H182        4.3194  -13.0080  -43.0517 H         1 UNK         0.0600 
    183 H183        3.0961  -12.3772  -41.9536 H         1 UNK         0.0600 
    184 H184        4.7030  -11.7956  -45.1500 H         1 UNK         0.3000 
    185 H185        4.4799   -9.2929  -47.6944 H         1 UNK         0.0600 
    186 H186        6.8898   -9.4324  -47.1624 H         1 UNK         0.0600 
    187 H187        6.0065   -8.6948  -45.8353 H         1 UNK         0.0600 
    188 H188        6.5530  -10.3586  -45.7026 H         1 UNK         0.0600 
    189 H189        4.6877  -11.1647  -48.8266 H         1 UNK         0.3000 
    190 H190       -2.3414  -22.3660  -46.3032 H         1 UNK         0.3000 
    191 H191       -4.0669  -24.2801  -47.4606 H         1 UNK         0.0600 
    192 H192       -4.8097  -22.6314  -45.7865 H         1 UNK         0.0600 
    193 H193       -3.7915  -23.3736  -44.5524 H         1 UNK         0.0600 
    194 H194       -5.1621  -24.2551  -45.2175 H         1 UNK         0.0600 
    195 H195       -1.3221  -24.7183  -45.2267 H         1 UNK         0.3000 
    196 H196       -1.7772  -27.5259  -44.7475 H         1 UNK         0.0600 
    197 H197       -0.4381  -26.1300  -43.2006 H         1 UNK         0.0600 
    198 H198        0.7578  -25.8295  -44.4589 H         1 UNK         0.0600 
    199 H199        0.5337  -27.4543  -43.8244 H         1 UNK         0.0600 
    200 H200        0.1091  -25.6771  -47.1608 H         1 UNK         0.3000 
    201 H201        1.4168  -27.9121  -48.3541 H         1 UNK         0.0600 
    202 H202        2.2539  -25.5886  -48.5622 H         1 UNK         0.0600 
    203 H203        0.8324  -25.1312  -49.4971 H         1 UNK         0.0600 
    204 H204        1.9811  -26.2904  -50.1498 H         1 UNK         0.0600 
    205 H205       -1.6643  -26.2193  -49.1715 H         1 UNK         0.3000 
    206 H206       -2.6367  -28.6243  -50.5230 H         1 UNK         0.0600 
    207 H207       -2.3830  -25.9356  -51.9987 H         1 UNK         0.0600 
    208 H208       -1.5307  -27.4206  -52.4161 H         1 UNK         0.0600 
    209 H209       -3.2762  -27.3335  -52.5899 H         1 UNK         0.0600 
    210 H210       -4.8296  -28.8014  -50.2550 H         1 UNK         0.3000 
    211 H211       -6.1002  -27.3354  -48.2462 H         1 UNK         0.0600 
    212 H212       -7.3087  -29.1621  -50.3925 H         1 UNK         0.0600 
    213 H213       -8.1084  -28.6814  -48.9008 H         1 UNK         0.0600 
    214 H214       -6.6631  -29.6753  -48.8326 H         1 UNK         0.0600 
    215 H215       -6.0032  -26.6204  -51.6528 H         1 UNK         0.3000 
    216 H216       -8.2515  -24.7719  -51.7125 H         1 UNK         0.0600 
    217 H217       -7.3654  -24.2648  -53.9841 H         1 UNK         0.0600 
    218 H218       -7.4813  -25.9984  -53.7436 H         1 UNK         0.0600 
    219 H219       -5.9115  -25.2003  -53.6518 H         1 UNK         0.0600 
    220 H220       -5.1268  -24.5637  -50.3480 H         1 UNK         0.3000 
    221 H221       -3.7748  -23.0049  -49.6288 H         1 UNK         0.0600 
    222 H222       -6.2369  -21.1850  -49.5498 H         1 UNK         0.0600 
    223 H223       -5.7795  -22.3438  -48.3022 H         1 UNK         0.0600 
    224 H224       -4.7496  -20.9617  -48.6361 H         1 UNK         0.0600 
    225 H225       -3.4432  -23.3794  -52.2151 H         1 UNK         0.3000 
    226 H226       -2.6245  -22.6611  -54.1524 H         1 UNK         0.0600 
    227 H227       -0.8907  -21.5866  -52.7240 H         1 UNK         0.0600 
    228 H228       -1.1757  -20.6564  -54.1848 H         1 UNK         0.0600 
    229 H229       -1.8406  -20.1027  -52.6553 H         1 UNK         0.0600 
    230 H230       -5.2788  -22.5353  -54.0083 H         1 UNK         0.3000 
    231 H231       -7.1739  -21.8091  -54.8899 H         1 UNK         0.0600 
    232 H232       -7.1415  -20.6166  -57.0531 H         1 UNK         0.0600 
    233 H233       -5.9083  -21.8668  -57.0437 H         1 UNK         0.0600 
    234 H234       -5.4539  -20.1764  -56.8338 H         1 UNK         0.0600 
    235 H235       -6.6704  -20.7327  -52.5839 H         1 UNK         0.3000 
    236 H236       -7.0013  -19.1519  -51.0862 H         1 UNK         0.0600 
    237 H237       -8.8607  -17.8684  -53.1586 H         1 UNK         0.0600 
    238 H238       -9.3016  -19.1493  -52.0304 H         1 UNK         0.0600 
    239 H239       -8.8650  -17.5581  -51.4284 H         1 UNK         0.0600 
    240 H240       -4.6208  -18.8497  -51.8306 H         1 UNK         0.3000 
    241 H241       -2.8501  -17.5458  -51.8622 H         1 UNK         0.0600 
    242 H242       -3.8216  -18.0564  -54.4948 H         1 UNK         0.3800 
    243 H243       -3.4237  -16.6568  -55.4595 H         1 UNK         0.3800 
    244 H244       -4.6855  -15.2279  -51.0767 H         1 UNK         0.0800 
    245 H245       -2.9510  -15.2209  -50.9728 H         1 UNK         0.0800 
    246 H246       -2.6233  -16.0408  -47.3391 H         1 UNK         0.0800 
    247 H247       -2.7864  -14.6801  -48.4141 H         1 UNK         0.0800 
@<TRIPOS>BOND
     1    1    2 1    
     2    1  127 1    
     3    1  128 1    
     4    1  129 1    
     5    2    3 2    
     6    2    4 am   BACKBONE|DICT|INTERRES
     7    4    5 1    
     8    4  130 1    
     9    5    6 1    
    10    5   65 1    
    11    5  131 1    
    12    6    7 1    
    13    6  132 1    
    14    6  133 1    
    15    7    8 1    
    16    8    9 1    
    17    8  134 1    
    18    8  135 1    
    19    9   10 ar   
    20    9   14 ar   
    21   10   11 ar   
    22   10  136 1    
    23   11   12 ar   
    24   11  126 1    
    25   12   13 ar   
    26   12  137 1    
    27   13   14 ar   
    28   13   15 1    
    29   14  138 1    
    30   15   16 1    
    31   15  139 1    
    32   15  140 1    
    33   16   17 1    
    34   17   18 1    
    35   17  141 1    
    36   17  142 1    
    37   18   19 1    
    38   18   67 1    
    39   18  143 1    
    40   19   20 am   BACKBONE|DICT|INTERRES
    41   19  144 1    
    42   20   21 2    
    43   20   22 1    
    44   22   23 1    
    45   22   24 1    
    46   22  145 1    
    47   23  146 1    
    48   23  147 1    
    49   23  148 1    
    50   24   25 am   BACKBONE|DICT|INTERRES
    51   24  149 1    
    52   25   26 2    
    53   25   27 1    
    54   27   28 1    
    55   27   29 1    
    56   27  150 1    
    57   28  151 1    
    58   28  152 1    
    59   28  153 1    
    60   29   30 am   BACKBONE|DICT|INTERRES
    61   29  154 1    
    62   30   31 2    
    63   30   32 1    
    64   32   33 1    
    65   32   34 1    
    66   32  155 1    
    67   33  156 1    
    68   33  157 1    
    69   33  158 1    
    70   34   35 am   BACKBONE|DICT|INTERRES
    71   34  159 1    
    72   35   36 2    
    73   35   37 1    
    74   37   38 1    
    75   37   39 1    
    76   37  160 1    
    77   38  161 1    
    78   38  162 1    
    79   38  163 1    
    80   39   40 am   BACKBONE|DICT|INTERRES
    81   39  164 1    
    82   40   41 2    
    83   40   42 1    
    84   42   43 1    
    85   42   44 1    
    86   42  165 1    
    87   43  166 1    
    88   43  167 1    
    89   43  168 1    
    90   44   45 am   BACKBONE|DICT|INTERRES
    91   44  169 1    
    92   45   46 2    
    93   45   47 1    
    94   47   48 1    
    95   47   49 1    
    96   47  170 1    
    97   48  171 1    
    98   48  172 1    
    99   48  173 1    
   100   49   50 am   BACKBONE|DICT|INTERRES
   101   49  174 1    
   102   50   51 2    
   103   50   52 1    
   104   52   53 1    
   105   52   54 1    
   106   52  175 1    
   107   53  176 1    
   108   53  177 1    
   109   53  178 1    
   110   54   55 am   BACKBONE|DICT|INTERRES
   111   54  179 1    
   112   55   56 2    
   113   55   57 1    
   114   57   58 1    
   115   57   59 1    
   116   57  180 1    
   117   58  181 1    
   118   58  182 1    
   119   58  183 1    
   120   59   60 am   BACKBONE|DICT|INTERRES
   121   59  184 1    
   122   60   61 2    
   123   60   62 1    
   124   62   63 1    
   125   62   64 1    
   126   62  185 1    
   127   63  186 1    
   128   63  187 1    
   129   63  188 1    
   130   64   65 am   BACKBONE|DICT|INTERRES
   131   64  189 1    
   132   65   66 2    
   133   67   68 2    
   134   67   69 am   BACKBONE|DICT|INTERRES
   135   69   70 1    
   136   69  190 1    
   137   70   71 1    
   138   70   72 1    
   139   70  191 1    
   140   71  192 1    
   141   71  193 1    
   142   71  194 1    
   143   72   73 2    
   144   72   74 am   BACKBONE|DICT|INTERRES
   145   74   75 1    
   146   74  195 1    
   147   75   76 1    
   148   75   77 1    
   149   75  196 1    
   150   76  197 1    
   151   76  198 1    
   152   76  199 1    
   153   77   78 2    
   154   77   79 am   BACKBONE|DICT|INTERRES
   155   79   80 1    
   156   79  200 1    
   157   80   81 1    
   158   80   82 1    
   159   80  201 1    
   160   81  202 1    
   161   81  203 1    
   162   81  204 1    
   163   82   83 2    
   164   82   84 am   BACKBONE|DICT|INTERRES
   165   84   85 1    
   166   84  205 1    
   167   85   86 1    
   168   85   87 1    
   169   85  206 1    
   170   86  207 1    
   171   86  208 1    
   172   86  209 1    
   173   87   88 2    
   174   87   89 am   BACKBONE|DICT|INTERRES
   175   89   90 1    
   176   89  210 1    
   177   90   91 1    
   178   90   92 1    
   179   90  211 1    
   180   91  212 1    
   181   91  213 1    
   182   91  214 1    
   183   92   93 2    
   184   92   94 am   BACKBONE|DICT|INTERRES
   185   94   95 1    
   186   94  215 1    
   187   95   96 1    
   188   95   97 1    
   189   95  216 1    
   190   96  217 1    
   191   96  218 1    
   192   96  219 1    
   193   97   98 2    
   194   97   99 am   BACKBONE|DICT|INTERRES
   195   99  100 1    
   196   99  220 1    
   197  100  101 1    
   198  100  102 1    
   199  100  221 1    
   200  101  222 1    
   201  101  223 1    
   202  101  224 1    
   203  102  103 2    
   204  102  104 am   BACKBONE|DICT|INTERRES
   205  104  105 1    
   206  104  225 1    
   207  105  106 1    
   208  105  107 1    
   209  105  226 1    
   210  106  227 1    
   211  106  228 1    
   212  106  229 1    
   213  107  108 2    
   214  107  109 am   BACKBONE|DICT|INTERRES
   215  109  110 1    
   216  109  230 1    
   217  110  111 1    
   218  110  112 1    
   219  110  231 1    
   220  111  232 1    
   221  111  233 1    
   222  111  234 1    
   223  112  113 2    
   224  112  114 am   BACKBONE|DICT|INTERRES
   225  114  115 1    
   226  114  235 1    
   227  115  116 1    
   228  115  117 1    
   229  115  236 1    
   230  116  237 1    
   231  116  238 1    
   232  116  239 1    
   233  117  118 2    
   234  117  119 am   BACKBONE|DICT|INTERRES
   235  119  120 1    
   236  119  240 1    
   237  120  121 1    
   238  120  124 1    
   239  120  241 1    
   240  121  122 am   BACKBONE|DICT|INTERRES
   241  121  123 2    
   242  122  242 1    
   243  122  243 1    
   244  124  125 1    
   245  124  244 1    
   246  124  245 1    
   247  125  126 1    
   248  126  246 1    
   249  126  247 1    
@<TRIPOS>SUBSTRUCTURE
     1 UNK         1 GROUP             0       ****    0 ROOT    
