@<TRIPOS>MOLECULE
3R540
247   249    1
SMALL
USER_CHARGES


@<TRIPOS>ATOM
      1 CA          5.5700  -15.0092  -44.1155 C.3       0 UNK        -0.1800 
      2 C           4.3610  -14.3456  -44.7568 C.2       0 UNK         0.5000 
      3 O           3.2380  -14.5384  -44.2943 O.2       0 UNK        -0.5000 
      4 N           4.5905  -13.5748  -45.8231 N.am      1 UNK        -0.5000 
      5 CA          3.5863  -12.7470  -46.4933 C.3       1 UNK         0.1400 
      6 C6          3.3789  -13.1411  -47.9772 C.3       23 UNK        -0.0398 
      7 S7          2.4945  -14.7280  -48.1601 S.3       23 UNK        -0.2404 
      8 C8          3.5966  -15.6370  -49.2959 C.3       23 UNK        -0.0205 
      9 C9          2.8546  -16.7221  -50.0665 C.ar      23 UNK        -0.0193 
     10 C10         1.8312  -16.3587  -50.9444 C.ar      23 UNK        -0.1150 
     11 C11         1.1380  -17.3223  -51.6835 C.ar      23 UNK        -0.0193 
     12 C12         1.5116  -18.6646  -51.5644 C.ar      23 UNK        -0.1150 
     13 C13         2.5603  -19.0453  -50.7202 C.ar      23 UNK        -0.0193 
     14 C14         3.2160  -18.0700  -49.9580 C.ar      23 UNK        -0.1150 
     15 C15         3.0465  -20.4912  -50.7082 C.3       23 UNK        -0.0205 
     16 S16         2.6099  -21.3991  -49.1925 S.3       23 UNK        -0.2404 
     17 C17         0.8628  -21.8314  -49.4882 C.3       23 UNK        -0.0398 
     18 CA          0.3145  -22.8240  -48.4312 C.3       11 UNK         0.1400 
     19 N           0.2659  -22.2554  -47.0792 N.am      11 UNK        -0.5000 
     20 C          -0.0212  -22.9399  -45.9629 C.2       10 UNK         0.5000 
     21 O          -0.2318  -24.1514  -45.9452 O.2       10 UNK        -0.5000 
     22 CA         -0.1443  -22.1395  -44.6518 C.3       10 UNK         0.1400 
     23 CB          1.2347  -21.8645  -44.0342 C.3       10 UNK        -0.1800 
     24 N          -0.8789  -20.8852  -44.8244 N.am      10 UNK        -0.5000 
     25 C          -2.1790  -20.8139  -45.1457 C.2       9 UNK         0.5000 
     26 O          -2.9047  -21.8002  -45.2676 O.2       9 UNK        -0.5000 
     27 CA         -2.7563  -19.4143  -45.4316 C.3       9 UNK         0.1400 
     28 CB         -3.1409  -18.6937  -44.1312 C.3       9 UNK        -0.1800 
     29 N          -1.8399  -18.5789  -46.2064 N.am      9 UNK        -0.5000 
     30 C          -1.4320  -18.8629  -47.4522 C.2       8 UNK         0.5000 
     31 O          -1.8400  -19.8242  -48.1026 O.2       8 UNK        -0.5000 
     32 CA         -0.3423  -17.9506  -48.0404 C.3       8 UNK         0.1400 
     33 CB         -0.9761  -16.6666  -48.5871 C.3       8 UNK        -0.1800 
     34 N           0.6998  -17.6283  -47.0590 N.am      8 UNK        -0.5000 
     35 C           1.4995  -18.5483  -46.4991 C.2       7 UNK         0.5000 
     36 O           1.4408  -19.7429  -46.7660 O.2       7 UNK        -0.5000 
     37 CA          2.4751  -18.0945  -45.4021 C.3       7 UNK         0.1400 
     38 CB          3.8119  -17.6314  -45.9934 C.3       7 UNK        -0.1800 
     39 N           1.9007  -17.0704  -44.5313 N.am      7 UNK        -0.5000 
     40 C           0.8824  -17.3065  -43.6928 C.2       6 UNK         0.5000 
     41 O           0.3707  -18.4161  -43.5372 O.2       6 UNK        -0.5000 
     42 CA          0.3099  -16.0956  -42.9382 C.3       6 UNK         0.1400 
     43 CB          1.1464  -15.7767  -41.6901 C.3       6 UNK        -0.1800 
     44 N           0.2077  -14.9004  -43.7757 N.am      6 UNK        -0.5000 
     45 C          -0.6007  -14.7711  -44.8352 C.2       5 UNK         0.5000 
     46 O          -1.3271  -15.6789  -45.2447 O.2       5 UNK        -0.5000 
     47 CA         -0.6153  -13.3858  -45.5166 C.3       5 UNK         0.1400 
     48 CB         -1.6417  -13.2805  -46.6577 C.3       5 UNK        -0.1800 
     49 N          -0.8935  -12.3266  -44.5436 N.am      5 UNK        -0.5000 
     50 C           0.0289  -11.7098  -43.7983 C.2       4 UNK         0.5000 
     51 O           1.2332  -11.9702  -43.8561 O.2       4 UNK        -0.5000 
     52 CA         -0.4789  -10.6540  -42.8060 C.3       4 UNK         0.1400 
     53 CB         -0.9328  -11.3078  -41.4907 C.3       4 UNK        -0.1800 
     54 N           0.6134   -9.7294  -42.5382 N.am      4 UNK        -0.5000 
     55 C           0.5246   -8.4091  -42.3622 C.2       3 UNK         0.5000 
     56 O          -0.5454   -7.8054  -42.2741 O.2       3 UNK        -0.5000 
     57 CA          1.8490   -7.6141  -42.3248 C.3       3 UNK         0.1400 
     58 CB          2.4365   -7.5648  -40.9010 C.3       3 UNK        -0.1800 
     59 N           2.8428   -8.0586  -43.3185 N.am      3 UNK        -0.5000 
     60 C           3.5236   -9.2119  -43.3612 C.2       2 UNK         0.5000 
     61 O           3.4774  -10.0762  -42.4828 O.2       2 UNK        -0.5000 
     62 CA          4.3479   -9.4800  -44.6243 C.3       2 UNK         0.1400 
     63 CB          5.8558   -9.3451  -44.3559 C.3       2 UNK        -0.1800 
     64 N           4.0331  -10.8364  -45.0536 N.am      2 UNK        -0.5000 
     65 C           4.0170  -11.2803  -46.3134 C.2       1 UNK         0.5000 
     66 O           4.3556  -10.5997  -47.2834 O.2       1 UNK        -0.5000 
     67 C          -1.0553  -23.3914  -48.8583 C.2       11 UNK         0.5000 
     68 O          -1.1104  -24.5098  -49.3702 O.2       11 UNK        -0.5000 
     69 N          -2.1358  -22.6445  -48.5914 N.am      12 UNK        -0.5000 
     70 CA         -3.5167  -23.0714  -48.8207 C.3       12 UNK         0.1400 
     71 CB         -4.4651  -21.8954  -48.5576 C.3       12 UNK        -0.1800 
     72 C          -3.9156  -24.2878  -47.9660 C.2       12 UNK         0.5000 
     73 O          -4.5512  -25.2076  -48.4798 O.2       12 UNK        -0.5000 
     74 N          -3.5115  -24.2933  -46.6874 N.am      13 UNK        -0.5000 
     75 CA         -3.7253  -25.4039  -45.7579 C.3       13 UNK         0.1400 
     76 CB         -3.3599  -24.9666  -44.3317 C.3       13 UNK        -0.1800 
     77 C          -2.9525  -26.6746  -46.1572 C.2       13 UNK         0.5000 
     78 O          -3.5006  -27.7713  -46.0470 O.2       13 UNK        -0.5000 
     79 N          -1.7127  -26.5051  -46.6385 N.am      14 UNK        -0.5000 
     80 CA         -0.8652  -27.5778  -47.1613 C.3       14 UNK         0.1400 
     81 CB          0.5656  -27.0557  -47.3621 C.3       14 UNK        -0.1800 
     82 C          -1.4160  -28.1842  -48.4648 C.2       14 UNK         0.5000 
     83 O          -1.3834  -29.4052  -48.6247 O.2       14 UNK        -0.5000 
     84 N          -1.9351  -27.3293  -49.3580 N.am      15 UNK        -0.5000 
     85 CA         -2.6342  -27.7330  -50.5801 C.3       15 UNK         0.1400 
     86 CB         -2.8134  -26.5083  -51.4903 C.3       15 UNK        -0.1800 
     87 C          -3.9983  -28.3927  -50.2963 C.2       15 UNK         0.5000 
     88 O          -4.4168  -29.2658  -51.0572 O.2       15 UNK        -0.5000 
     89 N          -4.6524  -27.9565  -49.2093 N.am      16 UNK        -0.5000 
     90 CA         -5.9812  -28.3475  -48.7318 C.3       16 UNK         0.1400 
     91 CB         -5.9963  -29.8258  -48.2915 C.3       16 UNK        -0.1800 
     92 C          -7.0851  -27.9963  -49.7496 C.2       16 UNK         0.5000 
     93 O          -8.0018  -28.7890  -49.9763 O.2       16 UNK        -0.5000 
     94 N          -6.9592  -26.8146  -50.3637 N.am      17 UNK        -0.5000 
     95 CA         -7.7968  -26.3256  -51.4527 C.3       17 UNK         0.1400 
     96 CB         -7.4057  -27.0458  -52.7616 C.3       17 UNK        -0.1800 
     97 C          -7.6275  -24.8036  -51.5831 C.2       17 UNK         0.5000 
     98 O          -6.8482  -24.1995  -50.8428 O.2       17 UNK        -0.5000 
     99 N          -8.3380  -24.2145  -52.5545 N.am      18 UNK        -0.5000 
    100 CA        -8.2042  -22.8101  -52.9574 C.3       18 UNK         0.1400 
    101 CB        -9.4218  -22.4194  -53.8092 C.3       18 UNK        -0.1800 
    102 C         -6.8927  -22.5135  -53.7173 C.2       18 UNK         0.5000 
    103 O         -6.5430  -21.3455  -53.8928 O.2       18 UNK        -0.5000 
    104 N         -6.1815  -23.5636  -54.1523 N.am      19 UNK        -0.5000 
    105 CA        -4.8352  -23.4886  -54.7144 C.3       19 UNK         0.1400 
    106 CB        -4.3927  -24.8933  -55.1519 C.3       19 UNK        -0.1800 
    107 C         -3.8489  -22.8945  -53.6916 C.2       19 UNK         0.5000 
    108 O         -3.7961  -23.3677  -52.5566 O.2       19 UNK        -0.5000 
    109 N         -3.1199  -21.8539  -54.1137 N.am      20 UNK        -0.5000 
    110 CA        -2.1694  -21.0566  -53.3284 C.3       20 UNK         0.1400 
    111 CB        -1.0424  -21.9347  -52.7464 C.3       20 UNK        -0.1800 
    112 C         -2.8132  -20.1487  -52.2559 C.2       20 UNK         0.5000 
    113 O         -2.0787  -19.4969  -51.5140 O.2       20 UNK        -0.5000 
    114 N         -4.1508  -20.0505  -52.2185 N.am      21 UNK        -0.5000 
    115 CA        -4.8965  -19.1459  -51.3399 C.3       21 UNK         0.1400 
    116 CB        -6.2657  -19.7711  -51.0095 C.3       21 UNK        -0.1800 
    117 C         -5.0209  -17.7516  -51.9866 C.2       21 UNK         0.5000 
    118 O         -6.1282  -17.2958  -52.2805 O.2       21 UNK        -0.5000 
    119 N         -3.8718  -17.1163  -52.2398 N.am      22 UNK        -0.5000 
    120 CA        -3.7609  -15.7697  -52.8179 C.3       22 UNK         0.1400 
    121 C         -4.2959  -14.6376  -51.8898 C.2       22 UNK         0.5000 
    122 N         -4.6472  -13.4877  -52.4508 N.am      22 UNK        -0.7600 
    123 O         -4.3780  -14.7769  -50.6710 O.2       22 UNK        -0.5000 
    124 C124       -2.3225  -15.4861  -53.3254 C.3       23 UNK        -0.0398 
    125 S125       -1.0449  -15.5912  -52.0249 S.3       23 UNK        -0.2404 
    126 C126        0.0295  -16.9242  -52.6557 C.3       23 UNK        -0.0205 
    127 H127        6.3113  -15.2876  -44.8647 H         1 UNK         0.0600 
    128 H128        6.0350  -14.3295  -43.4018 H         1 UNK         0.0600 
    129 H129        5.2729  -15.9109  -43.5801 H         1 UNK         0.0600 
    130 H130        5.5396  -13.4453  -46.1445 H         1 UNK         0.3000 
    131 H131        2.6217  -12.8335  -45.9932 H         1 UNK         0.0600 
    132 H132        4.3365  -13.1745  -48.4988 H         1 UNK         0.0800 
    133 H133        2.7782  -12.3897  -48.4927 H         1 UNK         0.0800 
    134 H134        4.0274  -14.9453  -50.0210 H         1 UNK         0.0800 
    135 H135        4.4316  -16.0549  -48.7324 H         1 UNK         0.0800 
    136 H136        1.5734  -15.3141  -51.0452 H         1 UNK         0.1150 
    137 H137        1.0066  -19.4103  -52.1599 H         1 UNK         0.1150 
    138 H138        4.0290  -18.3598  -49.3077 H         1 UNK         0.1150 
    139 H139        2.6725  -21.0341  -51.5776 H         1 UNK         0.0800 
    140 H140        4.1332  -20.4917  -50.8041 H         1 UNK         0.0800 
    141 H141        0.8045  -22.2777  -50.4813 H         1 UNK         0.0800 
    142 H142        0.2663  -20.9180  -49.5178 H         1 UNK         0.0800 
    143 H143        1.0010  -23.6724  -48.3900 H         1 UNK         0.0600 
    144 H144        0.5127  -21.2700  -46.9979 H         1 UNK         0.3000 
    145 H145       -0.7061  -22.7520  -43.9437 H         1 UNK         0.0600 
    146 H146        1.1461  -21.3091  -43.1003 H         1 UNK         0.0600 
    147 H147        1.7511  -22.7987  -43.8110 H         1 UNK         0.0600 
    148 H148        1.8749  -21.2927  -44.7045 H         1 UNK         0.0600 
    149 H149       -0.3547  -20.0249  -44.7116 H         1 UNK         0.3000 
    150 H150       -3.6633  -19.5463  -46.0249 H         1 UNK         0.0600 
    151 H151       -3.8627  -19.2798  -43.5610 H         1 UNK         0.0600 
    152 H152       -3.5970  -17.7252  -44.3377 H         1 UNK         0.0600 
    153 H153       -2.2766  -18.5247  -43.4895 H         1 UNK         0.0600 
    154 H154       -1.4771  -17.7473  -45.7534 H         1 UNK         0.3000 
    155 H155        0.1333  -18.4769  -48.8703 H         1 UNK         0.0600 
    156 H156       -0.2248  -15.9708  -48.9581 H         1 UNK         0.0600 
    157 H157       -1.6465  -16.8987  -49.4152 H         1 UNK         0.0600 
    158 H158       -1.5697  -16.1582  -47.8297 H         1 UNK         0.0600 
    159 H159        0.7884  -16.6633  -46.7789 H         1 UNK         0.3000 
    160 H160        2.6872  -18.9698  -44.7845 H         1 UNK         0.0600 
    161 H161        3.7212  -16.6691  -46.4902 H         1 UNK         0.0600 
    162 H162        4.1866  -18.3474  -46.7260 H         1 UNK         0.0600 
    163 H163        4.5704  -17.5409  -45.2174 H         1 UNK         0.0600 
    164 H164        2.2913  -16.1316  -44.5756 H         1 UNK         0.3000 
    165 H165       -0.6982  -16.3591  -42.6114 H         1 UNK         0.0600 
    166 H166        0.6989  -14.9676  -41.1125 H         1 UNK         0.0600 
    167 H167        1.2155  -16.6457  -41.0346 H         1 UNK         0.0600 
    168 H168        2.1629  -15.4796  -41.9503 H         1 UNK         0.0600 
    169 H169        0.8250  -14.1287  -43.5493 H         1 UNK         0.3000 
    170 H170        0.3712  -13.2304  -45.9547 H         1 UNK         0.0600 
    171 H171       -1.3764  -13.9415  -47.4812 H         1 UNK         0.0600 
    172 H172       -2.6475  -13.5428  -46.3272 H         1 UNK         0.0600 
    173 H173       -1.6760  -12.2699  -47.0650 H         1 UNK         0.0600 
    174 H174       -1.8670  -12.0926  -44.4101 H         1 UNK         0.3000 
    175 H175       -1.3154  -10.1209  -43.2627 H         1 UNK         0.0600 
    176 H176       -1.7504  -12.0089  -41.6622 H         1 UNK         0.0600 
    177 H177       -0.1201  -11.8594  -41.0160 H         1 UNK         0.0600 
    178 H178       -1.2884  -10.5600  -40.7818 H         1 UNK         0.0600 
    179 H179        1.5411  -10.1411  -42.6119 H         1 UNK         0.3000 
    180 H180        1.6002   -6.5891  -42.6043 H         1 UNK         0.0600 
    181 H181        2.6603   -8.5587  -40.5132 H         1 UNK         0.0600 
    182 H182        1.7323   -7.1010  -40.2093 H         1 UNK         0.0600 
    183 H183        3.3544   -6.9777  -40.8727 H         1 UNK         0.0600 
    184 H184        2.9419   -7.4346  -44.1077 H         1 UNK         0.3000 
    185 H185        4.0537   -8.7706  -45.4009 H         1 UNK         0.0600 
    186 H186        6.1023   -8.3390  -44.0150 H         1 UNK         0.0600 
    187 H187        6.1916  -10.0451  -43.5897 H         1 UNK         0.0600 
    188 H188        6.4355   -9.5347  -45.2594 H         1 UNK         0.0600 
    189 H189        3.6935  -11.4414  -44.3135 H         1 UNK         0.3000 
    190 H190       -2.0058  -21.7070  -48.2177 H         1 UNK         0.3000 
    191 H191       -3.6084  -23.3555  -49.8706 H         1 UNK         0.0600 
    192 H192       -4.4285  -21.5681  -47.5186 H         1 UNK         0.0600 
    193 H193       -5.4962  -22.1715  -48.7815 H         1 UNK         0.0600 
    194 H194       -4.2061  -21.0431  -49.1832 H         1 UNK         0.0600 
    195 H195       -3.0437  -23.4718  -46.3163 H         1 UNK         0.3000 
    196 H196       -4.7897  -25.6476  -45.7722 H         1 UNK         0.0600 
    197 H197       -3.5380  -25.7724  -43.6186 H         1 UNK         0.0600 
    198 H198       -3.9604  -24.1137  -44.0152 H         1 UNK         0.0600 
    199 H199       -2.3102  -24.6843  -44.2526 H         1 UNK         0.0600 
    200 H200       -1.3076  -25.5727  -46.6239 H         1 UNK         0.3000 
    201 H201       -0.8325  -28.3726  -46.4133 H         1 UNK         0.0600 
    202 H202        0.9885  -26.6958  -46.4240 H         1 UNK         0.0600 
    203 H203        0.5990  -26.2354  -48.0793 H         1 UNK         0.0600 
    204 H204        1.2210  -27.8444  -47.7334 H         1 UNK         0.0600 
    205 H205       -1.8538  -26.3309  -49.1874 H         1 UNK         0.3000 
    206 H206       -2.0127  -28.4612  -51.1051 H         1 UNK         0.0600 
    207 H207       -1.8534  -26.0607  -51.7480 H         1 UNK         0.0600 
    208 H208       -3.3057  -26.7838  -52.4233 H         1 UNK         0.0600 
    209 H209       -3.4216  -25.7377  -51.0148 H         1 UNK         0.0600 
    210 H210       -4.2481  -27.1653  -48.7195 H         1 UNK         0.3000 
    211 H211       -6.1755  -27.7387  -47.8476 H         1 UNK         0.0600 
    212 H212       -5.8622  -30.5034  -49.1350 H         1 UNK         0.0600 
    213 H213       -6.9431  -30.0810  -47.8144 H         1 UNK         0.0600 
    214 H214       -5.2046  -30.0272  -47.5695 H         1 UNK         0.0600 
    215 H215       -6.2250  -26.1751  -50.0770 H         1 UNK         0.3000 
    216 H216       -8.8439  -26.5271  -51.2182 H         1 UNK         0.0600 
    217 H217       -6.3658  -26.8516  -53.0279 H         1 UNK         0.0600 
    218 H218       -8.0277  -26.7294  -53.5992 H         1 UNK         0.0600 
    219 H219       -7.5257  -28.1256  -52.6731 H         1 UNK         0.0600 
    220 H220       -8.9703  -24.7762  -53.1069 H         1 UNK         0.3000 
    221 H221       -8.2038  -22.1917  -52.0573 H         1 UNK         0.0600 
    222 H222      -10.3515  -22.5624  -53.2581 H         1 UNK         0.0600 
    223 H223       -9.4784  -23.0090  -54.7251 H         1 UNK         0.0600 
    224 H224       -9.3760  -21.3683  -54.0978 H         1 UNK         0.0600 
    225 H225       -6.5322  -24.4861  -53.9495 H         1 UNK         0.3000 
    226 H226       -4.8735  -22.8467  -55.5969 H         1 UNK         0.0600 
    227 H227       -5.0630  -25.3012  -55.9086 H         1 UNK         0.0600 
    228 H228       -3.3910  -24.8699  -55.5828 H         1 UNK         0.0600 
    229 H229       -4.3723  -25.5882  -54.3118 H         1 UNK         0.0600 
    230 H230       -3.2586  -21.5342  -55.0626 H         1 UNK         0.3000 
    231 H231       -1.7056  -20.3752  -54.0431 H         1 UNK         0.0600 
    232 H232       -1.3949  -22.5602  -51.9257 H         1 UNK         0.0600 
    233 H233       -0.2352  -21.3164  -52.3579 H         1 UNK         0.0600 
    234 H234       -0.6122  -22.5861  -53.5068 H         1 UNK         0.0600 
    235 H235       -4.7025  -20.5796  -52.8827 H         1 UNK         0.3000 
    236 H236       -4.3539  -19.0230  -50.4002 H         1 UNK         0.0600 
    237 H237       -6.7604  -19.2158  -50.2122 H         1 UNK         0.0600 
    238 H238       -6.9351  -19.7667  -51.8694 H         1 UNK         0.0600 
    239 H239       -6.1664  -20.8039  -50.6775 H         1 UNK         0.0600 
    240 H240       -3.0067  -17.5518  -51.9433 H         1 UNK         0.3000 
    241 H241       -4.4092  -15.7661  -53.6965 H         1 UNK         0.0600 
    242 H242       -4.9874  -12.7428  -51.8626 H         1 UNK         0.3800 
    243 H243       -4.5927  -13.3425  -53.4472 H         1 UNK         0.3800 
    244 H244       -2.2649  -14.4963  -53.7808 H         1 UNK         0.0800 
    245 H245       -2.0797  -16.1854  -54.1264 H         1 UNK         0.0800 
    246 H246        0.4867  -16.6002  -53.5913 H         1 UNK         0.0800 
    247 H247       -0.5891  -17.7900  -52.8927 H         1 UNK         0.0800 
@<TRIPOS>BOND
     1    1    2 1    
     2    1  127 1    
     3    1  128 1    
     4    1  129 1    
     5    2    3 2    
     6    2    4 am   BACKBONE|DICT|INTERRES
     7    4    5 1    
     8    4  130 1    
     9    5    6 1    
    10    5   65 1    
    11    5  131 1    
    12    6    7 1    
    13    6  132 1    
    14    6  133 1    
    15    7    8 1    
    16    8    9 1    
    17    8  134 1    
    18    8  135 1    
    19    9   10 ar   
    20    9   14 ar   
    21   10   11 ar   
    22   10  136 1    
    23   11   12 ar   
    24   11  126 1    
    25   12   13 ar   
    26   12  137 1    
    27   13   14 ar   
    28   13   15 1    
    29   14  138 1    
    30   15   16 1    
    31   15  139 1    
    32   15  140 1    
    33   16   17 1    
    34   17   18 1    
    35   17  141 1    
    36   17  142 1    
    37   18   19 1    
    38   18   67 1    
    39   18  143 1    
    40   19   20 am   BACKBONE|DICT|INTERRES
    41   19  144 1    
    42   20   21 2    
    43   20   22 1    
    44   22   23 1    
    45   22   24 1    
    46   22  145 1    
    47   23  146 1    
    48   23  147 1    
    49   23  148 1    
    50   24   25 am   BACKBONE|DICT|INTERRES
    51   24  149 1    
    52   25   26 2    
    53   25   27 1    
    54   27   28 1    
    55   27   29 1    
    56   27  150 1    
    57   28  151 1    
    58   28  152 1    
    59   28  153 1    
    60   29   30 am   BACKBONE|DICT|INTERRES
    61   29  154 1    
    62   30   31 2    
    63   30   32 1    
    64   32   33 1    
    65   32   34 1    
    66   32  155 1    
    67   33  156 1    
    68   33  157 1    
    69   33  158 1    
    70   34   35 am   BACKBONE|DICT|INTERRES
    71   34  159 1    
    72   35   36 2    
    73   35   37 1    
    74   37   38 1    
    75   37   39 1    
    76   37  160 1    
    77   38  161 1    
    78   38  162 1    
    79   38  163 1    
    80   39   40 am   BACKBONE|DICT|INTERRES
    81   39  164 1    
    82   40   41 2    
    83   40   42 1    
    84   42   43 1    
    85   42   44 1    
    86   42  165 1    
    87   43  166 1    
    88   43  167 1    
    89   43  168 1    
    90   44   45 am   BACKBONE|DICT|INTERRES
    91   44  169 1    
    92   45   46 2    
    93   45   47 1    
    94   47   48 1    
    95   47   49 1    
    96   47  170 1    
    97   48  171 1    
    98   48  172 1    
    99   48  173 1    
   100   49   50 am   BACKBONE|DICT|INTERRES
   101   49  174 1    
   102   50   51 2    
   103   50   52 1    
   104   52   53 1    
   105   52   54 1    
   106   52  175 1    
   107   53  176 1    
   108   53  177 1    
   109   53  178 1    
   110   54   55 am   BACKBONE|DICT|INTERRES
   111   54  179 1    
   112   55   56 2    
   113   55   57 1    
   114   57   58 1    
   115   57   59 1    
   116   57  180 1    
   117   58  181 1    
   118   58  182 1    
   119   58  183 1    
   120   59   60 am   BACKBONE|DICT|INTERRES
   121   59  184 1    
   122   60   61 2    
   123   60   62 1    
   124   62   63 1    
   125   62   64 1    
   126   62  185 1    
   127   63  186 1    
   128   63  187 1    
   129   63  188 1    
   130   64   65 am   BACKBONE|DICT|INTERRES
   131   64  189 1    
   132   65   66 2    
   133   67   68 2    
   134   67   69 am   BACKBONE|DICT|INTERRES
   135   69   70 1    
   136   69  190 1    
   137   70   71 1    
   138   70   72 1    
   139   70  191 1    
   140   71  192 1    
   141   71  193 1    
   142   71  194 1    
   143   72   73 2    
   144   72   74 am   BACKBONE|DICT|INTERRES
   145   74   75 1    
   146   74  195 1    
   147   75   76 1    
   148   75   77 1    
   149   75  196 1    
   150   76  197 1    
   151   76  198 1    
   152   76  199 1    
   153   77   78 2    
   154   77   79 am   BACKBONE|DICT|INTERRES
   155   79   80 1    
   156   79  200 1    
   157   80   81 1    
   158   80   82 1    
   159   80  201 1    
   160   81  202 1    
   161   81  203 1    
   162   81  204 1    
   163   82   83 2    
   164   82   84 am   BACKBONE|DICT|INTERRES
   165   84   85 1    
   166   84  205 1    
   167   85   86 1    
   168   85   87 1    
   169   85  206 1    
   170   86  207 1    
   171   86  208 1    
   172   86  209 1    
   173   87   88 2    
   174   87   89 am   BACKBONE|DICT|INTERRES
   175   89   90 1    
   176   89  210 1    
   177   90   91 1    
   178   90   92 1    
   179   90  211 1    
   180   91  212 1    
   181   91  213 1    
   182   91  214 1    
   183   92   93 2    
   184   92   94 am   BACKBONE|DICT|INTERRES
   185   94   95 1    
   186   94  215 1    
   187   95   96 1    
   188   95   97 1    
   189   95  216 1    
   190   96  217 1    
   191   96  218 1    
   192   96  219 1    
   193   97   98 2    
   194   97   99 am   BACKBONE|DICT|INTERRES
   195   99  100 1    
   196   99  220 1    
   197  100  101 1    
   198  100  102 1    
   199  100  221 1    
   200  101  222 1    
   201  101  223 1    
   202  101  224 1    
   203  102  103 2    
   204  102  104 am   BACKBONE|DICT|INTERRES
   205  104  105 1    
   206  104  225 1    
   207  105  106 1    
   208  105  107 1    
   209  105  226 1    
   210  106  227 1    
   211  106  228 1    
   212  106  229 1    
   213  107  108 2    
   214  107  109 am   BACKBONE|DICT|INTERRES
   215  109  110 1    
   216  109  230 1    
   217  110  111 1    
   218  110  112 1    
   219  110  231 1    
   220  111  232 1    
   221  111  233 1    
   222  111  234 1    
   223  112  113 2    
   224  112  114 am   BACKBONE|DICT|INTERRES
   225  114  115 1    
   226  114  235 1    
   227  115  116 1    
   228  115  117 1    
   229  115  236 1    
   230  116  237 1    
   231  116  238 1    
   232  116  239 1    
   233  117  118 2    
   234  117  119 am   BACKBONE|DICT|INTERRES
   235  119  120 1    
   236  119  240 1    
   237  120  121 1    
   238  120  124 1    
   239  120  241 1    
   240  121  122 am   BACKBONE|DICT|INTERRES
   241  121  123 2    
   242  122  242 1    
   243  122  243 1    
   244  124  125 1    
   245  124  244 1    
   246  124  245 1    
   247  125  126 1    
   248  126  246 1    
   249  126  247 1    
@<TRIPOS>SUBSTRUCTURE
     1 UNK         1 GROUP             0       ****    0 ROOT    
