@<TRIPOS>MOLECULE
3R540
247   249    1
SMALL
USER_CHARGES


@<TRIPOS>ATOM
      1 CA          2.8684  -13.8011  -45.6231 C.3       0 UNK        -0.1800 
      2 C           2.3783  -15.0578  -46.3237 C.2       0 UNK         0.5000 
      3 O           1.6516  -15.8589  -45.7315 O.2       0 UNK        -0.5000 
      4 N           2.7779  -15.2278  -47.5889 N.am      1 UNK        -0.5000 
      5 CA          2.4355  -16.3451  -48.4805 C.3       1 UNK         0.1400 
      6 C6          3.5535  -16.5740  -49.5434 C.3       23 UNK        -0.0398 
      7 S7          4.7518  -17.8486  -49.0203 S.3       23 UNK        -0.2404 
      8 C8          4.7501  -18.9981  -50.4361 C.3       23 UNK        -0.0205 
      9 C9          3.6317  -20.0309  -50.3654 C.ar      23 UNK        -0.0193 
     10 C10         2.3397  -19.7077  -50.7900 C.ar      23 UNK        -0.1150 
     11 C11         1.3273  -20.6692  -50.7837 C.ar      23 UNK        -0.0193 
     12 C12         1.6152  -21.9655  -50.3512 C.ar      23 UNK        -0.1150 
     13 C13         2.8967  -22.3081  -49.9106 C.ar      23 UNK        -0.0193 
     14 C14         3.9017  -21.3315  -49.9242 C.ar      23 UNK        -0.1150 
     15 C15         3.1709  -23.7506  -49.4805 C.3       23 UNK        -0.0205 
     16 S16         4.3680  -23.9340  -48.1157 S.3       23 UNK        -0.2404 
     17 C17         3.5181  -23.0719  -46.7531 C.3       23 UNK        -0.0398 
     18 CA          3.4769  -23.8959  -45.4372 C.3       11 UNK         0.1400 
     19 N           3.5940  -23.0159  -44.2691 N.am      11 UNK        -0.5000 
     20 C           3.9493  -23.3893  -43.0323 C.2       10 UNK         0.5000 
     21 O           4.3070  -24.5290  -42.7355 O.2       10 UNK        -0.5000 
     22 CA          3.8253  -22.3138  -41.9350 C.3       10 UNK         0.1400 
     23 CB          5.0833  -21.4338  -41.8843 C.3       10 UNK        -0.1800 
     24 N           2.6418  -21.4658  -42.1124 N.am      10 UNK        -0.5000 
     25 C           1.3737  -21.8913  -42.0042 C.2       9 UNK         0.5000 
     26 O           1.0622  -23.0428  -41.7053 O.2       9 UNK        -0.5000 
     27 CA          0.2708  -20.8749  -42.3395 C.3       9 UNK         0.1400 
     28 CB         -0.0061  -19.9642  -41.1327 C.3       9 UNK        -0.1800 
     29 N           0.6473  -20.0706  -43.5020 N.am      9 UNK        -0.5000 
     30 C           0.5254  -20.4843  -44.7723 C.2       8 UNK         0.5000 
     31 O          -0.0232  -21.5385  -45.1021 O.2       8 UNK        -0.5000 
     32 CA          1.1060  -19.5775  -45.8740 C.3       8 UNK         0.1400 
     33 CB         -0.0182  -18.7689  -46.5369 C.3       8 UNK        -0.1800 
     34 N           2.1742  -18.6810  -45.4138 N.am      8 UNK        -0.5000 
     35 C           3.3729  -19.1119  -44.9927 C.2       7 UNK         0.5000 
     36 O           3.6889  -20.2986  -44.9777 O.2       7 UNK        -0.5000 
     37 CA          4.3608  -18.0806  -44.4148 C.3       7 UNK         0.1400 
     38 CB          5.2760  -17.5142  -45.5063 C.3       7 UNK        -0.1800 
     39 N           3.7410  -16.9773  -43.6808 N.am      7 UNK        -0.5000 
     40 C           2.9297  -17.1046  -42.6241 C.2       6 UNK         0.5000 
     41 O           2.5244  -18.1879  -42.2027 O.2       6 UNK        -0.5000 
     42 CA          2.4767  -15.8065  -41.9470 C.3       6 UNK         0.1400 
     43 CB          3.5729  -14.7185  -41.9171 C.3       6 UNK        -0.1800 
     44 N           1.2700  -15.3322  -42.6157 N.am      6 UNK        -0.5000 
     45 C           0.3975  -14.4625  -42.0918 C.2       5 UNK         0.5000 
     46 O           0.5651  -13.8812  -41.0187 O.2       5 UNK        -0.5000 
     47 CA         -0.9073  -14.2328  -42.8775 C.3       5 UNK         0.1400 
     48 CB         -0.7063  -13.1962  -43.9929 C.3       5 UNK        -0.1800 
     49 N          -1.4631  -15.4642  -43.4443 N.am      5 UNK        -0.5000 
     50 C          -1.9133  -16.4989  -42.7162 C.2       4 UNK         0.5000 
     51 O          -1.9021  -16.5124  -41.4843 O.2       4 UNK        -0.5000 
     52 CA         -2.4601  -17.7217  -43.4871 C.3       4 UNK         0.1400 
     53 CB         -3.4059  -18.5928  -42.6313 C.3       4 UNK        -0.1800 
     54 N          -3.0744  -17.3726  -44.7744 N.am      4 UNK        -0.5000 
     55 C          -4.1547  -16.6018  -44.9720 C.2       3 UNK         0.5000 
     56 O          -4.8558  -16.1613  -44.0601 O.2       3 UNK        -0.5000 
     57 CA         -4.5013  -16.2514  -46.4381 C.3       3 UNK         0.1400 
     58 CB         -5.1832  -14.8731  -46.5551 C.3       3 UNK        -0.1800 
     59 N          -3.3880  -16.3194  -47.3968 N.am      3 UNK        -0.5000 
     60 C          -2.2007  -15.7021  -47.3242 C.2       2 UNK         0.5000 
     61 O          -1.7644  -15.1430  -46.3170 O.2       2 UNK        -0.5000 
     62 CA         -1.3652  -15.6948  -48.6051 C.3       2 UNK         0.1400 
     63 CB         -1.6483  -14.4186  -49.4198 C.3       2 UNK        -0.1800 
     64 N           0.0472  -15.7770  -48.2617 N.am      2 UNK        -0.5000 
     65 C           1.0193  -16.1783  -49.0884 C.2       1 UNK         0.5000 
     66 O           0.8171  -16.4330  -50.2755 O.2       1 UNK        -0.5000 
     67 C           2.2286  -24.8120  -45.3678 C.2       11 UNK         0.5000 
     68 O           2.1243  -25.7496  -46.1589 O.2       11 UNK        -0.5000 
     69 N           1.3134  -24.5292  -44.4246 N.am      12 UNK        -0.5000 
     70 CA          0.0642  -25.2399  -44.1298 C.3       12 UNK         0.1400 
     71 CB          0.3581  -26.6535  -43.5864 C.3       12 UNK        -0.1800 
     72 C          -0.9297  -25.2364  -45.3085 C.2       12 UNK         0.5000 
     73 O          -1.6539  -26.2133  -45.5103 O.2       12 UNK        -0.5000 
     74 N          -0.9387  -24.1347  -46.0675 N.am      13 UNK        -0.5000 
     75 CA         -1.7731  -23.9513  -47.2501 C.3       13 UNK         0.1400 
     76 CB         -0.9229  -23.3386  -48.3714 C.3       13 UNK        -0.1800 
     77 C          -2.9821  -23.0601  -46.9443 C.2       13 UNK         0.5000 
     78 O          -4.0984  -23.4140  -47.3230 O.2       13 UNK        -0.5000 
     79 N          -2.7317  -21.9167  -46.2822 N.am      14 UNK        -0.5000 
     80 CA         -3.7045  -20.8654  -45.9430 C.3       14 UNK         0.1400 
     81 CB         -4.6931  -21.3836  -44.8770 C.3       14 UNK        -0.1800 
     82 C          -4.4316  -20.2624  -47.1713 C.2       14 UNK         0.5000 
     83 O          -5.5743  -19.8185  -47.0516 O.2       14 UNK        -0.5000 
     84 N          -3.7668  -20.2920  -48.3336 N.am      15 UNK        -0.5000 
     85 CA         -4.3828  -20.1356  -49.6490 C.3       15 UNK         0.1400 
     86 CB         -4.1325  -21.4365  -50.4345 C.3       15 UNK        -0.1800 
     87 C          -3.8943  -18.8527  -50.3513 C.2       15 UNK         0.5000 
     88 O          -3.9569  -17.7806  -49.7453 O.2       15 UNK        -0.5000 
     89 N          -3.4679  -18.9663  -51.6184 N.am      16 UNK        -0.5000 
     90 CA         -3.1841  -17.8856  -52.5695 C.3       16 UNK         0.1400 
     91 CB         -2.0342  -16.9682  -52.1103 C.3       16 UNK        -0.1800 
     92 C          -4.4861  -17.1379  -52.8922 C.2       16 UNK         0.5000 
     93 O          -5.4355  -17.7824  -53.3329 O.2       16 UNK        -0.5000 
     94 N          -4.5465  -15.8251  -52.6322 N.am      17 UNK        -0.5000 
     95 CA         -5.7051  -14.9535  -52.8610 C.3       17 UNK         0.1400 
     96 CB         -5.3431  -13.5284  -52.4158 C.3       17 UNK        -0.1800 
     97 C          -7.0111  -15.4126  -52.1769 C.2       17 UNK         0.5000 
     98 O          -8.0932  -15.0699  -52.6534 O.2       17 UNK        -0.5000 
     99 N          -6.8915  -16.1985  -51.0978 N.am      18 UNK        -0.5000 
    100 CA        -8.0117  -16.8115  -50.3849 C.3       18 UNK         0.1400 
    101 CB        -7.5218  -17.2748  -49.0040 C.3       18 UNK        -0.1800 
    102 C         -8.6789  -17.9783  -51.1469 C.2       18 UNK         0.5000 
    103 O         -9.8264  -18.3023  -50.8379 O.2       18 UNK        -0.5000 
    104 N         -7.9688  -18.5941  -52.1047 N.am      19 UNK        -0.5000 
    105 CA        -8.4328  -19.7592  -52.8703 C.3       19 UNK         0.1400 
    106 CB        -7.6499  -20.9931  -52.3939 C.3       19 UNK        -0.1800 
    107 C         -8.2916  -19.5866  -54.3971 C.2       19 UNK         0.5000 
    108 O         -8.7720  -20.4420  -55.1412 O.2       19 UNK        -0.5000 
    109 N         -7.6262  -18.5079  -54.8331 N.am      20 UNK        -0.5000 
    110 CA        -7.2114  -18.1766  -56.2013 C.3       20 UNK         0.1400 
    111 CB        -8.4214  -18.0632  -57.1525 C.3       20 UNK        -0.1800 
    112 C         -6.0923  -19.0926  -56.7494 C.2       20 UNK         0.5000 
    113 O         -5.8941  -19.1464  -57.9645 O.2       20 UNK        -0.5000 
    114 N         -5.3631  -19.7728  -55.8551 N.am      21 UNK        -0.5000 
    115 CA        -4.2682  -20.7024  -56.1312 C.3       21 UNK         0.1400 
    116 CB        -4.7926  -21.9525  -56.8689 C.3       21 UNK        -0.1800 
    117 C         -3.6219  -21.1105  -54.7972 C.2       21 UNK         0.5000 
    118 O         -4.2066  -20.8636  -53.7412 O.2       21 UNK        -0.5000 
    119 N         -2.4485  -21.7495  -54.8632 N.am      22 UNK        -0.5000 
    120 CA        -1.7730  -22.3891  -53.7152 C.3       22 UNK         0.1400 
    121 C         -1.8580  -23.9444  -53.7423 C.2       22 UNK         0.5000 
    122 N         -2.5501  -24.5629  -54.6918 N.am      22 UNK        -0.7600 
    123 O         -1.3031  -24.6082  -52.8713 O.2       22 UNK        -0.5000 
    124 C124       -0.3083  -21.9025  -53.5498 C.3       23 UNK        -0.0398 
    125 S125       -0.2167  -20.1526  -53.0456 S.3       23 UNK        -0.2404 
    126 C126       -0.0778  -20.2986  -51.2325 C.3       23 UNK        -0.0205 
    127 H127        2.7526  -12.9295  -46.2674 H         1 UNK         0.0600 
    128 H128        3.9218  -13.9010  -45.3630 H         1 UNK         0.0600 
    129 H129        2.3051  -13.6191  -44.7091 H         1 UNK         0.0600 
    130 H130        3.3535  -14.5110  -48.0072 H         1 UNK         0.3000 
    131 H131        2.3647  -17.2481  -47.8722 H         1 UNK         0.0600 
    132 H132        4.1007  -15.6503  -49.7358 H         1 UNK         0.0800 
    133 H133        3.1681  -16.8622  -50.5191 H         1 UNK         0.0800 
    134 H134        5.7157  -19.5055  -50.4604 H         1 UNK         0.0800 
    135 H135        4.6883  -18.4418  -51.3726 H         1 UNK         0.0800 
    136 H136        2.1158  -18.7136  -51.1470 H         1 UNK         0.1150 
    137 H137        0.8394  -22.7159  -50.3727 H         1 UNK         0.1150 
    138 H138        4.9036  -21.5872  -49.6103 H         1 UNK         0.1150 
    139 H139        2.2440  -24.2445  -49.1857 H         1 UNK         0.0800 
    140 H140        3.5477  -24.2980  -50.3452 H         1 UNK         0.0800 
    141 H141        4.0923  -22.1572  -46.6110 H         1 UNK         0.0800 
    142 H142        2.5211  -22.7456  -47.0556 H         1 UNK         0.0800 
    143 H143        4.3479  -24.5545  -45.4161 H         1 UNK         0.0600 
    144 H144        3.4139  -22.0281  -44.4363 H         1 UNK         0.3000 
    145 H145        3.7296  -22.8260  -40.9753 H         1 UNK         0.0600 
    146 H146        5.0111  -20.6853  -41.0950 H         1 UNK         0.0600 
    147 H147        5.2515  -20.9131  -42.8268 H         1 UNK         0.0600 
    148 H148        5.9699  -22.0359  -41.6819 H         1 UNK         0.0600 
    149 H149        2.8052  -20.4963  -42.3503 H         1 UNK         0.3000 
    150 H150       -0.6474  -21.4200  -42.5699 H         1 UNK         0.0600 
    151 H151       -0.5037  -20.5205  -40.3377 H         1 UNK         0.0600 
    152 H152       -0.6488  -19.1277  -41.3991 H         1 UNK         0.0600 
    153 H153        0.9094  -19.5504  -40.7101 H         1 UNK         0.0600 
    154 H154        1.1613  -19.2190  -43.3055 H         1 UNK         0.3000 
    155 H155        1.5275  -20.2424  -46.6314 H         1 UNK         0.0600 
    156 H156       -0.9147  -19.3708  -46.6882 H         1 UNK         0.0600 
    157 H157        0.2911  -18.4299  -47.5222 H         1 UNK         0.0600 
    158 H158       -0.2957  -17.8977  -45.9436 H         1 UNK         0.0600 
    159 H159        1.9788  -17.6831  -45.4071 H         1 UNK         0.3000 
    160 H160        4.9916  -18.6160  -43.7027 H         1 UNK         0.0600 
    161 H161        4.7233  -16.8958  -46.2118 H         1 UNK         0.0600 
    162 H162        5.7528  -18.3157  -46.0723 H         1 UNK         0.0600 
    163 H163        6.0711  -16.9039  -45.0780 H         1 UNK         0.0600 
    164 H164        4.0049  -16.0473  -43.9670 H         1 UNK         0.3000 
    165 H165        2.2242  -16.0643  -40.9162 H         1 UNK         0.0600 
    166 H166        3.2794  -13.8805  -41.2852 H         1 UNK         0.0600 
    167 H167        4.5035  -15.1132  -41.5073 H         1 UNK         0.0600 
    168 H168        3.7900  -14.3200  -42.9068 H         1 UNK         0.0600 
    169 H169        1.0633  -15.7516  -43.5143 H         1 UNK         0.3000 
    170 H170       -1.6423  -13.8307  -42.1772 H         1 UNK         0.0600 
    171 H171       -0.2534  -12.2824  -43.6065 H         1 UNK         0.0600 
    172 H172       -0.0622  -13.5773  -44.7849 H         1 UNK         0.0600 
    173 H173       -1.6586  -12.9216  -44.4470 H         1 UNK         0.0600 
    174 H174       -1.5427  -15.4916  -44.4579 H         1 UNK         0.3000 
    175 H175       -1.5881  -18.3305  -43.7245 H         1 UNK         0.0600 
    176 H176       -4.3061  -18.0535  -42.3374 H         1 UNK         0.0600 
    177 H177       -3.7111  -19.4866  -43.1674 H         1 UNK         0.0600 
    178 H178       -2.9229  -18.9278  -41.7139 H         1 UNK         0.0600 
    179 H179       -2.5518  -17.6268  -45.5983 H         1 UNK         0.3000 
    180 H180       -5.2211  -17.0047  -46.7609 H         1 UNK         0.0600 
    181 H181       -5.4463  -14.6497  -47.5891 H         1 UNK         0.0600 
    182 H182       -4.5338  -14.0743  -46.1949 H         1 UNK         0.0600 
    183 H183       -6.1055  -14.8360  -45.9743 H         1 UNK         0.0600 
    184 H184       -3.6151  -16.8005  -48.2674 H         1 UNK         0.3000 
    185 H185       -1.6249  -16.5829  -49.1811 H         1 UNK         0.0600 
    186 H186       -1.3813  -13.5215  -48.8598 H         1 UNK         0.0600 
    187 H187       -1.0874  -14.4061  -50.3541 H         1 UNK         0.0600 
    188 H188       -2.7062  -14.3444  -49.6749 H         1 UNK         0.0600 
    189 H189        0.2650  -15.6021  -47.2854 H         1 UNK         0.3000 
    190 H190        1.5065  -23.7498  -43.8105 H         1 UNK         0.3000 
    191 H191       -0.4227  -24.6786  -43.3316 H         1 UNK         0.0600 
    192 H192       -0.5540  -27.1342  -43.2308 H         1 UNK         0.0600 
    193 H193        1.0512  -26.6145  -42.7459 H         1 UNK         0.0600 
    194 H194        0.7921  -27.2995  -44.3501 H         1 UNK         0.0600 
    195 H195       -0.3613  -23.3497  -45.7839 H         1 UNK         0.3000 
    196 H196       -2.1477  -24.9130  -47.6074 H         1 UNK         0.0600 
    197 H197       -0.4825  -22.3845  -48.0786 H         1 UNK         0.0600 
    198 H198       -1.5184  -23.1708  -49.2697 H         1 UNK         0.0600 
    199 H199       -0.1110  -24.0129  -48.6419 H         1 UNK         0.0600 
    200 H200       -1.7814  -21.7533  -45.9654 H         1 UNK         0.3000 
    201 H201       -3.1296  -20.0541  -45.4990 H         1 UNK         0.0600 
    202 H202       -5.3382  -22.1692  -45.2709 H         1 UNK         0.0600 
    203 H203       -5.3421  -20.5840  -44.5180 H         1 UNK         0.0600 
    204 H204       -4.1655  -21.7877  -44.0130 H         1 UNK         0.0600 
    205 H205       -2.8143  -20.6220  -48.3270 H         1 UNK         0.3000 
    206 H206       -5.4646  -20.0289  -49.5497 H         1 UNK         0.0600 
    207 H207       -4.4691  -22.3037  -49.8662 H         1 UNK         0.0600 
    208 H208       -4.6905  -21.4519  -51.3671 H         1 UNK         0.0600 
    209 H209       -3.0775  -21.5838  -50.6588 H         1 UNK         0.0600 
    210 H210       -3.5525  -19.8745  -52.0630 H         1 UNK         0.3000 
    211 H211       -2.8677  -18.3672  -53.4952 H         1 UNK         0.0600 
    212 H212       -2.3169  -16.3612  -51.2562 H         1 UNK         0.0600 
    213 H213       -1.7364  -16.2886  -52.9094 H         1 UNK         0.0600 
    214 H214       -1.1496  -17.5380  -51.8376 H         1 UNK         0.0600 
    215 H215       -3.7251  -15.3809  -52.2497 H         1 UNK         0.3000 
    216 H216       -5.8940  -14.9402  -53.9362 H         1 UNK         0.0600 
    217 H217       -4.4826  -13.1484  -52.9668 H         1 UNK         0.0600 
    218 H218       -5.1059  -13.4886  -51.3517 H         1 UNK         0.0600 
    219 H219       -6.1701  -12.8397  -52.5940 H         1 UNK         0.0600 
    220 H220       -5.9632  -16.4317  -50.7734 H         1 UNK         0.3000 
    221 H221       -8.7766  -16.0475  -50.2306 H         1 UNK         0.0600 
    222 H222       -8.3324  -17.7248  -48.4295 H         1 UNK         0.0600 
    223 H223       -6.7276  -18.0165  -49.0841 H         1 UNK         0.0600 
    224 H224       -7.1398  -16.4371  -48.4212 H         1 UNK         0.0600 
    225 H225       -7.0316  -18.2644  -52.3114 H         1 UNK         0.3000 
    226 H226       -9.4937  -19.9384  -52.6856 H         1 UNK         0.0600 
    227 H227       -7.7773  -21.1553  -51.3235 H         1 UNK         0.0600 
    228 H228       -7.9875  -21.8968  -52.9029 H         1 UNK         0.0600 
    229 H229       -6.5851  -20.8831  -52.5931 H         1 UNK         0.0600 
    230 H230       -7.1905  -17.9266  -54.1270 H         1 UNK         0.3000 
    231 H231       -6.7641  -17.1840  -56.1324 H         1 UNK         0.0600 
    232 H232       -8.1264  -17.6286  -58.1082 H         1 UNK         0.0600 
    233 H233       -9.1959  -17.4219  -56.7317 H         1 UNK         0.0600 
    234 H234       -8.8663  -19.0357  -57.3636 H         1 UNK         0.0600 
    235 H235       -5.5433  -19.6384  -54.8658 H         1 UNK         0.3000 
    236 H236       -3.5189  -20.1940  -56.7409 H         1 UNK         0.0600 
    237 H237       -5.5601  -22.4653  -56.2874 H         1 UNK         0.0600 
    238 H238       -5.2232  -21.7011  -57.8376 H         1 UNK         0.0600 
    239 H239       -3.9913  -22.6665  -57.0604 H         1 UNK         0.0600 
    240 H240       -2.0181  -21.9007  -55.7642 H         1 UNK         0.3000 
    241 H241       -2.2967  -22.1218  -52.7977 H         1 UNK         0.0600 
    242 H242       -2.5996  -25.5699  -54.6867 H         1 UNK         0.3800 
    243 H243       -3.0423  -24.0434  -55.3991 H         1 UNK         0.3800 
    244 H244        0.2387  -22.0233  -54.4857 H         1 UNK         0.0800 
    245 H245        0.2305  -22.4992  -52.8130 H         1 UNK         0.0800 
    246 H246       -0.8023  -21.0266  -50.8683 H         1 UNK         0.0800 
    247 H247       -0.3508  -19.3494  -50.7716 H         1 UNK         0.0800 
@<TRIPOS>BOND
     1    1    2 1    
     2    1  127 1    
     3    1  128 1    
     4    1  129 1    
     5    2    3 2    
     6    2    4 am   BACKBONE|DICT|INTERRES
     7    4    5 1    
     8    4  130 1    
     9    5    6 1    
    10    5   65 1    
    11    5  131 1    
    12    6    7 1    
    13    6  132 1    
    14    6  133 1    
    15    7    8 1    
    16    8    9 1    
    17    8  134 1    
    18    8  135 1    
    19    9   10 ar   
    20    9   14 ar   
    21   10   11 ar   
    22   10  136 1    
    23   11   12 ar   
    24   11  126 1    
    25   12   13 ar   
    26   12  137 1    
    27   13   14 ar   
    28   13   15 1    
    29   14  138 1    
    30   15   16 1    
    31   15  139 1    
    32   15  140 1    
    33   16   17 1    
    34   17   18 1    
    35   17  141 1    
    36   17  142 1    
    37   18   19 1    
    38   18   67 1    
    39   18  143 1    
    40   19   20 am   BACKBONE|DICT|INTERRES
    41   19  144 1    
    42   20   21 2    
    43   20   22 1    
    44   22   23 1    
    45   22   24 1    
    46   22  145 1    
    47   23  146 1    
    48   23  147 1    
    49   23  148 1    
    50   24   25 am   BACKBONE|DICT|INTERRES
    51   24  149 1    
    52   25   26 2    
    53   25   27 1    
    54   27   28 1    
    55   27   29 1    
    56   27  150 1    
    57   28  151 1    
    58   28  152 1    
    59   28  153 1    
    60   29   30 am   BACKBONE|DICT|INTERRES
    61   29  154 1    
    62   30   31 2    
    63   30   32 1    
    64   32   33 1    
    65   32   34 1    
    66   32  155 1    
    67   33  156 1    
    68   33  157 1    
    69   33  158 1    
    70   34   35 am   BACKBONE|DICT|INTERRES
    71   34  159 1    
    72   35   36 2    
    73   35   37 1    
    74   37   38 1    
    75   37   39 1    
    76   37  160 1    
    77   38  161 1    
    78   38  162 1    
    79   38  163 1    
    80   39   40 am   BACKBONE|DICT|INTERRES
    81   39  164 1    
    82   40   41 2    
    83   40   42 1    
    84   42   43 1    
    85   42   44 1    
    86   42  165 1    
    87   43  166 1    
    88   43  167 1    
    89   43  168 1    
    90   44   45 am   BACKBONE|DICT|INTERRES
    91   44  169 1    
    92   45   46 2    
    93   45   47 1    
    94   47   48 1    
    95   47   49 1    
    96   47  170 1    
    97   48  171 1    
    98   48  172 1    
    99   48  173 1    
   100   49   50 am   BACKBONE|DICT|INTERRES
   101   49  174 1    
   102   50   51 2    
   103   50   52 1    
   104   52   53 1    
   105   52   54 1    
   106   52  175 1    
   107   53  176 1    
   108   53  177 1    
   109   53  178 1    
   110   54   55 am   BACKBONE|DICT|INTERRES
   111   54  179 1    
   112   55   56 2    
   113   55   57 1    
   114   57   58 1    
   115   57   59 1    
   116   57  180 1    
   117   58  181 1    
   118   58  182 1    
   119   58  183 1    
   120   59   60 am   BACKBONE|DICT|INTERRES
   121   59  184 1    
   122   60   61 2    
   123   60   62 1    
   124   62   63 1    
   125   62   64 1    
   126   62  185 1    
   127   63  186 1    
   128   63  187 1    
   129   63  188 1    
   130   64   65 am   BACKBONE|DICT|INTERRES
   131   64  189 1    
   132   65   66 2    
   133   67   68 2    
   134   67   69 am   BACKBONE|DICT|INTERRES
   135   69   70 1    
   136   69  190 1    
   137   70   71 1    
   138   70   72 1    
   139   70  191 1    
   140   71  192 1    
   141   71  193 1    
   142   71  194 1    
   143   72   73 2    
   144   72   74 am   BACKBONE|DICT|INTERRES
   145   74   75 1    
   146   74  195 1    
   147   75   76 1    
   148   75   77 1    
   149   75  196 1    
   150   76  197 1    
   151   76  198 1    
   152   76  199 1    
   153   77   78 2    
   154   77   79 am   BACKBONE|DICT|INTERRES
   155   79   80 1    
   156   79  200 1    
   157   80   81 1    
   158   80   82 1    
   159   80  201 1    
   160   81  202 1    
   161   81  203 1    
   162   81  204 1    
   163   82   83 2    
   164   82   84 am   BACKBONE|DICT|INTERRES
   165   84   85 1    
   166   84  205 1    
   167   85   86 1    
   168   85   87 1    
   169   85  206 1    
   170   86  207 1    
   171   86  208 1    
   172   86  209 1    
   173   87   88 2    
   174   87   89 am   BACKBONE|DICT|INTERRES
   175   89   90 1    
   176   89  210 1    
   177   90   91 1    
   178   90   92 1    
   179   90  211 1    
   180   91  212 1    
   181   91  213 1    
   182   91  214 1    
   183   92   93 2    
   184   92   94 am   BACKBONE|DICT|INTERRES
   185   94   95 1    
   186   94  215 1    
   187   95   96 1    
   188   95   97 1    
   189   95  216 1    
   190   96  217 1    
   191   96  218 1    
   192   96  219 1    
   193   97   98 2    
   194   97   99 am   BACKBONE|DICT|INTERRES
   195   99  100 1    
   196   99  220 1    
   197  100  101 1    
   198  100  102 1    
   199  100  221 1    
   200  101  222 1    
   201  101  223 1    
   202  101  224 1    
   203  102  103 2    
   204  102  104 am   BACKBONE|DICT|INTERRES
   205  104  105 1    
   206  104  225 1    
   207  105  106 1    
   208  105  107 1    
   209  105  226 1    
   210  106  227 1    
   211  106  228 1    
   212  106  229 1    
   213  107  108 2    
   214  107  109 am   BACKBONE|DICT|INTERRES
   215  109  110 1    
   216  109  230 1    
   217  110  111 1    
   218  110  112 1    
   219  110  231 1    
   220  111  232 1    
   221  111  233 1    
   222  111  234 1    
   223  112  113 2    
   224  112  114 am   BACKBONE|DICT|INTERRES
   225  114  115 1    
   226  114  235 1    
   227  115  116 1    
   228  115  117 1    
   229  115  236 1    
   230  116  237 1    
   231  116  238 1    
   232  116  239 1    
   233  117  118 2    
   234  117  119 am   BACKBONE|DICT|INTERRES
   235  119  120 1    
   236  119  240 1    
   237  120  121 1    
   238  120  124 1    
   239  120  241 1    
   240  121  122 am   BACKBONE|DICT|INTERRES
   241  121  123 2    
   242  122  242 1    
   243  122  243 1    
   244  124  125 1    
   245  124  244 1    
   246  124  245 1    
   247  125  126 1    
   248  126  246 1    
   249  126  247 1    
@<TRIPOS>SUBSTRUCTURE
     1 UNK         1 GROUP             0       ****    0 ROOT    
