@<TRIPOS>MOLECULE
3R540
247   249    1
SMALL
USER_CHARGES


@<TRIPOS>ATOM
      1 CA          4.3130  -14.8016  -48.7578 C.3       0 UNK        -0.1800 
      2 C           3.1043  -14.9055  -47.8399 C.2       0 UNK         0.5000 
      3 O           3.2454  -14.7947  -46.6231 O.2       0 UNK        -0.5000 
      4 N           1.9130  -15.1072  -48.4145 N.am      1 UNK        -0.5000 
      5 CA          0.6312  -15.2781  -47.7170 C.3       1 UNK         0.1400 
      6 C6         -0.3660  -16.1048  -48.5717 C.3       23 UNK        -0.0398 
      7 S7          0.1709  -17.8343  -48.7887 S.3       23 UNK        -0.2404 
      8 C8          0.8802  -17.8283  -50.4658 C.3       23 UNK        -0.0205 
      9 C9          1.2996  -19.2278  -50.8986 C.ar      23 UNK        -0.0193 
     10 C10         0.7487  -19.8135  -52.0429 C.ar      23 UNK        -0.1150 
     11 C11         1.1343  -21.0974  -52.4452 C.ar      23 UNK        -0.0193 
     12 C12         2.0623  -21.8050  -51.6748 C.ar      23 UNK        -0.1150 
     13 C13         2.6172  -21.2350  -50.5260 C.ar      23 UNK        -0.0193 
     14 C14         2.2466  -19.9394  -50.1562 C.ar      23 UNK        -0.1150 
     15 C15         3.6255  -22.0157  -49.6944 C.3       23 UNK        -0.0205 
     16 S16         2.8199  -23.1899  -48.5573 S.3       23 UNK        -0.2404 
     17 C17         2.1287  -22.0557  -47.3110 C.3       23 UNK        -0.0398 
     18 CA          1.1614  -22.7407  -46.3083 C.3       11 UNK         0.1400 
     19 N           1.2571  -22.1019  -44.9923 N.am      11 UNK        -0.5000 
     20 C           2.0433  -22.5186  -43.9912 C.2       10 UNK         0.5000 
     21 O           2.5932  -23.6208  -43.9611 O.2       10 UNK        -0.5000 
     22 CA          2.2966  -21.4823  -42.8731 C.3       10 UNK         0.1400 
     23 CB          3.3762  -21.9158  -41.8608 C.3       10 UNK        -0.1800 
     24 N           2.6013  -20.1615  -43.4387 N.am      10 UNK        -0.5000 
     25 C           3.6023  -19.8475  -44.2764 C.2       9 UNK         0.5000 
     26 O           4.5387  -20.5971  -44.5540 O.2       9 UNK        -0.5000 
     27 CA          3.5175  -18.4724  -44.9599 C.3       9 UNK         0.1400 
     28 CB          2.7780  -18.5856  -46.3018 C.3       9 UNK        -0.1800 
     29 N           2.8601  -17.4626  -44.1299 N.am      9 UNK        -0.5000 
     30 C           3.4948  -16.7780  -43.1703 C.2       8 UNK         0.5000 
     31 O           4.6628  -16.9837  -42.8368 O.2       8 UNK        -0.5000 
     32 CA          2.6956  -15.6660  -42.4784 C.3       8 UNK         0.1400 
     33 CB          2.4374  -14.4937  -43.4328 C.3       8 UNK        -0.1800 
     34 N           1.4273  -16.1449  -41.9312 N.am      8 UNK        -0.5000 
     35 C           1.3255  -16.7392  -40.7349 C.2       7 UNK         0.5000 
     36 O           2.2906  -17.0388  -40.0309 O.2       7 UNK        -0.5000 
     37 CA         -0.0942  -17.0198  -40.2251 C.3       7 UNK         0.1400 
     38 CB         -0.8833  -15.7137  -40.0273 C.3       7 UNK        -0.1800 
     39 N          -0.8224  -17.8995  -41.1325 N.am      7 UNK        -0.5000 
     40 C          -0.7787  -19.2382  -41.0866 C.2       6 UNK         0.5000 
     41 O          -0.0747  -19.8759  -40.3040 O.2       6 UNK        -0.5000 
     42 CA         -1.6913  -19.9999  -42.0660 C.3       6 UNK         0.1400 
     43 CB         -3.0078  -20.3843  -41.3725 C.3       6 UNK        -0.1800 
     44 N          -1.9964  -19.2228  -43.2664 N.am      6 UNK        -0.5000 
     45 C          -1.1487  -19.0547  -44.2881 C.2       5 UNK         0.5000 
     46 O          -0.0527  -19.6063  -44.3633 O.2       5 UNK        -0.5000 
     47 CA         -1.5948  -18.1122  -45.4153 C.3       5 UNK         0.1400 
     48 CB         -2.2383  -18.9244  -46.5438 C.3       5 UNK        -0.1800 
     49 N          -2.5309  -17.0750  -44.9779 N.am      5 UNK        -0.5000 
     50 C          -2.2285  -16.0736  -44.1436 C.2       4 UNK         0.5000 
     51 O          -1.1235  -15.9310  -43.6117 O.2       4 UNK        -0.5000 
     52 CA         -3.3740  -15.1117  -43.8098 C.3       4 UNK         0.1400 
     53 CB         -4.0550  -15.5045  -42.4874 C.3       4 UNK        -0.1800 
     54 N          -2.8433  -13.7595  -43.7282 N.am      4 UNK        -0.5000 
     55 C          -3.5382  -12.6325  -43.9080 C.2       3 UNK         0.5000 
     56 O          -4.7549  -12.6064  -44.0978 O.2       3 UNK        -0.5000 
     57 CA         -2.7482  -11.3070  -43.9056 C.3       3 UNK         0.1400 
     58 CB         -2.3085  -10.9141  -42.4811 C.3       3 UNK        -0.1800 
     59 N          -1.6243  -11.2791  -44.8544 N.am      3 UNK        -0.5000 
     60 C          -0.4991  -12.0050  -44.8268 C.2       2 UNK         0.5000 
     61 O          -0.2169  -12.7994  -43.9297 O.2       2 UNK        -0.5000 
     62 CA          0.4749  -11.8206  -46.0031 C.3       2 UNK         0.1400 
     63 CB          1.7442  -11.0839  -45.5495 C.3       2 UNK        -0.1800 
     64 N           0.8529  -13.1120  -46.5733 N.am      2 UNK        -0.5000 
     65 C           0.0416  -13.9185  -47.2687 C.2       1 UNK         0.5000 
     66 O          -1.1140  -13.6130  -47.5684 O.2       1 UNK        -0.5000 
     67 C          -0.2979  -22.7799  -46.8120 C.2       11 UNK         0.5000 
     68 O          -0.5297  -22.9044  -48.0153 O.2       11 UNK        -0.5000 
     69 N          -1.2692  -22.6770  -45.8911 N.am      12 UNK        -0.5000 
     70 CA         -2.7065  -22.5746  -46.1730 C.3       12 UNK         0.1400 
     71 CB         -3.4755  -22.4060  -44.8562 C.3       12 UNK        -0.1800 
     72 C          -3.3045  -23.7241  -47.0023 C.2       12 UNK         0.5000 
     73 O          -4.2535  -23.4855  -47.7503 O.2       12 UNK        -0.5000 
     74 N          -2.7321  -24.9282  -46.8786 N.am      13 UNK        -0.5000 
     75 CA         -3.1250  -26.1124  -47.6426 C.3       13 UNK         0.1400 
     76 CB         -2.4941  -27.3577  -47.0016 C.3       13 UNK        -0.1800 
     77 C          -2.7477  -26.0224  -49.1341 C.2       13 UNK         0.5000 
     78 O          -3.4999  -26.5145  -49.9753 O.2       13 UNK        -0.5000 
     79 N          -1.6032  -25.3938  -49.4363 N.am      14 UNK        -0.5000 
     80 CA         -1.1195  -25.1800  -50.8014 C.3       14 UNK         0.1400 
     81 CB          0.4135  -25.1163  -50.7984 C.3       14 UNK        -0.1800 
     82 C          -1.7044  -23.8943  -51.4033 C.2       14 UNK         0.5000 
     83 O          -2.0435  -23.8746  -52.5855 O.2       14 UNK        -0.5000 
     84 N          -1.8282  -22.8504  -50.5727 N.am      15 UNK        -0.5000 
     85 CA         -2.3976  -21.5552  -50.9374 C.3       15 UNK         0.1400 
     86 CB         -2.0319  -20.5354  -49.8519 C.3       15 UNK        -0.1800 
     87 C          -3.9230  -21.5854  -51.1323 C.2       15 UNK         0.5000 
     88 O          -4.4586  -20.6494  -51.7248 O.2       15 UNK        -0.5000 
     89 N          -4.5880  -22.6226  -50.6038 N.am      16 UNK        -0.5000 
     90 CA         -6.0388  -22.8191  -50.5506 C.3       16 UNK         0.1400 
     91 CB         -6.6256  -23.0203  -51.9613 C.3       16 UNK        -0.1800 
     92 C          -6.7233  -21.6907  -49.7566 C.2       16 UNK         0.5000 
     93 O          -7.6005  -21.0006  -50.2772 O.2       16 UNK        -0.5000 
     94 N          -6.2602  -21.5103  -48.5108 N.am      17 UNK        -0.5000 
     95 CA         -6.6999  -20.4974  -47.5442 C.3       17 UNK         0.1400 
     96 CB         -8.1474  -20.7714  -47.0856 C.3       17 UNK        -0.1800 
     97 C          -6.4832  -19.0542  -48.0506 C.2       17 UNK         0.5000 
     98 O          -7.3852  -18.2195  -47.9663 O.2       17 UNK        -0.5000 
     99 N          -5.2698  -18.8018  -48.5641 N.am      18 UNK        -0.5000 
    100 CA        -4.7662  -17.5167  -49.0691 C.3       18 UNK         0.1400 
    101 CB        -4.7954  -16.4270  -47.9753 C.3       18 UNK        -0.1800 
    102 C         -5.4128  -17.0488  -50.3892 C.2       18 UNK         0.5000 
    103 O         -5.3490  -15.8604  -50.7078 O.2       18 UNK        -0.5000 
    104 N         -5.9717  -17.9857  -51.1679 N.am      19 UNK        -0.5000 
    105 CA        -6.4088  -17.7465  -52.5471 C.3       19 UNK         0.1400 
    106 CB        -7.3583  -18.8752  -52.9746 C.3       19 UNK        -0.1800 
    107 C         -5.2214  -17.6452  -53.5286 C.2       19 UNK         0.5000 
    108 O         -5.3707  -17.0637  -54.6034 O.2       19 UNK        -0.5000 
    109 N         -4.0784  -18.2268  -53.1335 N.am      20 UNK        -0.5000 
    110 CA        -2.8329  -18.3960  -53.8841 C.3       20 UNK         0.1400 
    111 CB        -2.1929  -17.0399  -54.2425 C.3       20 UNK        -0.1800 
    112 C         -3.0127  -19.3378  -55.0898 C.2       20 UNK         0.5000 
    113 O         -2.4335  -19.1140  -56.1544 O.2       20 UNK        -0.5000 
    114 N         -3.8158  -20.3922  -54.8938 N.am      21 UNK        -0.5000 
    115 CA        -4.1503  -21.4063  -55.8937 C.3       21 UNK         0.1400 
    116 CB        -5.5017  -22.0363  -55.5151 C.3       21 UNK        -0.1800 
    117 C         -3.0275  -22.4547  -56.0481 C.2       21 UNK         0.5000 
    118 O         -3.2637  -23.6491  -55.8603 O.2       21 UNK        -0.5000 
    119 N         -1.8188  -21.9838  -56.3775 N.am      22 UNK        -0.5000 
    120 CA        -0.6001  -22.7978  -56.5217 C.3       22 UNK         0.1400 
    121 C         -0.5931  -23.7772  -57.7341 C.2       22 UNK         0.5000 
    122 N         -1.4830  -23.6415  -58.7098 N.am      22 UNK        -0.7600 
    123 O          0.2388  -24.6789  -57.7889 O.2       22 UNK        -0.5000 
    124 C124        0.6840  -21.9245  -56.5423 C.3       23 UNK        -0.0398 
    125 S125        0.8604  -20.7146  -55.1834 S.3       23 UNK        -0.2404 
    126 C126        0.5517  -21.7292  -53.7038 C.3       23 UNK        -0.0205 
    127 H127        4.7898  -13.8286  -48.6410 H         1 UNK         0.0600 
    128 H128        5.0408  -15.5725  -48.5047 H         1 UNK         0.0600 
    129 H129        4.0384  -14.9241  -49.8058 H         1 UNK         0.0600 
    130 H130        1.8614  -15.1451  -49.4215 H         1 UNK         0.3000 
    131 H131        0.8140  -15.8380  -46.7971 H         1 UNK         0.0600 
    132 H132       -1.3427  -16.1452  -48.0864 H         1 UNK         0.0800 
    133 H133       -0.5320  -15.6376  -49.5436 H         1 UNK         0.0800 
    134 H134        0.1493  -17.4142  -51.1619 H         1 UNK         0.0800 
    135 H135        1.7514  -17.1734  -50.4927 H         1 UNK         0.0800 
    136 H136        0.0308  -19.2649  -52.6332 H         1 UNK         0.1150 
    137 H137        2.3570  -22.8033  -51.9662 H         1 UNK         0.1150 
    138 H138        2.6789  -19.4867  -49.2759 H         1 UNK         0.1150 
    139 H139        4.2887  -22.5710  -50.3591 H         1 UNK         0.0800 
    140 H140        4.2642  -21.3373  -49.1266 H         1 UNK         0.0800 
    141 H141        2.9891  -21.6460  -46.7810 H         1 UNK         0.0800 
    142 H142        1.6463  -21.2060  -47.7955 H         1 UNK         0.0800 
    143 H143        1.4516  -23.7882  -46.2060 H         1 UNK         0.0600 
    144 H144        0.8283  -21.1824  -44.9077 H         1 UNK         0.3000 
    145 H145        1.3571  -21.3790  -42.3294 H         1 UNK         0.0600 
    146 H146        3.5169  -21.1582  -41.0897 H         1 UNK         0.0600 
    147 H147        3.0894  -22.8404  -41.3589 H         1 UNK         0.0600 
    148 H148        4.3399  -22.0899  -42.3400 H         1 UNK         0.0600 
    149 H149        1.8560  -19.4830  -43.3525 H         1 UNK         0.3000 
    150 H150        4.5371  -18.1440  -45.1738 H         1 UNK         0.0600 
    151 H151        3.3048  -19.2618  -46.9744 H         1 UNK         0.0600 
    152 H152        2.7186  -17.6215  -46.8035 H         1 UNK         0.0600 
    153 H153        1.7624  -18.9623  -46.1827 H         1 UNK         0.0600 
    154 H154        1.9001  -17.2379  -44.3421 H         1 UNK         0.3000 
    155 H155        3.3118  -15.2818  -41.6621 H         1 UNK         0.0600 
    156 H156        1.7309  -14.7595  -44.2198 H         1 UNK         0.0600 
    157 H157        3.3598  -14.1644  -43.9127 H         1 UNK         0.0600 
    158 H158        2.0340  -13.6382  -42.8920 H         1 UNK         0.0600 
    159 H159        0.5863  -15.9449  -42.4639 H         1 UNK         0.3000 
    160 H160       -0.0105  -17.5011  -39.2480 H         1 UNK         0.0600 
    161 H161       -1.8683  -15.9109  -39.6043 H         1 UNK         0.0600 
    162 H162       -1.0230  -15.1705  -40.9624 H         1 UNK         0.0600 
    163 H163       -0.3632  -15.0468  -39.3385 H         1 UNK         0.0600 
    164 H164       -1.3678  -17.4517  -41.8543 H         1 UNK         0.3000 
    165 H165       -1.1787  -20.9189  -42.3582 H         1 UNK         0.0600 
    166 H166       -3.6469  -20.9743  -42.0288 H         1 UNK         0.0600 
    167 H167       -2.8184  -20.9854  -40.4821 H         1 UNK         0.0600 
    168 H168       -3.5705  -19.5038  -41.0597 H         1 UNK         0.0600 
    169 H169       -2.8888  -18.7532  -43.2933 H         1 UNK         0.3000 
    170 H170       -0.6991  -17.6243  -45.8037 H         1 UNK         0.0600 
    171 H171       -1.5609  -19.7066  -46.8889 H         1 UNK         0.0600 
    172 H172       -3.1689  -19.3945  -46.2249 H         1 UNK         0.0600 
    173 H173       -2.4570  -18.2944  -47.4029 H         1 UNK         0.0600 
    174 H174       -3.4683  -17.1348  -45.3463 H         1 UNK         0.3000 
    175 H175       -4.1077  -15.1529  -44.6179 H         1 UNK         0.0600 
    176 H176       -3.3687  -15.4322  -41.6441 H         1 UNK         0.0600 
    177 H177       -4.9083  -14.8600  -42.2762 H         1 UNK         0.0600 
    178 H178       -4.4263  -16.5293  -42.5244 H         1 UNK         0.0600 
    179 H179       -1.8305  -13.6916  -43.6288 H         1 UNK         0.3000 
    180 H180       -3.4374  -10.5346  -44.2509 H         1 UNK         0.0600 
    181 H181       -1.6367  -11.6496  -42.0382 H         1 UNK         0.0600 
    182 H182       -3.1721  -10.8279  -41.8206 H         1 UNK         0.0600 
    183 H183       -1.7994   -9.9504  -42.4779 H         1 UNK         0.0600 
    184 H184       -1.7691  -10.6769  -45.6530 H         1 UNK         0.3000 
    185 H185       -0.0080  -11.2283  -46.7831 H         1 UNK         0.0600 
    186 H186        1.4999  -10.1071  -45.1303 H         1 UNK         0.0600 
    187 H187        2.2831  -11.6446  -44.7845 H         1 UNK         0.0600 
    188 H188        2.4247  -10.9191  -46.3851 H         1 UNK         0.0600 
    189 H189        1.7806  -13.4589  -46.3522 H         1 UNK         0.3000 
    190 H190       -0.9929  -22.6096  -44.9226 H         1 UNK         0.3000 
    191 H191       -2.8556  -21.6732  -46.7647 H         1 UNK         0.0600 
    192 H192       -3.3104  -23.2474  -44.1823 H         1 UNK         0.0600 
    193 H193       -4.5495  -22.3310  -45.0326 H         1 UNK         0.0600 
    194 H194       -3.1717  -21.4971  -44.3413 H         1 UNK         0.0600 
    195 H195       -1.9600  -25.0309  -46.2370 H         1 UNK         0.3000 
    196 H196       -4.2110  -26.2120  -47.5815 H         1 UNK         0.0600 
    197 H197       -2.7869  -28.2625  -47.5359 H         1 UNK         0.0600 
    198 H198       -2.8161  -27.4747  -45.9666 H         1 UNK         0.0600 
    199 H199       -1.4045  -27.3086  -47.0116 H         1 UNK         0.0600 
    200 H200       -1.0736  -24.9536  -48.6953 H         1 UNK         0.3000 
    201 H201       -1.4203  -26.0197  -51.4317 H         1 UNK         0.0600 
    202 H202        0.8494  -26.0181  -50.3685 H         1 UNK         0.0600 
    203 H203        0.7706  -24.2620  -50.2254 H         1 UNK         0.0600 
    204 H204        0.8018  -25.0147  -51.8125 H         1 UNK         0.0600 
    205 H205       -1.4524  -22.9297  -49.6304 H         1 UNK         0.3000 
    206 H206       -1.9509  -21.2319  -51.8777 H         1 UNK         0.0600 
    207 H207       -2.2934  -19.5228  -50.1595 H         1 UNK         0.0600 
    208 H208       -0.9615  -20.5461  -49.6465 H         1 UNK         0.0600 
    209 H209       -2.5481  -20.7460  -48.9165 H         1 UNK         0.0600 
    210 H210       -4.0455  -23.3002  -50.0856 H         1 UNK         0.3000 
    211 H211       -6.2059  -23.7406  -49.9908 H         1 UNK         0.0600 
    212 H212       -6.5423  -22.1197  -52.5674 H         1 UNK         0.0600 
    213 H213       -7.6836  -23.2786  -51.9083 H         1 UNK         0.0600 
    214 H214       -6.1180  -23.8293  -52.4865 H         1 UNK         0.0600 
    215 H215       -5.5378  -22.1511  -48.1899 H         1 UNK         0.3000 
    216 H216       -6.0564  -20.6107  -46.6705 H         1 UNK         0.0600 
    217 H217       -8.4366  -20.0945  -46.2809 H         1 UNK         0.0600 
    218 H218       -8.2546  -21.7880  -46.7074 H         1 UNK         0.0600 
    219 H219       -8.8636  -20.6382  -47.8970 H         1 UNK         0.0600 
    220 H220       -4.6247  -19.5750  -48.6217 H         1 UNK         0.3000 
    221 H221       -3.7185  -17.6905  -49.3160 H         1 UNK         0.0600 
    222 H222       -5.8083  -16.0708  -47.7858 H         1 UNK         0.0600 
    223 H223       -4.3924  -16.7956  -47.0348 H         1 UNK         0.0600 
    224 H224       -4.1973  -15.5632  -48.2682 H         1 UNK         0.0600 
    225 H225       -5.9993  -18.9445  -50.8461 H         1 UNK         0.3000 
    226 H226       -6.9585  -16.8038  -52.5858 H         1 UNK         0.0600 
    227 H227       -8.2167  -18.9444  -52.3062 H         1 UNK         0.0600 
    228 H228       -7.7406  -18.7052  -53.9818 H         1 UNK         0.0600 
    229 H229       -6.8553  -19.8418  -52.9737 H         1 UNK         0.0600 
    230 H230       -4.1375  -18.7715  -52.2804 H         1 UNK         0.3000 
    231 H231       -2.1506  -18.9091  -53.2071 H         1 UNK         0.0600 
    232 H232       -2.0828  -16.4108  -53.3592 H         1 UNK         0.0600 
    233 H233       -2.7847  -16.4912  -54.9754 H         1 UNK         0.0600 
    234 H234       -1.1980  -17.1807  -54.6667 H         1 UNK         0.0600 
    235 H235       -4.2256  -20.5152  -53.9763 H         1 UNK         0.3000 
    236 H236       -4.2742  -20.9173  -56.8622 H         1 UNK         0.0600 
    237 H237       -5.8398  -22.7285  -56.2871 H         1 UNK         0.0600 
    238 H238       -5.4305  -22.5957  -54.5827 H         1 UNK         0.0600 
    239 H239       -6.2760  -21.2780  -55.3962 H         1 UNK         0.0600 
    240 H240       -1.7127  -20.9815  -56.4942 H         1 UNK         0.3000 
    241 H241       -0.5507  -23.4382  -55.6396 H         1 UNK         0.0600 
    242 H242       -1.4700  -24.2832  -59.4872 H         1 UNK         0.3800 
    243 H243       -2.1711  -22.9066  -58.6782 H         1 UNK         0.3800 
    244 H244        1.5704  -22.5614  -56.5257 H         1 UNK         0.0800 
    245 H245        0.7366  -21.3653  -57.4781 H         1 UNK         0.0800 
    246 H246        0.9749  -22.7231  -53.8558 H         1 UNK         0.0800 
    247 H247       -0.5227  -21.8632  -53.5849 H         1 UNK         0.0800 
@<TRIPOS>BOND
     1    1    2 1    
     2    1  127 1    
     3    1  128 1    
     4    1  129 1    
     5    2    3 2    
     6    2    4 am   BACKBONE|DICT|INTERRES
     7    4    5 1    
     8    4  130 1    
     9    5    6 1    
    10    5   65 1    
    11    5  131 1    
    12    6    7 1    
    13    6  132 1    
    14    6  133 1    
    15    7    8 1    
    16    8    9 1    
    17    8  134 1    
    18    8  135 1    
    19    9   10 ar   
    20    9   14 ar   
    21   10   11 ar   
    22   10  136 1    
    23   11   12 ar   
    24   11  126 1    
    25   12   13 ar   
    26   12  137 1    
    27   13   14 ar   
    28   13   15 1    
    29   14  138 1    
    30   15   16 1    
    31   15  139 1    
    32   15  140 1    
    33   16   17 1    
    34   17   18 1    
    35   17  141 1    
    36   17  142 1    
    37   18   19 1    
    38   18   67 1    
    39   18  143 1    
    40   19   20 am   BACKBONE|DICT|INTERRES
    41   19  144 1    
    42   20   21 2    
    43   20   22 1    
    44   22   23 1    
    45   22   24 1    
    46   22  145 1    
    47   23  146 1    
    48   23  147 1    
    49   23  148 1    
    50   24   25 am   BACKBONE|DICT|INTERRES
    51   24  149 1    
    52   25   26 2    
    53   25   27 1    
    54   27   28 1    
    55   27   29 1    
    56   27  150 1    
    57   28  151 1    
    58   28  152 1    
    59   28  153 1    
    60   29   30 am   BACKBONE|DICT|INTERRES
    61   29  154 1    
    62   30   31 2    
    63   30   32 1    
    64   32   33 1    
    65   32   34 1    
    66   32  155 1    
    67   33  156 1    
    68   33  157 1    
    69   33  158 1    
    70   34   35 am   BACKBONE|DICT|INTERRES
    71   34  159 1    
    72   35   36 2    
    73   35   37 1    
    74   37   38 1    
    75   37   39 1    
    76   37  160 1    
    77   38  161 1    
    78   38  162 1    
    79   38  163 1    
    80   39   40 am   BACKBONE|DICT|INTERRES
    81   39  164 1    
    82   40   41 2    
    83   40   42 1    
    84   42   43 1    
    85   42   44 1    
    86   42  165 1    
    87   43  166 1    
    88   43  167 1    
    89   43  168 1    
    90   44   45 am   BACKBONE|DICT|INTERRES
    91   44  169 1    
    92   45   46 2    
    93   45   47 1    
    94   47   48 1    
    95   47   49 1    
    96   47  170 1    
    97   48  171 1    
    98   48  172 1    
    99   48  173 1    
   100   49   50 am   BACKBONE|DICT|INTERRES
   101   49  174 1    
   102   50   51 2    
   103   50   52 1    
   104   52   53 1    
   105   52   54 1    
   106   52  175 1    
   107   53  176 1    
   108   53  177 1    
   109   53  178 1    
   110   54   55 am   BACKBONE|DICT|INTERRES
   111   54  179 1    
   112   55   56 2    
   113   55   57 1    
   114   57   58 1    
   115   57   59 1    
   116   57  180 1    
   117   58  181 1    
   118   58  182 1    
   119   58  183 1    
   120   59   60 am   BACKBONE|DICT|INTERRES
   121   59  184 1    
   122   60   61 2    
   123   60   62 1    
   124   62   63 1    
   125   62   64 1    
   126   62  185 1    
   127   63  186 1    
   128   63  187 1    
   129   63  188 1    
   130   64   65 am   BACKBONE|DICT|INTERRES
   131   64  189 1    
   132   65   66 2    
   133   67   68 2    
   134   67   69 am   BACKBONE|DICT|INTERRES
   135   69   70 1    
   136   69  190 1    
   137   70   71 1    
   138   70   72 1    
   139   70  191 1    
   140   71  192 1    
   141   71  193 1    
   142   71  194 1    
   143   72   73 2    
   144   72   74 am   BACKBONE|DICT|INTERRES
   145   74   75 1    
   146   74  195 1    
   147   75   76 1    
   148   75   77 1    
   149   75  196 1    
   150   76  197 1    
   151   76  198 1    
   152   76  199 1    
   153   77   78 2    
   154   77   79 am   BACKBONE|DICT|INTERRES
   155   79   80 1    
   156   79  200 1    
   157   80   81 1    
   158   80   82 1    
   159   80  201 1    
   160   81  202 1    
   161   81  203 1    
   162   81  204 1    
   163   82   83 2    
   164   82   84 am   BACKBONE|DICT|INTERRES
   165   84   85 1    
   166   84  205 1    
   167   85   86 1    
   168   85   87 1    
   169   85  206 1    
   170   86  207 1    
   171   86  208 1    
   172   86  209 1    
   173   87   88 2    
   174   87   89 am   BACKBONE|DICT|INTERRES
   175   89   90 1    
   176   89  210 1    
   177   90   91 1    
   178   90   92 1    
   179   90  211 1    
   180   91  212 1    
   181   91  213 1    
   182   91  214 1    
   183   92   93 2    
   184   92   94 am   BACKBONE|DICT|INTERRES
   185   94   95 1    
   186   94  215 1    
   187   95   96 1    
   188   95   97 1    
   189   95  216 1    
   190   96  217 1    
   191   96  218 1    
   192   96  219 1    
   193   97   98 2    
   194   97   99 am   BACKBONE|DICT|INTERRES
   195   99  100 1    
   196   99  220 1    
   197  100  101 1    
   198  100  102 1    
   199  100  221 1    
   200  101  222 1    
   201  101  223 1    
   202  101  224 1    
   203  102  103 2    
   204  102  104 am   BACKBONE|DICT|INTERRES
   205  104  105 1    
   206  104  225 1    
   207  105  106 1    
   208  105  107 1    
   209  105  226 1    
   210  106  227 1    
   211  106  228 1    
   212  106  229 1    
   213  107  108 2    
   214  107  109 am   BACKBONE|DICT|INTERRES
   215  109  110 1    
   216  109  230 1    
   217  110  111 1    
   218  110  112 1    
   219  110  231 1    
   220  111  232 1    
   221  111  233 1    
   222  111  234 1    
   223  112  113 2    
   224  112  114 am   BACKBONE|DICT|INTERRES
   225  114  115 1    
   226  114  235 1    
   227  115  116 1    
   228  115  117 1    
   229  115  236 1    
   230  116  237 1    
   231  116  238 1    
   232  116  239 1    
   233  117  118 2    
   234  117  119 am   BACKBONE|DICT|INTERRES
   235  119  120 1    
   236  119  240 1    
   237  120  121 1    
   238  120  124 1    
   239  120  241 1    
   240  121  122 am   BACKBONE|DICT|INTERRES
   241  121  123 2    
   242  122  242 1    
   243  122  243 1    
   244  124  125 1    
   245  124  244 1    
   246  124  245 1    
   247  125  126 1    
   248  126  246 1    
   249  126  247 1    
@<TRIPOS>SUBSTRUCTURE
     1 UNK         1 GROUP             0       ****    0 ROOT    
