@<TRIPOS>MOLECULE
3R540
247   249    1
SMALL
USER_CHARGES


@<TRIPOS>ATOM
      1 CA         -5.2709  -12.8365  -49.4136 C.3       0 UNK        -0.1800 
      2 C          -3.8434  -12.7726  -48.8887 C.2       0 UNK         0.5000 
      3 O          -3.1357  -11.8001  -49.1519 O.2       0 UNK        -0.5000 
      4 N          -3.4165  -13.8090  -48.1584 N.am      1 UNK        -0.5000 
      5 CA         -2.0883  -13.9162  -47.5500 C.3       1 UNK         0.1400 
      6 C6         -1.7847  -15.3590  -47.0823 C.3       23 UNK        -0.0398 
      7 S7         -1.8370  -16.5899  -48.4211 S.3       23 UNK        -0.2404 
      8 C8         -0.2626  -16.2443  -49.2641 C.3       23 UNK        -0.0205 
      9 C9          0.1696  -17.4289  -50.1072 C.ar      23 UNK        -0.0193 
     10 C10         0.0207  -17.4263  -51.4960 C.ar      23 UNK        -0.1150 
     11 C11         0.4253  -18.5332  -52.2484 C.ar      23 UNK        -0.0193 
     12 C12         0.9572  -19.6519  -51.5980 C.ar      23 UNK        -0.1150 
     13 C13         1.1167  -19.6673  -50.2085 C.ar      23 UNK        -0.0193 
     14 C14         0.7360  -18.5360  -49.4768 C.ar      23 UNK        -0.1150 
     15 C15         1.7102  -20.9159  -49.5492 C.3       23 UNK        -0.0205 
     16 S16         1.6261  -20.9705  -47.7223 S.3       23 UNK        -0.2404 
     17 C17        -0.1787  -20.9856  -47.4451 C.3       23 UNK        -0.0398 
     18 CA         -0.6255  -22.2797  -46.7392 C.3       11 UNK         0.1400 
     19 N          -0.1425  -22.3576  -45.3596 N.am      11 UNK        -0.5000 
     20 C          -0.2034  -23.4491  -44.5859 C.2       10 UNK         0.5000 
     21 O          -0.7638  -24.4935  -44.9223 O.2       10 UNK        -0.5000 
     22 CA          0.4472  -23.3403  -43.2002 C.3       10 UNK         0.1400 
     23 CB          1.9798  -23.3547  -43.3142 C.3       10 UNK        -0.1800 
     24 N           0.0182  -22.1145  -42.5317 N.am      10 UNK        -0.5000 
     25 C          -1.0744  -22.0197  -41.7623 C.2       9 UNK         0.5000 
     26 O          -1.7887  -22.9780  -41.4662 O.2       9 UNK        -0.5000 
     27 CA         -1.4442  -20.6164  -41.2411 C.3       9 UNK         0.1400 
     28 CB         -0.8237  -20.3758  -39.8565 C.3       9 UNK        -0.1800 
     29 N          -1.0461  -19.5273  -42.1351 N.am      9 UNK        -0.5000 
     30 C          -1.5200  -19.3409  -43.3746 C.2       8 UNK         0.5000 
     31 O          -2.3349  -20.0840  -43.9165 O.2       8 UNK        -0.5000 
     32 CA         -0.9525  -18.1444  -44.1576 C.3       8 UNK         0.1400 
     33 CB         -1.7313  -16.8750  -43.7845 C.3       8 UNK        -0.1800 
     34 N           0.4850  -17.9180  -43.9614 N.am      8 UNK        -0.5000 
     35 C           1.4497  -18.8359  -44.1433 C.2       7 UNK         0.5000 
     36 O           1.2178  -20.0237  -44.3792 O.2       7 UNK        -0.5000 
     37 CA          2.9117  -18.3598  -44.0096 C.3       7 UNK         0.1400 
     38 CB          3.9047  -19.2799  -44.7497 C.3       7 UNK        -0.1800 
     39 N           3.1185  -16.9592  -44.3923 N.am      7 UNK        -0.5000 
     40 C           2.9057  -16.3928  -45.5917 C.2       6 UNK         0.5000 
     41 O           2.4923  -17.0073  -46.5748 O.2       6 UNK        -0.5000 
     42 CA          3.1875  -14.8806  -45.7165 C.3       6 UNK         0.1400 
     43 CB          2.0080  -14.1496  -46.3719 C.3       6 UNK        -0.1800 
     44 N           3.4355  -14.2634  -44.4140 N.am      6 UNK        -0.5000 
     45 C           4.6320  -13.8905  -43.9421 C.2       5 UNK         0.5000 
     46 O           5.6765  -13.9574  -44.5905 O.2       5 UNK        -0.5000 
     47 CA          4.6780  -13.3873  -42.4841 C.3       5 UNK         0.1400 
     48 CB          4.6538  -11.8521  -42.4392 C.3       5 UNK        -0.1800 
     49 N           3.5869  -13.9105  -41.6567 N.am      5 UNK        -0.5000 
     50 C           3.4349  -15.1995  -41.3194 C.2       4 UNK         0.5000 
     51 O           4.2309  -16.0834  -41.6352 O.2       4 UNK        -0.5000 
     52 CA          2.1506  -15.5834  -40.5604 C.3       4 UNK         0.1400 
     53 CB          2.4074  -15.6142  -39.0468 C.3       4 UNK        -0.1800 
     54 N           1.0098  -14.7060  -40.8366 N.am      4 UNK        -0.5000 
     55 C           0.4360  -14.5300  -42.0347 C.2       3 UNK         0.5000 
     56 O           0.8321  -15.0935  -43.0589 O.2       3 UNK        -0.5000 
     57 CA         -0.7916  -13.5916  -42.0939 C.3       3 UNK         0.1400 
     58 CB         -0.8734  -12.6038  -40.9082 C.3       3 UNK        -0.1800 
     59 N          -0.9050  -12.8603  -43.3594 N.am      3 UNK        -0.5000 
     60 C          -0.0050  -12.0328  -43.9068 C.2       2 UNK         0.5000 
     61 O           1.1121  -11.8247  -43.4297 O.2       2 UNK        -0.5000 
     62 CA         -0.4432  -11.3200  -45.2067 C.3       2 UNK         0.1400 
     63 CB          0.6244  -10.3457  -45.7378 C.3       2 UNK        -0.1800 
     64 N          -0.7986  -12.2597  -46.2742 N.am      2 UNK        -0.5000 
     65 C          -1.9480  -12.9410  -46.3633 C.2       1 UNK         0.5000 
     66 O          -2.8548  -12.8572  -45.5309 O.2       1 UNK        -0.5000 
     67 C          -2.1439  -22.4882  -46.8714 C.2       11 UNK         0.5000 
     68 O          -2.5704  -23.0239  -47.8932 O.2       11 UNK        -0.5000 
     69 N          -2.9333  -22.1299  -45.8492 N.am      12 UNK        -0.5000 
     70 CA         -4.3716  -22.4074  -45.7778 C.3       12 UNK         0.1400 
     71 CB         -4.9689  -21.7247  -44.5391 C.3       12 UNK        -0.1800 
     72 C          -4.7175  -23.9101  -45.7810 C.2       12 UNK         0.5000 
     73 O          -5.8075  -24.2702  -46.2250 O.2       12 UNK        -0.5000 
     74 N          -3.7888  -24.7548  -45.3145 N.am      13 UNK        -0.5000 
     75 CA         -3.8964  -26.2095  -45.3765 C.3       13 UNK         0.1400 
     76 CB         -3.3271  -26.8168  -44.0842 C.3       13 UNK        -0.1800 
     77 C          -3.1614  -26.7630  -46.6086 C.2       13 UNK         0.5000 
     78 O          -3.7101  -27.6140  -47.3089 O.2       13 UNK        -0.5000 
     79 N          -1.9298  -26.2871  -46.8414 N.am      14 UNK        -0.5000 
     80 CA         -1.0165  -26.8304  -47.8476 C.3       14 UNK         0.1400 
     81 CB          0.4158  -26.3760  -47.5261 C.3       14 UNK        -0.1800 
     82 C          -1.3798  -26.4745  -49.3010 C.2       14 UNK         0.5000 
     83 O          -1.1806  -27.3098  -50.1842 O.2       14 UNK        -0.5000 
     84 N          -1.8747  -25.2514  -49.5309 N.am      15 UNK        -0.5000 
     85 CA         -2.1402  -24.6998  -50.8645 C.3       15 UNK         0.1400 
     86 CB         -1.1237  -23.5755  -51.1364 C.3       15 UNK        -0.1800 
     87 C          -3.5753  -24.1669  -51.0264 C.2       15 UNK         0.5000 
     88 O          -3.9444  -23.7882  -52.1378 O.2       15 UNK        -0.5000 
     89 N          -4.3403  -24.1223  -49.9255 N.am      16 UNK        -0.5000 
     90 CA         -5.6325  -23.4447  -49.7677 C.3       16 UNK         0.1400 
     91 CB         -6.7231  -24.0741  -50.6581 C.3       16 UNK        -0.1800 
     92 C          -5.5195  -21.9070  -49.8928 C.2       16 UNK         0.5000 
     93 O          -6.4556  -21.2523  -50.3535 O.2       16 UNK        -0.5000 
     94 N          -4.3790  -21.3709  -49.4314 N.am      17 UNK        -0.5000 
     95 CA         -3.9874  -19.9586  -49.3936 C.3       17 UNK         0.1400 
     96 CB         -4.9136  -19.1631  -48.4457 C.3       17 UNK        -0.1800 
     97 C          -3.8331  -19.3227  -50.7943 C.2       17 UNK         0.5000 
     98 O          -3.6178  -20.0339  -51.7778 O.2       17 UNK        -0.5000 
     99 N          -3.8797  -17.9848  -50.8454 N.am      18 UNK        -0.5000 
    100 CA        -3.6757  -17.1717  -52.0420 C.3       18 UNK         0.1400 
    101 CB        -3.6523  -15.6863  -51.6463 C.3       18 UNK        -0.1800 
    102 C         -4.7378  -17.4168  -53.1276 C.2       18 UNK         0.5000 
    103 O         -5.9199  -17.5662  -52.8114 O.2       18 UNK        -0.5000 
    104 N         -4.2813  -17.4137  -54.3876 N.am      19 UNK        -0.5000 
    105 CA        -5.0534  -17.5719  -55.6268 C.3       19 UNK         0.1400 
    106 CB        -6.0727  -16.4248  -55.7921 C.3       19 UNK        -0.1800 
    107 C         -5.6963  -18.9636  -55.8199 C.2       19 UNK         0.5000 
    108 O         -6.5160  -19.1245  -56.7260 O.2       19 UNK        -0.5000 
    109 N         -5.3021  -19.9464  -55.0003 N.am      20 UNK        -0.5000 
    110 CA        -5.6941  -21.3469  -55.1196 C.3       20 UNK         0.1400 
    111 CB        -6.0475  -21.8909  -53.7289 C.3       20 UNK        -0.1800 
    112 C         -4.5647  -22.1063  -55.8366 C.2       20 UNK         0.5000 
    113 O         -4.3396  -21.8468  -57.0208 O.2       20 UNK        -0.5000 
    114 N         -3.8404  -22.9963  -55.1415 N.am      21 UNK        -0.5000 
    115 CA        -2.7210  -23.7741  -55.6911 C.3       21 UNK         0.1400 
    116 CB        -2.5445  -25.0619  -54.8689 C.3       21 UNK        -0.1800 
    117 C         -1.4133  -22.9537  -55.7990 C.2       21 UNK         0.5000 
    118 O         -0.3455  -23.4297  -55.4090 O.2       21 UNK        -0.5000 
    119 N         -1.5260  -21.7322  -56.3287 N.am      22 UNK        -0.5000 
    120 CA        -0.4324  -20.7716  -56.5400 C.3       22 UNK         0.1400 
    121 C          0.1569  -20.8084  -57.9807 C.2       22 UNK         0.5000 
    122 N         -0.3579  -21.6216  -58.8955 N.am      22 UNK        -0.7600 
    123 O          1.1130  -20.0954  -58.2729 O.2       22 UNK        -0.5000 
    124 C124       -0.8683  -19.3361  -56.1464 C.3       23 UNK        -0.0398 
    125 S125       -1.2418  -19.1998  -54.3650 S.3       23 UNK        -0.2404 
    126 C126        0.3298  -18.5100  -53.7658 C.3       23 UNK        -0.0205 
    127 H127       -5.2727  -12.7803  -50.5022 H         1 UNK         0.0600 
    128 H128       -5.8511  -11.9990  -49.0263 H         1 UNK         0.0600 
    129 H129       -5.7698  -13.7608  -49.1209 H         1 UNK         0.0600 
    130 H130       -4.0497  -14.5685  -47.9566 H         1 UNK         0.3000 
    131 H131       -1.3517  -13.6404  -48.3075 H         1 UNK         0.0600 
    132 H132       -0.8078  -15.4219  -46.6012 H         1 UNK         0.0800 
    133 H133       -2.5148  -15.6683  -46.3330 H         1 UNK         0.0800 
    134 H134       -0.3623  -15.3470  -49.8763 H         1 UNK         0.0800 
    135 H135        0.5138  -16.0394  -48.5270 H         1 UNK         0.0800 
    136 H136       -0.3984  -16.5617  -51.9909 H         1 UNK         0.1150 
    137 H137        1.2600  -20.5114  -52.1800 H         1 UNK         0.1150 
    138 H138        0.8631  -18.4992  -48.4048 H         1 UNK         0.1150 
    139 H139        1.2133  -21.8032  -49.9439 H         1 UNK         0.0800 
    140 H140        2.7578  -20.9927  -49.8425 H         1 UNK         0.0800 
    141 H141       -0.6831  -20.8775  -48.4069 H         1 UNK         0.0800 
    142 H142       -0.4529  -20.1086  -46.8566 H         1 UNK         0.0800 
    143 H143       -0.1711  -23.1132  -47.2769 H         1 UNK         0.0600 
    144 H144        0.3477  -21.5358  -45.0128 H         1 UNK         0.3000 
    145 H145        0.1456  -24.2111  -42.6140 H         1 UNK         0.0600 
    146 H146        2.4466  -23.3217  -42.3297 H         1 UNK         0.0600 
    147 H147        2.3245  -24.2643  -43.8075 H         1 UNK         0.0600 
    148 H148        2.3548  -22.5075  -43.8897 H         1 UNK         0.0600 
    149 H149        0.5093  -21.2666  -42.7864 H         1 UNK         0.3000 
    150 H150       -2.5311  -20.5822  -41.1401 H         1 UNK         0.0600 
    151 H151       -1.1209  -21.1558  -39.1542 H         1 UNK         0.0600 
    152 H152       -1.1488  -19.4231  -39.4378 H         1 UNK         0.0600 
    153 H153        0.2662  -20.3706  -39.8994 H         1 UNK         0.0600 
    154 H154       -0.3629  -18.8744  -41.7816 H         1 UNK         0.3000 
    155 H155       -1.1037  -18.3385  -45.2211 H         1 UNK         0.0600 
    156 H156       -2.7853  -16.9727  -44.0474 H         1 UNK         0.0600 
    157 H157       -1.3445  -16.0000  -44.3037 H         1 UNK         0.0600 
    158 H158       -1.6791  -16.6748  -42.7141 H         1 UNK         0.0600 
    159 H159        0.7610  -16.9633  -43.7522 H         1 UNK         0.3000 
    160 H160        3.1451  -18.4173  -42.9458 H         1 UNK         0.0600 
    161 H161        3.6896  -19.3297  -45.8176 H         1 UNK         0.0600 
    162 H162        3.8608  -20.2982  -44.3619 H         1 UNK         0.0600 
    163 H163        4.9305  -18.9322  -44.6288 H         1 UNK         0.0600 
    164 H164        3.4691  -16.3642  -43.6523 H         1 UNK         0.3000 
    165 H165        4.0588  -14.7689  -46.3644 H         1 UNK         0.0600 
    166 H166        1.0956  -14.2817  -45.7910 H         1 UNK         0.0600 
    167 H167        2.2090  -13.0822  -46.4516 H         1 UNK         0.0600 
    168 H168        1.8249  -14.5178  -47.3807 H         1 UNK         0.0600 
    169 H169        2.6264  -14.1855  -43.8077 H         1 UNK         0.3000 
    170 H170        5.6212  -13.7260  -42.0504 H         1 UNK         0.0600 
    171 H171        5.4792  -11.4319  -43.0153 H         1 UNK         0.0600 
    172 H172        3.7283  -11.4515  -42.8538 H         1 UNK         0.0600 
    173 H173        4.7514  -11.4848  -41.4175 H         1 UNK         0.0600 
    174 H174        2.8684  -13.2535  -41.3880 H         1 UNK         0.3000 
    175 H175        1.8754  -16.5907  -40.8799 H         1 UNK         0.0600 
    176 H176        2.6569  -14.6250  -38.6608 H         1 UNK         0.0600 
    177 H177        1.5333  -15.9764  -38.5051 H         1 UNK         0.0600 
    178 H178        3.2366  -16.2802  -38.8041 H         1 UNK         0.0600 
    179 H179        0.6292  -14.2065  -40.0459 H         1 UNK         0.3000 
    180 H180       -1.6670  -14.2397  -42.0435 H         1 UNK         0.0600 
    181 H181        0.0172  -11.9777  -40.8383 H         1 UNK         0.0600 
    182 H182       -0.9932  -13.1251  -39.9579 H         1 UNK         0.0600 
    183 H183       -1.7332  -11.9416  -41.0117 H         1 UNK         0.0600 
    184 H184       -1.7736  -12.9882  -43.8691 H         1 UNK         0.3000 
    185 H185       -1.3267  -10.7278  -44.9591 H         1 UNK         0.0600 
    186 H186        0.8698   -9.5909  -44.9896 H         1 UNK         0.0600 
    187 H187        1.5500  -10.8582  -45.9996 H         1 UNK         0.0600 
    188 H188        0.2708   -9.8176  -46.6235 H         1 UNK         0.0600 
    189 H189       -0.0985  -12.3905  -46.9893 H         1 UNK         0.3000 
    190 H190       -2.5337  -21.6242  -45.0628 H         1 UNK         0.3000 
    191 H191       -4.8402  -21.9706  -46.6608 H         1 UNK         0.0600 
    192 H192       -4.8728  -20.6409  -44.6042 H         1 UNK         0.0600 
    193 H193       -4.4756  -22.0527  -43.6231 H         1 UNK         0.0600 
    194 H194       -6.0322  -21.9470  -44.4399 H         1 UNK         0.0600 
    195 H195       -2.9047  -24.3812  -44.9919 H         1 UNK         0.3000 
    196 H196       -4.9442  -26.5089  -45.4480 H         1 UNK         0.0600 
    197 H197       -3.3999  -27.9050  -44.1000 H         1 UNK         0.0600 
    198 H198       -3.8779  -26.4668  -43.2111 H         1 UNK         0.0600 
    199 H199       -2.2770  -26.5603  -43.9400 H         1 UNK         0.0600 
    200 H200       -1.5357  -25.6115  -46.1915 H         1 UNK         0.3000 
    201 H201       -1.0414  -27.9193  -47.7653 H         1 UNK         0.0600 
    202 H202        0.7108  -26.6810  -46.5218 H         1 UNK         0.0600 
    203 H203        0.5216  -25.2938  -47.5907 H         1 UNK         0.0600 
    204 H204        1.1306  -26.8163  -48.2224 H         1 UNK         0.0600 
    205 H205       -2.0120  -24.6142  -48.7524 H         1 UNK         0.3000 
    206 H206       -2.0124  -25.4696  -51.6270 H         1 UNK         0.0600 
    207 H207       -0.1006  -23.9478  -51.0845 H         1 UNK         0.0600 
    208 H208       -1.2622  -23.1485  -52.1310 H         1 UNK         0.0600 
    209 H209       -1.2225  -22.7622  -50.4163 H         1 UNK         0.0600 
    210 H210       -3.9209  -24.4476  -49.0663 H         1 UNK         0.3000 
    211 H211       -5.9352  -23.6230  -48.7370 H         1 UNK         0.0600 
    212 H212       -6.5214  -23.9304  -51.7171 H         1 UNK         0.0600 
    213 H213       -6.8048  -25.1458  -50.4773 H         1 UNK         0.0600 
    214 H214       -7.6997  -23.6359  -50.4500 H         1 UNK         0.0600 
    215 H215       -3.6800  -22.0185  -49.0815 H         1 UNK         0.3000 
    216 H216       -2.9886  -19.9453  -48.9556 H         1 UNK         0.0600 
    217 H217       -5.0273  -19.6716  -47.4886 H         1 UNK         0.0600 
    218 H218       -5.9084  -19.0284  -48.8718 H         1 UNK         0.0600 
    219 H219       -4.5111  -18.1743  -48.2263 H         1 UNK         0.0600 
    220 H220       -4.0511  -17.4779  -49.9907 H         1 UNK         0.3000 
    221 H221       -2.6978  -17.4332  -52.4473 H         1 UNK         0.0600 
    222 H222       -4.5807  -15.3863  -51.1588 H         1 UNK         0.0600 
    223 H223       -2.8293  -15.4672  -50.9674 H         1 UNK         0.0600 
    224 H224       -3.5215  -15.0491  -52.5218 H         1 UNK         0.0600 
    225 H225       -3.2853  -17.3068  -54.5236 H         1 UNK         0.3000 
    226 H226       -4.3271  -17.4753  -56.4350 H         1 UNK         0.0600 
    227 H227       -5.5962  -15.4522  -55.6692 H         1 UNK         0.0600 
    228 H228       -6.5222  -16.4397  -56.7856 H         1 UNK         0.0600 
    229 H229       -6.8846  -16.4955  -55.0680 H         1 UNK         0.0600 
    230 H230       -4.6186  -19.7343  -54.2858 H         1 UNK         0.3000 
    231 H231       -6.5849  -21.4457  -55.7429 H         1 UNK         0.0600 
    232 H232       -6.2843  -22.9537  -53.7754 H         1 UNK         0.0600 
    233 H233       -6.9210  -21.3819  -53.3213 H         1 UNK         0.0600 
    234 H234       -5.2326  -21.7509  -53.0203 H         1 UNK         0.0600 
    235 H235       -4.0312  -23.1298  -54.1527 H         1 UNK         0.3000 
    236 H236       -2.9828  -24.0790  -56.7064 H         1 UNK         0.0600 
    237 H237       -3.4849  -25.6040  -54.7687 H         1 UNK         0.0600 
    238 H238       -1.8299  -25.7342  -55.3450 H         1 UNK         0.0600 
    239 H239       -2.1710  -24.8455  -53.8698 H         1 UNK         0.0600 
    240 H240       -2.4455  -21.4476  -56.6488 H         1 UNK         0.3000 
    241 H241        0.4011  -21.0438  -55.8898 H         1 UNK         0.0600 
    242 H242       -1.1384  -22.2181  -58.6718 H         1 UNK         0.3800 
    243 H243        0.0378  -21.6403  -59.8226 H         1 UNK         0.3800 
    244 H244       -0.0972  -18.6060  -56.3990 H         1 UNK         0.0800 
    245 H245       -1.7553  -19.0416  -56.7094 H         1 UNK         0.0800 
    246 H246        0.4388  -17.4884  -54.1332 H         1 UNK         0.0800 
    247 H247        1.1595  -19.0780  -54.1899 H         1 UNK         0.0800 
@<TRIPOS>BOND
     1    1    2 1    
     2    1  127 1    
     3    1  128 1    
     4    1  129 1    
     5    2    3 2    
     6    2    4 am   BACKBONE|DICT|INTERRES
     7    4    5 1    
     8    4  130 1    
     9    5    6 1    
    10    5   65 1    
    11    5  131 1    
    12    6    7 1    
    13    6  132 1    
    14    6  133 1    
    15    7    8 1    
    16    8    9 1    
    17    8  134 1    
    18    8  135 1    
    19    9   10 ar   
    20    9   14 ar   
    21   10   11 ar   
    22   10  136 1    
    23   11   12 ar   
    24   11  126 1    
    25   12   13 ar   
    26   12  137 1    
    27   13   14 ar   
    28   13   15 1    
    29   14  138 1    
    30   15   16 1    
    31   15  139 1    
    32   15  140 1    
    33   16   17 1    
    34   17   18 1    
    35   17  141 1    
    36   17  142 1    
    37   18   19 1    
    38   18   67 1    
    39   18  143 1    
    40   19   20 am   BACKBONE|DICT|INTERRES
    41   19  144 1    
    42   20   21 2    
    43   20   22 1    
    44   22   23 1    
    45   22   24 1    
    46   22  145 1    
    47   23  146 1    
    48   23  147 1    
    49   23  148 1    
    50   24   25 am   BACKBONE|DICT|INTERRES
    51   24  149 1    
    52   25   26 2    
    53   25   27 1    
    54   27   28 1    
    55   27   29 1    
    56   27  150 1    
    57   28  151 1    
    58   28  152 1    
    59   28  153 1    
    60   29   30 am   BACKBONE|DICT|INTERRES
    61   29  154 1    
    62   30   31 2    
    63   30   32 1    
    64   32   33 1    
    65   32   34 1    
    66   32  155 1    
    67   33  156 1    
    68   33  157 1    
    69   33  158 1    
    70   34   35 am   BACKBONE|DICT|INTERRES
    71   34  159 1    
    72   35   36 2    
    73   35   37 1    
    74   37   38 1    
    75   37   39 1    
    76   37  160 1    
    77   38  161 1    
    78   38  162 1    
    79   38  163 1    
    80   39   40 am   BACKBONE|DICT|INTERRES
    81   39  164 1    
    82   40   41 2    
    83   40   42 1    
    84   42   43 1    
    85   42   44 1    
    86   42  165 1    
    87   43  166 1    
    88   43  167 1    
    89   43  168 1    
    90   44   45 am   BACKBONE|DICT|INTERRES
    91   44  169 1    
    92   45   46 2    
    93   45   47 1    
    94   47   48 1    
    95   47   49 1    
    96   47  170 1    
    97   48  171 1    
    98   48  172 1    
    99   48  173 1    
   100   49   50 am   BACKBONE|DICT|INTERRES
   101   49  174 1    
   102   50   51 2    
   103   50   52 1    
   104   52   53 1    
   105   52   54 1    
   106   52  175 1    
   107   53  176 1    
   108   53  177 1    
   109   53  178 1    
   110   54   55 am   BACKBONE|DICT|INTERRES
   111   54  179 1    
   112   55   56 2    
   113   55   57 1    
   114   57   58 1    
   115   57   59 1    
   116   57  180 1    
   117   58  181 1    
   118   58  182 1    
   119   58  183 1    
   120   59   60 am   BACKBONE|DICT|INTERRES
   121   59  184 1    
   122   60   61 2    
   123   60   62 1    
   124   62   63 1    
   125   62   64 1    
   126   62  185 1    
   127   63  186 1    
   128   63  187 1    
   129   63  188 1    
   130   64   65 am   BACKBONE|DICT|INTERRES
   131   64  189 1    
   132   65   66 2    
   133   67   68 2    
   134   67   69 am   BACKBONE|DICT|INTERRES
   135   69   70 1    
   136   69  190 1    
   137   70   71 1    
   138   70   72 1    
   139   70  191 1    
   140   71  192 1    
   141   71  193 1    
   142   71  194 1    
   143   72   73 2    
   144   72   74 am   BACKBONE|DICT|INTERRES
   145   74   75 1    
   146   74  195 1    
   147   75   76 1    
   148   75   77 1    
   149   75  196 1    
   150   76  197 1    
   151   76  198 1    
   152   76  199 1    
   153   77   78 2    
   154   77   79 am   BACKBONE|DICT|INTERRES
   155   79   80 1    
   156   79  200 1    
   157   80   81 1    
   158   80   82 1    
   159   80  201 1    
   160   81  202 1    
   161   81  203 1    
   162   81  204 1    
   163   82   83 2    
   164   82   84 am   BACKBONE|DICT|INTERRES
   165   84   85 1    
   166   84  205 1    
   167   85   86 1    
   168   85   87 1    
   169   85  206 1    
   170   86  207 1    
   171   86  208 1    
   172   86  209 1    
   173   87   88 2    
   174   87   89 am   BACKBONE|DICT|INTERRES
   175   89   90 1    
   176   89  210 1    
   177   90   91 1    
   178   90   92 1    
   179   90  211 1    
   180   91  212 1    
   181   91  213 1    
   182   91  214 1    
   183   92   93 2    
   184   92   94 am   BACKBONE|DICT|INTERRES
   185   94   95 1    
   186   94  215 1    
   187   95   96 1    
   188   95   97 1    
   189   95  216 1    
   190   96  217 1    
   191   96  218 1    
   192   96  219 1    
   193   97   98 2    
   194   97   99 am   BACKBONE|DICT|INTERRES
   195   99  100 1    
   196   99  220 1    
   197  100  101 1    
   198  100  102 1    
   199  100  221 1    
   200  101  222 1    
   201  101  223 1    
   202  101  224 1    
   203  102  103 2    
   204  102  104 am   BACKBONE|DICT|INTERRES
   205  104  105 1    
   206  104  225 1    
   207  105  106 1    
   208  105  107 1    
   209  105  226 1    
   210  106  227 1    
   211  106  228 1    
   212  106  229 1    
   213  107  108 2    
   214  107  109 am   BACKBONE|DICT|INTERRES
   215  109  110 1    
   216  109  230 1    
   217  110  111 1    
   218  110  112 1    
   219  110  231 1    
   220  111  232 1    
   221  111  233 1    
   222  111  234 1    
   223  112  113 2    
   224  112  114 am   BACKBONE|DICT|INTERRES
   225  114  115 1    
   226  114  235 1    
   227  115  116 1    
   228  115  117 1    
   229  115  236 1    
   230  116  237 1    
   231  116  238 1    
   232  116  239 1    
   233  117  118 2    
   234  117  119 am   BACKBONE|DICT|INTERRES
   235  119  120 1    
   236  119  240 1    
   237  120  121 1    
   238  120  124 1    
   239  120  241 1    
   240  121  122 am   BACKBONE|DICT|INTERRES
   241  121  123 2    
   242  122  242 1    
   243  122  243 1    
   244  124  125 1    
   245  124  244 1    
   246  124  245 1    
   247  125  126 1    
   248  126  246 1    
   249  126  247 1    
@<TRIPOS>SUBSTRUCTURE
     1 UNK         1 GROUP             0       ****    0 ROOT    
