@<TRIPOS>MOLECULE
3R540
247   249    1
SMALL
USER_CHARGES


@<TRIPOS>ATOM
      1 CA          4.9787  -10.9772  -49.6157 C.3       0 UNK        -0.1800 
      2 C           5.2729  -12.4165  -49.2177 C.2       0 UNK         0.5000 
      3 O           6.3248  -12.6900  -48.6395 O.2       0 UNK        -0.5000 
      4 N           4.3494  -13.3353  -49.5269 N.am      1 UNK        -0.5000 
      5 CA          4.4235  -14.7632  -49.1885 C.3       1 UNK         0.1400 
      6 C6          3.3982  -15.5994  -49.9974 C.3       23 UNK        -0.0398 
      7 S7          1.6754  -14.9914  -49.8730 S.3       23 UNK        -0.2404 
      8 C8          0.8624  -16.3395  -48.9637 C.3       23 UNK        -0.0205 
      9 C9          0.5324  -17.5140  -49.8727 C.ar      23 UNK        -0.0193 
     10 C10        -0.6047  -17.4591  -50.6818 C.ar      23 UNK        -0.1150 
     11 C11        -0.9298  -18.5204  -51.5291 C.ar      23 UNK        -0.0193 
     12 C12        -0.0992  -19.6424  -51.5683 C.ar      23 UNK        -0.1150 
     13 C13         1.0263  -19.7266  -50.7440 C.ar      23 UNK        -0.0193 
     14 C14         1.3383  -18.6570  -49.8970 C.ar      23 UNK        -0.1150 
     15 C15         1.9018  -20.9741  -50.7721 C.3       23 UNK        -0.0205 
     16 S16         1.0525  -22.4431  -50.0998 S.3       23 UNK        -0.2404 
     17 C17         0.6587  -21.8745  -48.4159 C.3       23 UNK        -0.0398 
     18 CA          0.3227  -23.0153  -47.4254 C.3       11 UNK         0.1400 
     19 N           0.4979  -22.5437  -46.0548 N.am      11 UNK        -0.5000 
     20 C           0.6188  -23.2988  -44.9581 C.2       10 UNK         0.5000 
     21 O           0.5504  -24.5270  -44.9762 O.2       10 UNK        -0.5000 
     22 CA          0.7961  -22.5463  -43.6191 C.3       10 UNK         0.1400 
     23 CB          1.7573  -23.2709  -42.6559 C.3       10 UNK        -0.1800 
     24 N           1.1662  -21.1340  -43.7961 N.am      10 UNK        -0.5000 
     25 C           2.2955  -20.6400  -44.3315 C.2       9 UNK         0.5000 
     26 O           3.2759  -21.3259  -44.6204 O.2       9 UNK        -0.5000 
     27 CA          2.3091  -19.1375  -44.6785 C.3       9 UNK         0.1400 
     28 CB          2.2504  -18.9593  -46.2059 C.3       9 UNK        -0.1800 
     29 N           1.1958  -18.3975  -44.0809 N.am      9 UNK        -0.5000 
     30 C           1.1477  -17.9848  -42.8069 C.2       8 UNK         0.5000 
     31 O           2.0800  -18.1037  -42.0122 O.2       8 UNK        -0.5000 
     32 CA         -0.1844  -17.3717  -42.3333 C.3       8 UNK         0.1400 
     33 CB         -0.1796  -15.8435  -42.5001 C.3       8 UNK        -0.1800 
     34 N          -1.3432  -17.9377  -43.0306 N.am      8 UNK        -0.5000 
     35 C          -1.7846  -19.1949  -42.8693 C.2       7 UNK         0.5000 
     36 O          -1.2635  -20.0085  -42.1079 O.2       7 UNK        -0.5000 
     37 CA         -2.9699  -19.6388  -43.7445 C.3       7 UNK         0.1400 
     38 CB         -4.3050  -19.3056  -43.0637 C.3       7 UNK        -0.1800 
     39 N          -2.9411  -19.0295  -45.0732 N.am      7 UNK        -0.5000 
     40 C          -2.0404  -19.3109  -46.0242 C.2       6 UNK         0.5000 
     41 O          -1.1860  -20.1916  -45.9142 O.2       6 UNK        -0.5000 
     42 CA         -2.0933  -18.4576  -47.3031 C.3       6 UNK         0.1400 
     43 CB         -2.8812  -19.1861  -48.3953 C.3       6 UNK        -0.1800 
     44 N          -2.6957  -17.1428  -47.0825 N.am      6 UNK        -0.5000 
     45 C          -2.1193  -16.1498  -46.3991 C.2       5 UNK         0.5000 
     46 O          -0.9899  -16.2183  -45.9095 O.2       5 UNK        -0.5000 
     47 CA         -2.9696  -14.8972  -46.1781 C.3       5 UNK         0.1400 
     48 CB         -3.6761  -14.9591  -44.8125 C.3       5 UNK        -0.1800 
     49 N          -2.1093  -13.7232  -46.2448 N.am      5 UNK        -0.5000 
     50 C          -2.5228  -12.4925  -46.5675 C.2       4 UNK         0.5000 
     51 O          -3.6964  -12.2213  -46.8277 O.2       4 UNK        -0.5000 
     52 CA         -1.4480  -11.3846  -46.6256 C.3       4 UNK         0.1400 
     53 CB         -2.0440   -9.9678  -46.4884 C.3       4 UNK        -0.1800 
     54 N          -0.3410  -11.5642  -45.6793 N.am      4 UNK        -0.5000 
     55 C          -0.3952  -11.6286  -44.3418 C.2       3 UNK         0.5000 
     56 O          -1.4460  -11.6120  -43.6987 O.2       3 UNK        -0.5000 
     57 CA          0.9647  -11.7217  -43.6081 C.3       3 UNK         0.1400 
     58 CB          0.8044  -11.8628  -42.0831 C.3       3 UNK        -0.1800 
     59 N           1.8171  -12.8153  -44.0862 N.am      3 UNK        -0.5000 
     60 C           2.4731  -12.8641  -45.2527 C.2       2 UNK         0.5000 
     61 O           2.4194  -11.9646  -46.0977 O.2       2 UNK        -0.5000 
     62 CA          3.3082  -14.1252  -45.5387 C.3       2 UNK         0.1400 
     63 CB          2.6300  -15.4154  -45.0324 C.3       2 UNK        -0.1800 
     64 N           3.5456  -14.1710  -46.9775 N.am      2 UNK        -0.5000 
     65 C           4.3078  -15.0253  -47.6693 C.2       1 UNK         0.5000 
     66 O           4.9207  -15.9684  -47.1680 O.2       1 UNK        -0.5000 
     67 C          -1.1004  -23.5756  -47.6241 C.2       11 UNK         0.5000 
     68 O          -1.2757  -24.6033  -48.2825 O.2       11 UNK        -0.5000 
     69 N          -2.0909  -22.9128  -47.0067 N.am      12 UNK        -0.5000 
     70 CA         -3.4792  -23.3748  -46.9560 C.3       12 UNK         0.1400 
     71 CB         -4.4037  -22.2146  -46.5640 C.3       12 UNK        -0.1800 
     72 C          -3.6650  -24.5633  -45.9967 C.2       12 UNK         0.5000 
     73 O          -4.4817  -25.4388  -46.2777 O.2       12 UNK        -0.5000 
     74 N          -2.8817  -24.5991  -44.9078 N.am      13 UNK        -0.5000 
     75 CA         -2.8625  -25.6975  -43.9358 C.3       13 UNK         0.1400 
     76 CB         -2.0945  -25.2638  -42.6777 C.3       13 UNK        -0.1800 
     77 C          -2.2697  -26.9890  -44.5309 C.2       13 UNK         0.5000 
     78 O          -2.7790  -28.0768  -44.2613 O.2       13 UNK        -0.5000 
     79 N          -1.2402  -26.8354  -45.3751 N.am      14 UNK        -0.5000 
     80 CA         -0.6503  -27.8974  -46.1927 C.3       14 UNK         0.1400 
     81 CB          0.7196  -27.4170  -46.6989 C.3       14 UNK        -0.1800 
     82 C          -1.5372  -28.3204  -47.3840 C.2       14 UNK         0.5000 
     83 O          -1.2515  -29.3428  -48.0081 O.2       14 UNK        -0.5000 
     84 N          -2.5707  -27.5198  -47.6904 N.am      15 UNK        -0.5000 
     85 CA         -3.5039  -27.6368  -48.8172 C.3       15 UNK         0.1400 
     86 CB         -4.3508  -28.9212  -48.7045 C.3       15 UNK        -0.1800 
     87 C          -2.8175  -27.4823  -50.1915 C.2       15 UNK         0.5000 
     88 O          -3.3023  -28.0183  -51.1895 O.2       15 UNK        -0.5000 
     89 N          -1.7020  -26.7434  -50.2179 N.am      16 UNK        -0.5000 
     90 CA         -0.8927  -26.4862  -51.4066 C.3       16 UNK         0.1400 
     91 CB          0.5819  -26.4158  -50.9787 C.3       16 UNK        -0.1800 
     92 C          -1.3019  -25.1843  -52.1169 C.2       16 UNK         0.5000 
     93 O          -1.0292  -25.0381  -53.3087 O.2       16 UNK        -0.5000 
     94 N          -1.9166  -24.2572  -51.3693 N.am      17 UNK        -0.5000 
     95 CA         -2.2199  -22.8964  -51.8060 C.3       17 UNK         0.1400 
     96 CB         -2.6950  -22.0818  -50.5962 C.3       17 UNK        -0.1800 
     97 C          -3.2471  -22.8033  -52.9437 C.2       17 UNK         0.5000 
     98 O          -3.0060  -22.0952  -53.9211 O.2       17 UNK        -0.5000 
     99 N          -4.3861  -23.4896  -52.7644 N.am      18 UNK        -0.5000 
    100 CA        -5.5712  -23.4844  -53.6362 C.3       18 UNK         0.1400 
    101 CB        -5.2467  -24.1261  -55.0014 C.3       18 UNK        -0.1800 
    102 C         -6.2569  -22.1020  -53.7811 C.2       18 UNK         0.5000 
    103 O         -7.0614  -21.9129  -54.6951 O.2       18 UNK        -0.5000 
    104 N         -5.9537  -21.1704  -52.8698 N.am      19 UNK        -0.5000 
    105 CA        -6.4827  -19.8138  -52.7883 C.3       19 UNK         0.1400 
    106 CB        -5.8396  -18.9191  -53.8631 C.3       19 UNK        -0.1800 
    107 C         -6.1917  -19.2801  -51.3788 C.2       19 UNK         0.5000 
    108 O         -5.2644  -19.7633  -50.7252 O.2       19 UNK        -0.5000 
    109 N         -6.9903  -18.3048  -50.9296 N.am      20 UNK        -0.5000 
    110 CA        -6.9386  -17.7715  -49.5660 C.3       20 UNK         0.1400 
    111 CB        -8.2555  -17.0410  -49.2621 C.3       20 UNK        -0.1800 
    112 C         -5.7424  -16.8407  -49.2985 C.2       20 UNK         0.5000 
    113 O         -5.2637  -16.7951  -48.1641 O.2       20 UNK        -0.5000 
    114 N         -5.2929  -16.1034  -50.3228 N.am      21 UNK        -0.5000 
    115 CA        -4.2442  -15.0869  -50.1878 C.3       21 UNK         0.1400 
    116 CB        -4.8710  -13.7586  -49.7264 C.3       21 UNK        -0.1800 
    117 C         -3.3942  -14.8832  -51.4531 C.2       21 UNK         0.5000 
    118 O         -2.3575  -14.2274  -51.3557 O.2       21 UNK        -0.5000 
    119 N         -3.8138  -15.4370  -52.6026 N.am      22 UNK        -0.5000 
    120 CA        -3.1038  -15.3535  -53.8980 C.3       22 UNK         0.1400 
    121 C         -3.0107  -13.9147  -54.5037 C.2       22 UNK         0.5000 
    122 N         -3.8179  -12.9572  -54.0627 N.am      22 UNK        -0.7600 
    123 O         -2.2293  -13.6644  -55.4175 O.2       22 UNK        -0.5000 
    124 C124       -1.7354  -16.1059  -53.8818 C.3       23 UNK        -0.0398 
    125 S125       -1.9276  -17.9109  -54.0635 S.3       23 UNK        -0.2404 
    126 C126       -2.2033  -18.4828  -52.3599 C.3       23 UNK        -0.0205 
    127 H127        4.0253  -10.8875  -50.1370 H         1 UNK         0.0600 
    128 H128        4.9418  -10.3440  -48.7292 H         1 UNK         0.0600 
    129 H129        5.7625  -10.6011  -50.2732 H         1 UNK         0.0600 
    130 H130        3.5048  -13.0520  -50.0042 H         1 UNK         0.3000 
    131 H131        5.4175  -15.1085  -49.4814 H         1 UNK         0.0600 
    132 H132        3.6727  -15.5752  -51.0526 H         1 UNK         0.0800 
    133 H133        3.4522  -16.6509  -49.7126 H         1 UNK         0.0800 
    134 H134       -0.0593  -15.9513  -48.5306 H         1 UNK         0.0800 
    135 H135        1.4833  -16.6488  -48.1243 H         1 UNK         0.0800 
    136 H136       -1.2383  -16.5866  -50.6436 H         1 UNK         0.1150 
    137 H137       -0.3389  -20.4599  -52.2307 H         1 UNK         0.1150 
    138 H138        2.2091  -18.7130  -49.2596 H         1 UNK         0.1150 
    139 H139        2.1966  -21.1790  -51.8020 H         1 UNK         0.0800 
    140 H140        2.8267  -20.8108  -50.2169 H         1 UNK         0.0800 
    141 H141        1.5406  -21.3403  -48.0595 H         1 UNK         0.0800 
    142 H142       -0.1391  -21.1312  -48.4572 H         1 UNK         0.0800 
    143 H143        1.0276  -23.8344  -47.5839 H         1 UNK         0.0600 
    144 H144        0.4445  -21.5416  -45.9227 H         1 UNK         0.3000 
    145 H145       -0.1887  -22.5368  -43.1502 H         1 UNK         0.0600 
    146 H146        1.8719  -22.7177  -41.7238 H         1 UNK         0.0600 
    147 H147        1.3798  -24.2615  -42.4000 H         1 UNK         0.0600 
    148 H148        2.7473  -23.4060  -43.0917 H         1 UNK         0.0600 
    149 H149        0.4352  -20.4737  -43.5666 H         1 UNK         0.3000 
    150 H150        3.2529  -18.7233  -44.3177 H         1 UNK         0.0600 
    151 H151        3.0395  -19.5261  -46.7018 H         1 UNK         0.0600 
    152 H152        2.3880  -17.9183  -46.4866 H         1 UNK         0.0600 
    153 H153        1.2976  -19.2911  -46.6181 H         1 UNK         0.0600 
    154 H154        0.3925  -18.2296  -44.6698 H         1 UNK         0.3000 
    155 H155       -0.2879  -17.5941  -41.2691 H         1 UNK         0.0600 
    156 H156       -1.0946  -15.4005  -42.1068 H         1 UNK         0.0600 
    157 H157       -0.0880  -15.5471  -43.5446 H         1 UNK         0.0600 
    158 H158        0.6544  -15.3967  -41.9577 H         1 UNK         0.0600 
    159 H159       -1.7974  -17.3430  -43.7074 H         1 UNK         0.3000 
    160 H160       -2.9048  -20.7225  -43.8591 H         1 UNK         0.0600 
    161 H161       -4.4370  -18.2303  -42.9371 H         1 UNK         0.0600 
    162 H162       -4.3639  -19.7629  -42.0751 H         1 UNK         0.0600 
    163 H163       -5.1473  -19.6815  -43.6449 H         1 UNK         0.0600 
    164 H164       -3.6282  -18.3155  -45.2634 H         1 UNK         0.3000 
    165 H165       -1.0666  -18.3222  -47.6465 H         1 UNK         0.0600 
    166 H166       -3.9306  -19.3052  -48.1258 H         1 UNK         0.0600 
    167 H167       -2.8490  -18.6437  -49.3388 H         1 UNK         0.0600 
    168 H168       -2.4691  -20.1773  -48.5718 H         1 UNK         0.0600 
    169 H169       -3.6405  -17.0142  -47.4449 H         1 UNK         0.3000 
    170 H170       -3.7195  -14.8412  -46.9694 H         1 UNK         0.0600 
    171 H171       -4.3113  -15.8426  -44.7380 H         1 UNK         0.0600 
    172 H172       -2.9594  -14.9940  -43.9909 H         1 UNK         0.0600 
    173 H173       -4.3146  -14.0891  -44.6590 H         1 UNK         0.0600 
    174 H174       -1.1306  -13.8960  -46.0566 H         1 UNK         0.3000 
    175 H175       -1.0052  -11.4563  -47.6200 H         1 UNK         0.0600 
    176 H176       -1.2687   -9.2051  -46.5604 H         1 UNK         0.0600 
    177 H177       -2.7674   -9.7667  -47.2793 H         1 UNK         0.0600 
    178 H178       -2.5564   -9.8366  -45.5348 H         1 UNK         0.0600 
    179 H179        0.5885  -11.6084  -46.0907 H         1 UNK         0.3000 
    180 H180        1.4855  -10.7806  -43.7967 H         1 UNK         0.0600 
    181 H181        1.7729  -11.8689  -41.5826 H         1 UNK         0.0600 
    182 H182        0.2349  -11.0295  -41.6695 H         1 UNK         0.0600 
    183 H183        0.2822  -12.7824  -41.8167 H         1 UNK         0.0600 
    184 H184        1.8984  -13.6056  -43.4645 H         1 UNK         0.3000 
    185 H185        4.2688  -14.0026  -45.0358 H         1 UNK         0.0600 
    186 H186        1.6845  -15.6027  -45.5425 H         1 UNK         0.0600 
    187 H187        3.2739  -16.2796  -45.1811 H         1 UNK         0.0600 
    188 H188        2.4339  -15.3770  -43.9616 H         1 UNK         0.0600 
    189 H189        3.1211  -13.3955  -47.4723 H         1 UNK         0.3000 
    190 H190       -1.8615  -22.0660  -46.4993 H         1 UNK         0.3000 
    191 H191       -3.7688  -23.7123  -47.9534 H         1 UNK         0.0600 
    192 H192       -5.4407  -22.5466  -46.4992 H         1 UNK         0.0600 
    193 H193       -4.3704  -21.4205  -47.3071 H         1 UNK         0.0600 
    194 H194       -4.1359  -21.7898  -45.5974 H         1 UNK         0.0600 
    195 H195       -2.2246  -23.8496  -44.7621 H         1 UNK         0.3000 
    196 H196       -3.8940  -25.9081  -43.6452 H         1 UNK         0.0600 
    197 H197       -2.1364  -26.0404  -41.9130 H         1 UNK         0.0600 
    198 H198       -2.5213  -24.3591  -42.2446 H         1 UNK         0.0600 
    199 H199       -1.0426  -25.0735  -42.8877 H         1 UNK         0.0600 
    200 H200       -0.8175  -25.9171  -45.4639 H         1 UNK         0.3000 
    201 H201       -0.4983  -28.7773  -45.5644 H         1 UNK         0.0600 
    202 H202        1.3805  -27.1655  -45.8691 H         1 UNK         0.0600 
    203 H203        0.6265  -26.5332  -47.3314 H         1 UNK         0.0600 
    204 H204        1.2160  -28.1905  -47.2863 H         1 UNK         0.0600 
    205 H205       -2.7164  -26.7123  -47.1007 H         1 UNK         0.3000 
    206 H206       -4.1851  -26.7894  -48.7302 H         1 UNK         0.0600 
    207 H207       -4.8206  -28.9973  -47.7238 H         1 UNK         0.0600 
    208 H208       -5.1497  -28.9293  -49.4467 H         1 UNK         0.0600 
    209 H209       -3.7517  -29.8185  -48.8610 H         1 UNK         0.0600 
    210 H210       -1.4067  -26.2830  -49.3627 H         1 UNK         0.3000 
    211 H211       -1.0035  -27.3072  -52.1181 H         1 UNK         0.0600 
    212 H212        0.7539  -25.6138  -50.2593 H         1 UNK         0.0600 
    213 H213        1.2311  -26.2335  -51.8360 H         1 UNK         0.0600 
    214 H214        0.9031  -27.3508  -50.5192 H         1 UNK         0.0600 
    215 H215       -2.0494  -24.4602  -50.3878 H         1 UNK         0.3000 
    216 H216       -1.2896  -22.4614  -52.1720 H         1 UNK         0.0600 
    217 H217       -2.9593  -21.0654  -50.8796 H         1 UNK         0.0600 
    218 H218       -1.9074  -22.0052  -49.8530 H         1 UNK         0.0600 
    219 H219       -3.5695  -22.5241  -50.1188 H         1 UNK         0.0600 
    220 H220       -4.4689  -24.0438  -51.9240 H         1 UNK         0.3000 
    221 H221       -6.3042  -24.1246  -53.1435 H         1 UNK         0.0600 
    222 H222       -4.5762  -23.5027  -55.5933 H         1 UNK         0.0600 
    223 H223       -4.7754  -25.1011  -54.8766 H         1 UNK         0.0600 
    224 H224       -6.1527  -24.2786  -55.5890 H         1 UNK         0.0600 
    225 H225       -5.3108  -21.3972  -52.1216 H         1 UNK         0.3000 
    226 H226       -7.5645  -19.8453  -52.9326 H         1 UNK         0.0600 
    227 H227       -6.1888  -17.8893  -53.7828 H         1 UNK         0.0600 
    228 H228       -4.7539  -18.9091  -53.7750 H         1 UNK         0.0600 
    229 H229       -6.0863  -19.2648  -54.8669 H         1 UNK         0.0600 
    230 H230       -7.7327  -17.9612  -51.5220 H         1 UNK         0.3000 
    231 H231       -6.8545  -18.6120  -48.8732 H         1 UNK         0.0600 
    232 H232       -8.2605  -16.6520  -48.2429 H         1 UNK         0.0600 
    233 H233       -9.1096  -17.7120  -49.3555 H         1 UNK         0.0600 
    234 H234       -8.4143  -16.1978  -49.9355 H         1 UNK         0.0600 
    235 H235       -5.7631  -16.1808  -51.2109 H         1 UNK         0.3000 
    236 H236       -3.5349  -15.4116  -49.4239 H         1 UNK         0.0600 
    237 H237       -5.6150  -13.3984  -50.4374 H         1 UNK         0.0600 
    238 H238       -5.3585  -13.8656  -48.7572 H         1 UNK         0.0600 
    239 H239       -4.1141  -12.9806  -49.6179 H         1 UNK         0.0600 
    240 H240       -4.6785  -15.9514  -52.6205 H         1 UNK         0.3000 
    241 H241       -3.7476  -15.8724  -54.6092 H         1 UNK         0.0600 
    242 H242       -3.7611  -12.0364  -54.4689 H         1 UNK         0.3800 
    243 H243       -4.4784  -13.1394  -53.3251 H         1 UNK         0.3800 
    244 H244       -1.1085  -15.8023  -54.7208 H         1 UNK         0.0800 
    245 H245       -1.1498  -15.8735  -52.9933 H         1 UNK         0.0800 
    246 H246       -2.9645  -17.8781  -51.8689 H         1 UNK         0.0800 
    247 H247       -2.6242  -19.4856  -52.4209 H         1 UNK         0.0800 
@<TRIPOS>BOND
     1    1    2 1    
     2    1  127 1    
     3    1  128 1    
     4    1  129 1    
     5    2    3 2    
     6    2    4 am   BACKBONE|DICT|INTERRES
     7    4    5 1    
     8    4  130 1    
     9    5    6 1    
    10    5   65 1    
    11    5  131 1    
    12    6    7 1    
    13    6  132 1    
    14    6  133 1    
    15    7    8 1    
    16    8    9 1    
    17    8  134 1    
    18    8  135 1    
    19    9   10 ar   
    20    9   14 ar   
    21   10   11 ar   
    22   10  136 1    
    23   11   12 ar   
    24   11  126 1    
    25   12   13 ar   
    26   12  137 1    
    27   13   14 ar   
    28   13   15 1    
    29   14  138 1    
    30   15   16 1    
    31   15  139 1    
    32   15  140 1    
    33   16   17 1    
    34   17   18 1    
    35   17  141 1    
    36   17  142 1    
    37   18   19 1    
    38   18   67 1    
    39   18  143 1    
    40   19   20 am   BACKBONE|DICT|INTERRES
    41   19  144 1    
    42   20   21 2    
    43   20   22 1    
    44   22   23 1    
    45   22   24 1    
    46   22  145 1    
    47   23  146 1    
    48   23  147 1    
    49   23  148 1    
    50   24   25 am   BACKBONE|DICT|INTERRES
    51   24  149 1    
    52   25   26 2    
    53   25   27 1    
    54   27   28 1    
    55   27   29 1    
    56   27  150 1    
    57   28  151 1    
    58   28  152 1    
    59   28  153 1    
    60   29   30 am   BACKBONE|DICT|INTERRES
    61   29  154 1    
    62   30   31 2    
    63   30   32 1    
    64   32   33 1    
    65   32   34 1    
    66   32  155 1    
    67   33  156 1    
    68   33  157 1    
    69   33  158 1    
    70   34   35 am   BACKBONE|DICT|INTERRES
    71   34  159 1    
    72   35   36 2    
    73   35   37 1    
    74   37   38 1    
    75   37   39 1    
    76   37  160 1    
    77   38  161 1    
    78   38  162 1    
    79   38  163 1    
    80   39   40 am   BACKBONE|DICT|INTERRES
    81   39  164 1    
    82   40   41 2    
    83   40   42 1    
    84   42   43 1    
    85   42   44 1    
    86   42  165 1    
    87   43  166 1    
    88   43  167 1    
    89   43  168 1    
    90   44   45 am   BACKBONE|DICT|INTERRES
    91   44  169 1    
    92   45   46 2    
    93   45   47 1    
    94   47   48 1    
    95   47   49 1    
    96   47  170 1    
    97   48  171 1    
    98   48  172 1    
    99   48  173 1    
   100   49   50 am   BACKBONE|DICT|INTERRES
   101   49  174 1    
   102   50   51 2    
   103   50   52 1    
   104   52   53 1    
   105   52   54 1    
   106   52  175 1    
   107   53  176 1    
   108   53  177 1    
   109   53  178 1    
   110   54   55 am   BACKBONE|DICT|INTERRES
   111   54  179 1    
   112   55   56 2    
   113   55   57 1    
   114   57   58 1    
   115   57   59 1    
   116   57  180 1    
   117   58  181 1    
   118   58  182 1    
   119   58  183 1    
   120   59   60 am   BACKBONE|DICT|INTERRES
   121   59  184 1    
   122   60   61 2    
   123   60   62 1    
   124   62   63 1    
   125   62   64 1    
   126   62  185 1    
   127   63  186 1    
   128   63  187 1    
   129   63  188 1    
   130   64   65 am   BACKBONE|DICT|INTERRES
   131   64  189 1    
   132   65   66 2    
   133   67   68 2    
   134   67   69 am   BACKBONE|DICT|INTERRES
   135   69   70 1    
   136   69  190 1    
   137   70   71 1    
   138   70   72 1    
   139   70  191 1    
   140   71  192 1    
   141   71  193 1    
   142   71  194 1    
   143   72   73 2    
   144   72   74 am   BACKBONE|DICT|INTERRES
   145   74   75 1    
   146   74  195 1    
   147   75   76 1    
   148   75   77 1    
   149   75  196 1    
   150   76  197 1    
   151   76  198 1    
   152   76  199 1    
   153   77   78 2    
   154   77   79 am   BACKBONE|DICT|INTERRES
   155   79   80 1    
   156   79  200 1    
   157   80   81 1    
   158   80   82 1    
   159   80  201 1    
   160   81  202 1    
   161   81  203 1    
   162   81  204 1    
   163   82   83 2    
   164   82   84 am   BACKBONE|DICT|INTERRES
   165   84   85 1    
   166   84  205 1    
   167   85   86 1    
   168   85   87 1    
   169   85  206 1    
   170   86  207 1    
   171   86  208 1    
   172   86  209 1    
   173   87   88 2    
   174   87   89 am   BACKBONE|DICT|INTERRES
   175   89   90 1    
   176   89  210 1    
   177   90   91 1    
   178   90   92 1    
   179   90  211 1    
   180   91  212 1    
   181   91  213 1    
   182   91  214 1    
   183   92   93 2    
   184   92   94 am   BACKBONE|DICT|INTERRES
   185   94   95 1    
   186   94  215 1    
   187   95   96 1    
   188   95   97 1    
   189   95  216 1    
   190   96  217 1    
   191   96  218 1    
   192   96  219 1    
   193   97   98 2    
   194   97   99 am   BACKBONE|DICT|INTERRES
   195   99  100 1    
   196   99  220 1    
   197  100  101 1    
   198  100  102 1    
   199  100  221 1    
   200  101  222 1    
   201  101  223 1    
   202  101  224 1    
   203  102  103 2    
   204  102  104 am   BACKBONE|DICT|INTERRES
   205  104  105 1    
   206  104  225 1    
   207  105  106 1    
   208  105  107 1    
   209  105  226 1    
   210  106  227 1    
   211  106  228 1    
   212  106  229 1    
   213  107  108 2    
   214  107  109 am   BACKBONE|DICT|INTERRES
   215  109  110 1    
   216  109  230 1    
   217  110  111 1    
   218  110  112 1    
   219  110  231 1    
   220  111  232 1    
   221  111  233 1    
   222  111  234 1    
   223  112  113 2    
   224  112  114 am   BACKBONE|DICT|INTERRES
   225  114  115 1    
   226  114  235 1    
   227  115  116 1    
   228  115  117 1    
   229  115  236 1    
   230  116  237 1    
   231  116  238 1    
   232  116  239 1    
   233  117  118 2    
   234  117  119 am   BACKBONE|DICT|INTERRES
   235  119  120 1    
   236  119  240 1    
   237  120  121 1    
   238  120  124 1    
   239  120  241 1    
   240  121  122 am   BACKBONE|DICT|INTERRES
   241  121  123 2    
   242  122  242 1    
   243  122  243 1    
   244  124  125 1    
   245  124  244 1    
   246  124  245 1    
   247  125  126 1    
   248  126  246 1    
   249  126  247 1    
@<TRIPOS>SUBSTRUCTURE
     1 UNK         1 GROUP             0       ****    0 ROOT    
