@<TRIPOS>MOLECULE
3R540
247   249    1
SMALL
USER_CHARGES


@<TRIPOS>ATOM
      1 CA          1.3381  -12.6794  -46.9173 C.3       0 UNK        -0.1800 
      2 C           0.1584  -13.1135  -46.0616 C.2       0 UNK         0.5000 
      3 O           0.1305  -12.8227  -44.8657 O.2       0 UNK        -0.5000 
      4 N          -0.8201  -13.8047  -46.6632 N.am      1 UNK        -0.5000 
      5 CA         -2.0316  -14.2935  -45.9887 C.3       1 UNK         0.1400 
      6 C6         -2.8571  -15.2614  -46.8707 C.3       23 UNK        -0.0398 
      7 S7         -1.9810  -16.8255  -47.2095 S.3       23 UNK        -0.2404 
      8 C8         -1.8097  -16.7754  -49.0184 C.3       23 UNK        -0.0205 
      9 C9         -1.3039  -18.1019  -49.5673 C.ar      23 UNK        -0.0193 
     10 C10        -2.2118  -19.1048  -49.9212 C.ar      23 UNK        -0.1150 
     11 C11        -1.7629  -20.3128  -50.4639 C.ar      23 UNK        -0.0193 
     12 C12        -0.3933  -20.5132  -50.6449 C.ar      23 UNK        -0.1150 
     13 C13         0.5276  -19.5245  -50.2905 C.ar      23 UNK        -0.0193 
     14 C14         0.0656  -18.3203  -49.7479 C.ar      23 UNK        -0.1150 
     15 C15         2.0163  -19.7399  -50.5385 C.3       23 UNK        -0.0205 
     16 S16         2.6510  -21.2917  -49.8207 S.3       23 UNK        -0.2404 
     17 C17         2.4326  -20.9663  -48.0423 C.3       23 UNK        -0.0398 
     18 CA          1.8517  -22.1647  -47.2548 C.3       11 UNK         0.1400 
     19 N           2.0647  -21.9838  -45.8158 N.am      11 UNK        -0.5000 
     20 C           1.9177  -22.9338  -44.8839 C.2       10 UNK         0.5000 
     21 O           1.6480  -24.1048  -45.1445 O.2       10 UNK        -0.5000 
     22 CA          2.0670  -22.4977  -43.4129 C.3       10 UNK         0.1400 
     23 CB          3.5409  -22.5207  -42.9816 C.3       10 UNK        -0.1800 
     24 N           1.5035  -21.1701  -43.1611 N.am      10 UNK        -0.5000 
     25 C           0.1952  -20.8810  -43.2196 C.2       9 UNK         0.5000 
     26 O          -0.6814  -21.7265  -43.3994 O.2       9 UNK        -0.5000 
     27 CA         -0.1958  -19.3936  -43.1066 C.3       9 UNK         0.1400 
     28 CB         -0.3111  -18.9647  -41.6366 C.3       9 UNK        -0.1800 
     29 N           0.7375  -18.5065  -43.8039 N.am      9 UNK        -0.5000 
     30 C           0.9623  -18.5280  -45.1248 C.2       8 UNK         0.5000 
     31 O           0.3694  -19.2712  -45.9004 O.2       8 UNK        -0.5000 
     32 CA          2.0857  -17.6292  -45.6645 C.3       8 UNK         0.1400 
     33 CB          1.5951  -16.1972  -45.8900 C.3       8 UNK        -0.1800 
     34 N           3.2440  -17.6189  -44.7754 N.am      8 UNK        -0.5000 
     35 C           4.0863  -18.6504  -44.6317 C.2       7 UNK         0.5000 
     36 O           3.9881  -19.7037  -45.2604 O.2       7 UNK        -0.5000 
     37 CA          5.1982  -18.4894  -43.5800 C.3       7 UNK         0.1400 
     38 CB          6.4077  -17.7558  -44.1782 C.3       7 UNK        -0.1800 
     39 N           4.7381  -17.7763  -42.3872 N.am      7 UNK        -0.5000 
     40 C           3.8354  -18.2608  -41.5233 C.2       6 UNK         0.5000 
     41 O           3.3210  -19.3745  -41.6255 O.2       6 UNK        -0.5000 
     42 CA          3.4027  -17.3232  -40.3814 C.3       6 UNK         0.1400 
     43 CB          4.3868  -17.4137  -39.2057 C.3       6 UNK        -0.1800 
     44 N           3.2598  -15.9218  -40.7916 N.am      6 UNK        -0.5000 
     45 C           2.3811  -15.4839  -41.7030 C.2       5 UNK         0.5000 
     46 O           1.6570  -16.2291  -42.3654 O.2       5 UNK        -0.5000 
     47 CA          2.3174  -13.9638  -41.9365 C.3       5 UNK         0.1400 
     48 CB          3.1061  -13.5775  -43.1968 C.3       5 UNK        -0.1800 
     49 N           0.9358  -13.5051  -42.0783 N.am      5 UNK        -0.5000 
     50 C           0.0273  -13.5132  -41.0916 C.2       4 UNK         0.5000 
     51 O           0.2832  -13.8532  -39.9343 O.2       4 UNK        -0.5000 
     52 CA         -1.3971  -13.0523  -41.4669 C.3       4 UNK         0.1400 
     53 CB         -2.2959  -12.7771  -40.2434 C.3       4 UNK        -0.1800 
     54 N          -1.3939  -11.9092  -42.3825 N.am      4 UNK        -0.5000 
     55 C          -0.8880  -10.6837  -42.1736 C.2       3 UNK         0.5000 
     56 O          -0.4092  -10.3094  -41.1024 O.2       3 UNK        -0.5000 
     57 CA         -0.8978   -9.7113  -43.3713 C.3       3 UNK         0.1400 
     58 CB          0.5369   -9.4371  -43.8526 C.3       3 UNK        -0.1800 
     59 N          -1.6776  -10.2221  -44.5006 N.am      3 UNK        -0.5000 
     60 C          -2.9973  -10.0552  -44.6625 C.2       2 UNK         0.5000 
     61 O          -3.6992   -9.3787  -43.9104 O.2       2 UNK        -0.5000 
     62 CA         -3.6458  -10.7857  -45.8558 C.3       2 UNK         0.1400 
     63 CB         -3.7118   -9.8611  -47.0808 C.3       2 UNK        -0.1800 
     64 N          -2.9440  -12.0188  -46.2249 N.am      2 UNK        -0.5000 
     65 C          -2.9192  -13.1361  -45.4826 C.2       1 UNK         0.5000 
     66 O          -3.5197  -13.2568  -44.4151 O.2       1 UNK        -0.5000 
     67 C           0.3634  -22.4356  -47.5827 C.2       11 UNK         0.5000 
     68 O           0.0592  -23.3356  -48.3681 O.2       11 UNK        -0.5000 
     69 N          -0.5411  -21.6982  -46.9223 N.am      12 UNK        -0.5000 
     70 CA         -1.9971  -21.8024  -47.0456 C.3       12 UNK         0.1400 
     71 CB         -2.6599  -20.6675  -46.2539 C.3       12 UNK        -0.1800 
     72 C          -2.5837  -23.1659  -46.6360 C.2       12 UNK         0.5000 
     73 O          -3.6879  -23.4966  -47.0713 O.2       12 UNK        -0.5000 
     74 N          -1.8256  -23.9604  -45.8649 N.am      13 UNK        -0.5000 
     75 CA         -2.1524  -25.3356  -45.4738 C.3       13 UNK         0.1400 
     76 CB         -1.1135  -25.8357  -44.4596 C.3       13 UNK        -0.1800 
     77 C          -2.2779  -26.3211  -46.6575 C.2       13 UNK         0.5000 
     78 O          -2.8108  -27.4152  -46.4682 O.2       13 UNK        -0.5000 
     79 N          -1.8313  -25.9143  -47.8578 N.am      14 UNK        -0.5000 
     80 CA         -2.1026  -26.5816  -49.1341 C.3       14 UNK         0.1400 
     81 CB         -1.3635  -25.8331  -50.2547 C.3       14 UNK        -0.1800 
     82 C          -3.6089  -26.6845  -49.4620 C.2       14 UNK         0.5000 
     83 O          -4.0148  -27.6456  -50.1159 O.2       14 UNK        -0.5000 
     84 N          -4.4020  -25.7135  -48.9763 N.am      15 UNK        -0.5000 
     85 CA         -5.8694  -25.6724  -48.9821 C.3       15 UNK         0.1400 
     86 CB         -6.4317  -26.7486  -48.0300 C.3       15 UNK        -0.1800 
     87 C          -6.5151  -25.7201  -50.3848 C.2       15 UNK         0.5000 
     88 O          -7.6254  -26.2352  -50.5352 O.2       15 UNK        -0.5000 
     89 N          -5.8184  -25.1729  -51.3887 N.am      16 UNK        -0.5000 
     90 CA         -6.3189  -25.0230  -52.7547 C.3       16 UNK         0.1400 
     91 CB         -5.1307  -24.7559  -53.6917 C.3       16 UNK        -0.1800 
     92 C          -7.3425  -23.8766  -52.8553 C.2       16 UNK         0.5000 
     93 O          -7.3446  -22.9699  -52.0184 O.2       16 UNK        -0.5000 
     94 N          -8.1586  -23.9004  -53.9156 N.am      17 UNK        -0.5000 
     95 CA         -9.1031  -22.8387  -54.2754 C.3       17 UNK         0.1400 
     96 CB        -10.2480  -23.4538  -55.1008 C.3       17 UNK        -0.1800 
     97 C          -8.3830  -21.6887  -55.0139 C.2       17 UNK         0.5000 
     98 O          -8.7068  -21.3823  -56.1630 O.2       17 UNK        -0.5000 
     99 N          -7.3859  -21.1012  -54.3480 N.am      18 UNK        -0.5000 
    100 CA        -6.4854  -20.0709  -54.8503 C.3       18 UNK         0.1400 
    101 CB        -5.4426  -20.7108  -55.7935 C.3       18 UNK        -0.1800 
    102 C         -5.8090  -19.3796  -53.6548 C.2       18 UNK         0.5000 
    103 O         -6.0738  -19.7315  -52.5019 O.2       18 UNK        -0.5000 
    104 N         -4.9255  -18.4256  -53.9545 N.am      19 UNK        -0.5000 
    105 CA        -3.9716  -17.8426  -53.0209 C.3       19 UNK         0.1400 
    106 CB        -4.4902  -16.4902  -52.5087 C.3       19 UNK        -0.1800 
    107 C         -2.6462  -17.6858  -53.7747 C.2       19 UNK         0.5000 
    108 O         -2.6691  -17.3873  -54.9729 O.2       19 UNK        -0.5000 
    109 N         -1.5268  -17.9023  -53.0719 N.am      20 UNK        -0.5000 
    110 CA        -0.1365  -17.8972  -53.5467 C.3       20 UNK         0.1400 
    111 CB         0.2717  -16.5255  -54.1178 C.3       20 UNK        -0.1800 
    112 C          0.1836  -19.0447  -54.5243 C.2       20 UNK         0.5000 
    113 O          1.0495  -19.8702  -54.2344 O.2       20 UNK        -0.5000 
    114 N         -0.5429  -19.1067  -55.6451 N.am      21 UNK        -0.5000 
    115 CA        -0.4373  -20.1155  -56.7007 C.3       21 UNK         0.1400 
    116 CB        -0.9193  -19.4887  -58.0214 C.3       21 UNK        -0.1800 
    117 C         -1.1968  -21.4136  -56.3465 C.2       21 UNK         0.5000 
    118 O         -1.9468  -21.9397  -57.1707 O.2       21 UNK        -0.5000 
    119 N         -0.9997  -21.8991  -55.1170 N.am      22 UNK        -0.5000 
    120 CA        -1.6486  -23.0967  -54.5591 C.3       22 UNK         0.1400 
    121 C         -0.9178  -24.4313  -54.8881 C.2       22 UNK         0.5000 
    122 N          0.2420  -24.4184  -55.5341 N.am      22 UNK        -0.7600 
    123 O         -1.4185  -25.5030  -54.5600 O.2       22 UNK        -0.5000 
    124 C124       -1.8803  -22.9502  -53.0350 C.3       23 UNK        -0.0398 
    125 S125       -2.9633  -21.5354  -52.6395 S.3       23 UNK        -0.2404 
    126 C126       -2.7542  -21.4044  -50.8392 C.3       23 UNK        -0.0205 
    127 H127        1.3584  -11.5929  -47.0011 H         1 UNK         0.0600 
    128 H128        2.2724  -13.0030  -46.4591 H         1 UNK         0.0600 
    129 H129        1.2872  -13.1012  -47.9211 H         1 UNK         0.0600 
    130 H130       -0.7391  -14.0304  -47.6436 H         1 UNK         0.3000 
    131 H131       -1.7064  -14.8453  -45.1034 H         1 UNK         0.0600 
    132 H132       -3.1446  -14.7794  -47.8066 H         1 UNK         0.0800 
    133 H133       -3.7905  -15.5291  -46.3715 H         1 UNK         0.0800 
    134 H134       -2.7753  -16.5390  -49.4680 H         1 UNK         0.0800 
    135 H135       -1.1313  -15.9681  -49.2975 H         1 UNK         0.0800 
    136 H136       -3.2704  -18.9428  -49.7724 H         1 UNK         0.1150 
    137 H137       -0.0348  -21.4437  -51.0577 H         1 UNK         0.1150 
    138 H138        0.7691  -17.5455  -49.4771 H         1 UNK         0.1150 
    139 H139        2.1894  -19.7596  -51.6152 H         1 UNK         0.0800 
    140 H140        2.6008  -18.9054  -50.1480 H         1 UNK         0.0800 
    141 H141        3.4200  -20.7140  -47.6545 H         1 UNK         0.0800 
    142 H142        1.8205  -20.0770  -47.8957 H         1 UNK         0.0800 
    143 H143        2.4118  -23.0563  -47.5453 H         1 UNK         0.0600 
    144 H144        2.3391  -21.0561  -45.5158 H         1 UNK         0.3000 
    145 H145        1.5232  -23.2174  -42.7974 H         1 UNK         0.0600 
    146 H146        3.6454  -22.2757  -41.9245 H         1 UNK         0.0600 
    147 H147        3.9759  -23.5096  -43.1317 H         1 UNK         0.0600 
    148 H148        4.1398  -21.8087  -43.5495 H         1 UNK         0.0600 
    149 H149        2.1578  -20.4295  -42.9311 H         1 UNK         0.3000 
    150 H150       -1.1754  -19.2717  -43.5731 H         1 UNK         0.0600 
    151 H151       -1.0423  -19.5774  -41.1081 H         1 UNK         0.0600 
    152 H152       -0.6330  -17.9264  -41.5527 H         1 UNK         0.0600 
    153 H153        0.6395  -19.0631  -41.1128 H         1 UNK         0.0600 
    154 H154        1.2236  -17.8153  -43.2377 H         1 UNK         0.3000 
    155 H155        2.4022  -18.0271  -46.6310 H         1 UNK         0.0600 
    156 H156        2.4059  -15.5486  -46.2207 H         1 UNK         0.0600 
    157 H157        1.1620  -15.7691  -44.9856 H         1 UNK         0.0600 
    158 H158        0.8293  -16.1758  -46.6644 H         1 UNK         0.0600 
    159 H159        3.3533  -16.8135  -44.1779 H         1 UNK         0.3000 
    160 H160        5.5187  -19.4890  -43.2785 H         1 UNK         0.0600 
    161 H161        6.1554  -16.7381  -44.4789 H         1 UNK         0.0600 
    162 H162        6.7813  -18.2762  -45.0611 H         1 UNK         0.0600 
    163 H163        7.2286  -17.7012  -43.4630 H         1 UNK         0.0600 
    164 H164        5.1114  -16.8519  -42.2297 H         1 UNK         0.3000 
    165 H165        2.4263  -17.6645  -40.0314 H         1 UNK         0.0600 
    166 H166        5.3777  -17.0490  -39.4792 H         1 UNK         0.0600 
    167 H167        4.0375  -16.8309  -38.3531 H         1 UNK         0.0600 
    168 H168        4.4981  -18.4451  -38.8683 H         1 UNK         0.0600 
    169 H169        3.8265  -15.2495  -40.2950 H         1 UNK         0.3000 
    170 H170        2.7591  -13.4519  -41.0792 H         1 UNK         0.0600 
    171 H171        4.1518  -13.8757  -43.1129 H         1 UNK         0.0600 
    172 H172        2.6983  -14.0532  -44.0884 H         1 UNK         0.0600 
    173 H173        3.0863  -12.4994  -43.3582 H         1 UNK         0.0600 
    174 H174        0.6409  -13.2338  -43.0121 H         1 UNK         0.3000 
    175 H175       -1.8432  -13.8798  -42.0205 H         1 UNK         0.0600 
    176 H176       -3.2946  -12.4672  -40.5511 H         1 UNK         0.0600 
    177 H177       -2.4091  -13.6738  -39.6331 H         1 UNK         0.0600 
    178 H178       -1.8842  -11.9966  -39.6030 H         1 UNK         0.0600 
    179 H179       -1.7454  -12.1068  -43.3090 H         1 UNK         0.3000 
    180 H180       -1.3278   -8.7683  -43.0276 H         1 UNK         0.0600 
    181 H181        0.5465   -8.7319  -44.6837 H         1 UNK         0.0600 
    182 H182        1.1411   -9.0045  -43.0542 H         1 UNK         0.0600 
    183 H183        1.0352  -10.3501  -44.1805 H         1 UNK         0.0600 
    184 H184       -1.1817  -10.8185  -45.1476 H         1 UNK         0.3000 
    185 H185       -4.6668  -11.0464  -45.5686 H         1 UNK         0.0600 
    186 H186       -4.2327  -10.3407  -47.9097 H         1 UNK         0.0600 
    187 H187       -4.2515   -8.9422  -46.8477 H         1 UNK         0.0600 
    188 H188       -2.7167   -9.5784  -47.4267 H         1 UNK         0.0600 
    189 H189       -2.4142  -11.9996  -47.0843 H         1 UNK         0.3000 
    190 H190       -0.2009  -20.9260  -46.3519 H         1 UNK         0.3000 
    191 H191       -2.2412  -21.6611  -48.0964 H         1 UNK         0.0600 
    192 H192       -3.7433  -20.6825  -46.3783 H         1 UNK         0.0600 
    193 H193       -2.3085  -19.6956  -46.5978 H         1 UNK         0.0600 
    194 H194       -2.4494  -20.7435  -45.1877 H         1 UNK         0.0600 
    195 H195       -0.9290  -23.6066  -45.5602 H         1 UNK         0.3000 
    196 H196       -3.1240  -25.3061  -44.9768 H         1 UNK         0.0600 
    197 H197       -1.4189  -26.7904  -44.0299 H         1 UNK         0.0600 
    198 H198       -0.9882  -25.1326  -43.6356 H         1 UNK         0.0600 
    199 H199       -0.1405  -25.9879  -44.9265 H         1 UNK         0.0600 
    200 H200       -1.3560  -25.0212  -47.9129 H         1 UNK         0.3000 
    201 H201       -1.7054  -27.5966  -49.0730 H         1 UNK         0.0600 
    202 H202       -0.2866  -25.8332  -50.0850 H         1 UNK         0.0600 
    203 H203       -1.6880  -24.7944  -50.3247 H         1 UNK         0.0600 
    204 H204       -1.5403  -26.3001  -51.2247 H         1 UNK         0.0600 
    205 H205       -3.9653  -24.9705  -48.4395 H         1 UNK         0.3000 
    206 H206       -6.1391  -24.7000  -48.5677 H         1 UNK         0.0600 
    207 H207       -5.9796  -26.6732  -47.0408 H         1 UNK         0.0600 
    208 H208       -7.5090  -26.6379  -47.9014 H         1 UNK         0.0600 
    209 H209       -6.2474  -27.7553  -48.4062 H         1 UNK         0.0600 
    210 H210       -4.9323  -24.7409  -51.1771 H         1 UNK         0.3000 
    211 H211       -6.8010  -25.9554  -53.0562 H         1 UNK         0.0600 
    212 H212       -4.6786  -23.7855  -53.4912 H         1 UNK         0.0600 
    213 H213       -5.4462  -24.7552  -54.7356 H         1 UNK         0.0600 
    214 H214       -4.3582  -25.5184  -53.5871 H         1 UNK         0.0600 
    215 H215       -8.0716  -24.6564  -54.5796 H         1 UNK         0.3000 
    216 H216       -9.5392  -22.4195  -53.3661 H         1 UNK         0.0600 
    217 H217      -10.9900  -22.6988  -55.3636 H         1 UNK         0.0600 
    218 H218      -10.7646  -24.2317  -54.5383 H         1 UNK         0.0600 
    219 H219       -9.8848  -23.8964  -56.0292 H         1 UNK         0.0600 
    220 H220       -7.2035  -21.3812  -53.3872 H         1 UNK         0.3000 
    221 H221       -7.0646  -19.3207  -55.3921 H         1 UNK         0.0600 
    222 H222       -4.8303  -21.4471  -55.2707 H         1 UNK         0.0600 
    223 H223       -5.9196  -21.2141  -56.6343 H         1 UNK         0.0600 
    224 H224       -4.7678  -19.9649  -56.2144 H         1 UNK         0.0600 
    225 H225       -4.7310  -18.2072  -54.9237 H         1 UNK         0.3000 
    226 H226       -3.8173  -18.5164  -52.1767 H         1 UNK         0.0600 
    227 H227       -3.7769  -16.0336  -51.8217 H         1 UNK         0.0600 
    228 H228       -4.6571  -15.7878  -53.3264 H         1 UNK         0.0600 
    229 H229       -5.4311  -16.6090  -51.9711 H         1 UNK         0.0600 
    230 H230       -1.6290  -18.1853  -52.1062 H         1 UNK         0.3000 
    231 H231        0.4791  -18.0624  -52.6633 H         1 UNK         0.0600 
    232 H232        1.3327  -16.5125  -54.3698 H         1 UNK         0.0600 
    233 H233        0.1012  -15.7319  -53.3903 H         1 UNK         0.0600 
    234 H234       -0.2784  -16.2722  -55.0241 H         1 UNK         0.0600 
    235 H235       -1.2949  -18.4289  -55.7386 H         1 UNK         0.3000 
    236 H236        0.6135  -20.3849  -56.8250 H         1 UNK         0.0600 
    237 H237       -1.9722  -19.2077  -57.9706 H         1 UNK         0.0600 
    238 H238       -0.3456  -18.5944  -58.2653 H         1 UNK         0.0600 
    239 H239       -0.8019  -20.1837  -58.8537 H         1 UNK         0.0600 
    240 H240       -0.3522  -21.4089  -54.5116 H         1 UNK         0.3000 
    241 H241       -2.6329  -23.1913  -55.0219 H         1 UNK         0.0600 
    242 H242        0.7014  -25.2903  -55.7457 H         1 UNK         0.3800 
    243 H243        0.6649  -23.5478  -55.8128 H         1 UNK         0.3800 
    244 H244       -2.3487  -23.8472  -52.6269 H         1 UNK         0.0800 
    245 H245       -0.9263  -22.8434  -52.5199 H         1 UNK         0.0800 
    246 H246       -3.7294  -21.1979  -50.3954 H         1 UNK         0.0800 
    247 H247       -2.4291  -22.3601  -50.4258 H         1 UNK         0.0800 
@<TRIPOS>BOND
     1    1    2 1    
     2    1  127 1    
     3    1  128 1    
     4    1  129 1    
     5    2    3 2    
     6    2    4 am   BACKBONE|DICT|INTERRES
     7    4    5 1    
     8    4  130 1    
     9    5    6 1    
    10    5   65 1    
    11    5  131 1    
    12    6    7 1    
    13    6  132 1    
    14    6  133 1    
    15    7    8 1    
    16    8    9 1    
    17    8  134 1    
    18    8  135 1    
    19    9   10 ar   
    20    9   14 ar   
    21   10   11 ar   
    22   10  136 1    
    23   11   12 ar   
    24   11  126 1    
    25   12   13 ar   
    26   12  137 1    
    27   13   14 ar   
    28   13   15 1    
    29   14  138 1    
    30   15   16 1    
    31   15  139 1    
    32   15  140 1    
    33   16   17 1    
    34   17   18 1    
    35   17  141 1    
    36   17  142 1    
    37   18   19 1    
    38   18   67 1    
    39   18  143 1    
    40   19   20 am   BACKBONE|DICT|INTERRES
    41   19  144 1    
    42   20   21 2    
    43   20   22 1    
    44   22   23 1    
    45   22   24 1    
    46   22  145 1    
    47   23  146 1    
    48   23  147 1    
    49   23  148 1    
    50   24   25 am   BACKBONE|DICT|INTERRES
    51   24  149 1    
    52   25   26 2    
    53   25   27 1    
    54   27   28 1    
    55   27   29 1    
    56   27  150 1    
    57   28  151 1    
    58   28  152 1    
    59   28  153 1    
    60   29   30 am   BACKBONE|DICT|INTERRES
    61   29  154 1    
    62   30   31 2    
    63   30   32 1    
    64   32   33 1    
    65   32   34 1    
    66   32  155 1    
    67   33  156 1    
    68   33  157 1    
    69   33  158 1    
    70   34   35 am   BACKBONE|DICT|INTERRES
    71   34  159 1    
    72   35   36 2    
    73   35   37 1    
    74   37   38 1    
    75   37   39 1    
    76   37  160 1    
    77   38  161 1    
    78   38  162 1    
    79   38  163 1    
    80   39   40 am   BACKBONE|DICT|INTERRES
    81   39  164 1    
    82   40   41 2    
    83   40   42 1    
    84   42   43 1    
    85   42   44 1    
    86   42  165 1    
    87   43  166 1    
    88   43  167 1    
    89   43  168 1    
    90   44   45 am   BACKBONE|DICT|INTERRES
    91   44  169 1    
    92   45   46 2    
    93   45   47 1    
    94   47   48 1    
    95   47   49 1    
    96   47  170 1    
    97   48  171 1    
    98   48  172 1    
    99   48  173 1    
   100   49   50 am   BACKBONE|DICT|INTERRES
   101   49  174 1    
   102   50   51 2    
   103   50   52 1    
   104   52   53 1    
   105   52   54 1    
   106   52  175 1    
   107   53  176 1    
   108   53  177 1    
   109   53  178 1    
   110   54   55 am   BACKBONE|DICT|INTERRES
   111   54  179 1    
   112   55   56 2    
   113   55   57 1    
   114   57   58 1    
   115   57   59 1    
   116   57  180 1    
   117   58  181 1    
   118   58  182 1    
   119   58  183 1    
   120   59   60 am   BACKBONE|DICT|INTERRES
   121   59  184 1    
   122   60   61 2    
   123   60   62 1    
   124   62   63 1    
   125   62   64 1    
   126   62  185 1    
   127   63  186 1    
   128   63  187 1    
   129   63  188 1    
   130   64   65 am   BACKBONE|DICT|INTERRES
   131   64  189 1    
   132   65   66 2    
   133   67   68 2    
   134   67   69 am   BACKBONE|DICT|INTERRES
   135   69   70 1    
   136   69  190 1    
   137   70   71 1    
   138   70   72 1    
   139   70  191 1    
   140   71  192 1    
   141   71  193 1    
   142   71  194 1    
   143   72   73 2    
   144   72   74 am   BACKBONE|DICT|INTERRES
   145   74   75 1    
   146   74  195 1    
   147   75   76 1    
   148   75   77 1    
   149   75  196 1    
   150   76  197 1    
   151   76  198 1    
   152   76  199 1    
   153   77   78 2    
   154   77   79 am   BACKBONE|DICT|INTERRES
   155   79   80 1    
   156   79  200 1    
   157   80   81 1    
   158   80   82 1    
   159   80  201 1    
   160   81  202 1    
   161   81  203 1    
   162   81  204 1    
   163   82   83 2    
   164   82   84 am   BACKBONE|DICT|INTERRES
   165   84   85 1    
   166   84  205 1    
   167   85   86 1    
   168   85   87 1    
   169   85  206 1    
   170   86  207 1    
   171   86  208 1    
   172   86  209 1    
   173   87   88 2    
   174   87   89 am   BACKBONE|DICT|INTERRES
   175   89   90 1    
   176   89  210 1    
   177   90   91 1    
   178   90   92 1    
   179   90  211 1    
   180   91  212 1    
   181   91  213 1    
   182   91  214 1    
   183   92   93 2    
   184   92   94 am   BACKBONE|DICT|INTERRES
   185   94   95 1    
   186   94  215 1    
   187   95   96 1    
   188   95   97 1    
   189   95  216 1    
   190   96  217 1    
   191   96  218 1    
   192   96  219 1    
   193   97   98 2    
   194   97   99 am   BACKBONE|DICT|INTERRES
   195   99  100 1    
   196   99  220 1    
   197  100  101 1    
   198  100  102 1    
   199  100  221 1    
   200  101  222 1    
   201  101  223 1    
   202  101  224 1    
   203  102  103 2    
   204  102  104 am   BACKBONE|DICT|INTERRES
   205  104  105 1    
   206  104  225 1    
   207  105  106 1    
   208  105  107 1    
   209  105  226 1    
   210  106  227 1    
   211  106  228 1    
   212  106  229 1    
   213  107  108 2    
   214  107  109 am   BACKBONE|DICT|INTERRES
   215  109  110 1    
   216  109  230 1    
   217  110  111 1    
   218  110  112 1    
   219  110  231 1    
   220  111  232 1    
   221  111  233 1    
   222  111  234 1    
   223  112  113 2    
   224  112  114 am   BACKBONE|DICT|INTERRES
   225  114  115 1    
   226  114  235 1    
   227  115  116 1    
   228  115  117 1    
   229  115  236 1    
   230  116  237 1    
   231  116  238 1    
   232  116  239 1    
   233  117  118 2    
   234  117  119 am   BACKBONE|DICT|INTERRES
   235  119  120 1    
   236  119  240 1    
   237  120  121 1    
   238  120  124 1    
   239  120  241 1    
   240  121  122 am   BACKBONE|DICT|INTERRES
   241  121  123 2    
   242  122  242 1    
   243  122  243 1    
   244  124  125 1    
   245  124  244 1    
   246  124  245 1    
   247  125  126 1    
   248  126  246 1    
   249  126  247 1    
@<TRIPOS>SUBSTRUCTURE
     1 UNK         1 GROUP             0       ****    0 ROOT    
