@<TRIPOS>MOLECULE
3R540
247   249    1
SMALL
USER_CHARGES


@<TRIPOS>ATOM
      1 CA         -0.0041  -14.8127  -51.9817 C.3       0 UNK        -0.1800 
      2 C           0.2731  -16.2056  -51.4243 C.2       0 UNK         0.5000 
      3 O          -0.5433  -17.1030  -51.6185 O.2       0 UNK        -0.5000 
      4 N           1.3993  -16.4443  -50.7386 N.am      1 UNK        -0.5000 
      5 CA          2.3753  -15.4511  -50.2734 C.3       1 UNK         0.1400 
      6 C6          3.8335  -15.9729  -50.3464 C.3       23 UNK        -0.0398 
      7 S7          4.3131  -16.4062  -52.0526 S.3       23 UNK        -0.2404 
      8 C8          5.4394  -17.8128  -51.7815 C.3       23 UNK        -0.0205 
      9 C9          4.7448  -19.0179  -51.1604 C.ar      23 UNK        -0.0193 
     10 C10         3.7848  -19.7295  -51.8870 C.ar      23 UNK        -0.1150 
     11 C11         3.1575  -20.8561  -51.3361 C.ar      23 UNK        -0.0193 
     12 C12         3.5230  -21.2645  -50.0511 C.ar      23 UNK        -0.1150 
     13 C13         4.4807  -20.5664  -49.3116 C.ar      23 UNK        -0.0193 
     14 C14         5.0859  -19.4394  -49.8715 C.ar      23 UNK        -0.1150 
     15 C15         4.8968  -21.0619  -47.9322 C.3       23 UNK        -0.0205 
     16 S16         4.2091  -20.0661  -46.5672 S.3       23 UNK        -0.2404 
     17 C17         2.4043  -20.1834  -46.8129 C.3       23 UNK        -0.0398 
     18 CA          1.8448  -21.6238  -46.7530 C.3       11 UNK         0.1400 
     19 N           2.1197  -22.3258  -45.4987 N.am      11 UNK        -0.5000 
     20 C           2.0094  -23.6557  -45.3580 C.2       10 UNK         0.5000 
     21 O           1.6967  -24.4164  -46.2739 O.2       10 UNK        -0.5000 
     22 CA          2.2370  -24.2250  -43.9472 C.3       10 UNK         0.1400 
     23 CB          3.7384  -24.3624  -43.6538 C.3       10 UNK        -0.1800 
     24 N           1.6102  -23.4070  -42.9095 N.am      10 UNK        -0.5000 
     25 C           0.2902  -23.2005  -42.7948 C.2       9 UNK         0.5000 
     26 O          -0.5512  -23.7222  -43.5245 O.2       9 UNK        -0.5000 
     27 CA         -0.1596  -22.2001  -41.7157 C.3       9 UNK         0.1400 
     28 CB         -0.4018  -22.9187  -40.3804 C.3       9 UNK        -0.1800 
     29 N           0.7965  -21.1085  -41.5152 N.am      9 UNK        -0.5000 
     30 C           1.1162  -20.1961  -42.4414 C.2       8 UNK         0.5000 
     31 O           0.6375  -20.1669  -43.5789 O.2       8 UNK        -0.5000 
     32 CA          2.1510  -19.1462  -42.0307 C.3       8 UNK         0.1400 
     33 CB          3.3822  -19.1815  -42.9489 C.3       8 UNK        -0.1800 
     34 N           1.5112  -17.8418  -42.1121 N.am      8 UNK        -0.5000 
     35 C           1.6323  -16.8682  -41.2030 C.2       7 UNK         0.5000 
     36 O           2.3735  -16.9369  -40.2216 O.2       7 UNK        -0.5000 
     37 CA          0.7789  -15.6044  -41.4111 C.3       7 UNK         0.1400 
     38 CB          1.6362  -14.4454  -41.9437 C.3       7 UNK        -0.1800 
     39 N          -0.3497  -15.8112  -42.3181 N.am      7 UNK        -0.5000 
     40 C          -1.5121  -16.3929  -41.9895 C.2       6 UNK         0.5000 
     41 O          -1.7405  -16.8891  -40.8854 O.2       6 UNK        -0.5000 
     42 CA         -2.5955  -16.3864  -43.0905 C.3       6 UNK         0.1400 
     43 CB         -4.0133  -16.6922  -42.5665 C.3       6 UNK        -0.1800 
     44 N          -2.5641  -15.1394  -43.8637 N.am      6 UNK        -0.5000 
     45 C          -2.7694  -13.8906  -43.4145 C.2       5 UNK         0.5000 
     46 O          -3.2132  -13.6203  -42.2984 O.2       5 UNK        -0.5000 
     47 CA         -2.3570  -12.7424  -44.3557 C.3       5 UNK         0.1400 
     48 CB         -1.0477  -12.1028  -43.8665 C.3       5 UNK        -0.1800 
     49 N          -2.1539  -13.1980  -45.7311 N.am      5 UNK        -0.5000 
     50 C          -3.0983  -13.1980  -46.6792 C.2       4 UNK         0.5000 
     51 O          -4.2383  -12.7625  -46.5182 O.2       4 UNK        -0.5000 
     52 CA         -2.7019  -13.8160  -48.0305 C.3       4 UNK         0.1400 
     53 CB         -1.9995  -12.7782  -48.9173 C.3       4 UNK        -0.1800 
     54 N          -1.8459  -14.9964  -47.8746 N.am      4 UNK        -0.5000 
     55 C          -2.2882  -16.1756  -47.4099 C.2       3 UNK         0.5000 
     56 O          -3.4766  -16.4047  -47.1966 O.2       3 UNK        -0.5000 
     57 CA         -1.2668  -17.3018  -47.1577 C.3       3 UNK         0.1400 
     58 CB         -1.3791  -18.3490  -48.2741 C.3       3 UNK        -0.1800 
     59 N           0.1201  -16.8483  -47.0811 N.am      3 UNK        -0.5000 
     60 C           0.6407  -16.0173  -46.1667 C.2       2 UNK         0.5000 
     61 O           0.0151  -15.5870  -45.1974 O.2       2 UNK        -0.5000 
     62 CA          2.0867  -15.5412  -46.4166 C.3       2 UNK         0.1400 
     63 CB          3.0661  -16.3152  -45.5235 C.3       2 UNK        -0.1800 
     64 N           2.5089  -15.6734  -47.8181 N.am      2 UNK        -0.5000 
     65 C           1.9418  -15.0346  -48.8544 C.2       1 UNK         0.5000 
     66 O           1.0318  -14.2155  -48.7193 O.2       1 UNK        -0.5000 
     67 C           0.3442  -21.6311  -47.0779 C.2       11 UNK         0.5000 
     68 O          -0.0097  -21.8503  -48.2338 O.2       11 UNK        -0.5000 
     69 N          -0.5097  -21.4278  -46.0637 N.am      12 UNK        -0.5000 
     70 CA         -1.9672  -21.4907  -46.1961 C.3       12 UNK         0.1400 
     71 CB         -2.6266  -21.0569  -44.8792 C.3       12 UNK        -0.1800 
     72 C          -2.4660  -22.8775  -46.6466 C.2       12 UNK         0.5000 
     73 O          -3.3225  -22.9563  -47.5277 O.2       12 UNK        -0.5000 
     74 N          -1.8838  -23.9413  -46.0761 N.am      13 UNK        -0.5000 
     75 CA         -2.1377  -25.3316  -46.4539 C.3       13 UNK         0.1400 
     76 CB         -1.4829  -26.2679  -45.4270 C.3       13 UNK        -0.1800 
     77 C          -1.6569  -25.6670  -47.8782 C.2       13 UNK         0.5000 
     78 O          -2.3481  -26.3958  -48.5898 O.2       13 UNK        -0.5000 
     79 N          -0.4941  -25.1277  -48.2713 N.am      14 UNK        -0.5000 
     80 CA          0.0751  -25.2789  -49.6116 C.3       14 UNK         0.1400 
     81 CB          1.5439  -24.8355  -49.5966 C.3       14 UNK        -0.1800 
     82 C          -0.7166  -24.5107  -50.6863 C.2       14 UNK         0.5000 
     83 O          -0.9005  -25.0326  -51.7863 O.2       14 UNK        -0.5000 
     84 N          -1.1753  -23.2974  -50.3466 N.am      15 UNK        -0.5000 
     85 CA         -2.0463  -22.4600  -51.1713 C.3       15 UNK         0.1400 
     86 CB         -2.1869  -21.0759  -50.5138 C.3       15 UNK        -0.1800 
     87 C          -3.4202  -23.1214  -51.3902 C.2       15 UNK         0.5000 
     88 O          -3.8310  -23.2907  -52.5388 O.2       15 UNK        -0.5000 
     89 N          -4.0478  -23.5310  -50.2759 N.am      16 UNK        -0.5000 
     90 CA         -5.3077  -24.2680  -50.1399 C.3       16 UNK         0.1400 
     91 CB         -5.2193  -25.6332  -50.8515 C.3       16 UNK        -0.1800 
     92 C          -6.5649  -23.4924  -50.5858 C.2       16 UNK         0.5000 
     93 O          -6.4882  -22.5356  -51.3559 O.2       16 UNK        -0.5000 
     94 N          -7.7218  -23.9485  -50.0854 N.am      17 UNK        -0.5000 
     95 CA         -9.0984  -23.5314  -50.3943 C.3       17 UNK         0.1400 
     96 CB         -9.4274  -23.7694  -51.8809 C.3       17 UNK        -0.1800 
     97 C          -9.4938  -22.1007  -49.9706 C.2       17 UNK         0.5000 
     98 O         -10.6221  -21.9093  -49.5140 O.2       17 UNK        -0.5000 
     99 N          -8.5933  -21.1264  -50.1222 N.am      18 UNK        -0.5000 
    100 CA        -8.8148  -19.7135  -49.8331 C.3       18 UNK         0.1400 
    101 CB        -9.5103  -19.0487  -51.0363 C.3       18 UNK        -0.1800 
    102 C         -7.4806  -19.0218  -49.5213 C.2       18 UNK         0.5000 
    103 O         -6.4119  -19.5679  -49.8069 O.2       18 UNK        -0.5000 
    104 N         -7.5685  -17.8124  -48.9552 N.am      19 UNK        -0.5000 
    105 CA        -6.4260  -16.9308  -48.7237 C.3       19 UNK         0.1400 
    106 CB        -6.8558  -15.7744  -47.8078 C.3       19 UNK        -0.1800 
    107 C         -5.8585  -16.3901  -50.0497 C.2       19 UNK         0.5000 
    108 O         -6.6195  -16.1445  -50.9884 O.2       19 UNK        -0.5000 
    109 N         -4.5324  -16.2092  -50.0847 N.am      20 UNK        -0.5000 
    110 CA        -3.7249  -15.6957  -51.2028 C.3       20 UNK         0.1400 
    111 CB        -4.1355  -14.2511  -51.5631 C.3       20 UNK        -0.1800 
    112 C         -3.7060  -16.5989  -52.4579 C.2       20 UNK         0.5000 
    113 O         -3.2634  -16.1531  -53.5188 O.2       20 UNK        -0.5000 
    114 N         -4.1720  -17.8495  -52.3343 N.am      21 UNK        -0.5000 
    115 CA        -4.3801  -18.7760  -53.4499 C.3       21 UNK         0.1400 
    116 CB        -5.2549  -19.9453  -52.9756 C.3       21 UNK        -0.1800 
    117 C         -3.0954  -19.2724  -54.1466 C.2       21 UNK         0.5000 
    118 O         -3.1962  -19.8236  -55.2438 O.2       21 UNK        -0.5000 
    119 N         -1.9212  -19.0533  -53.5376 N.am      22 UNK        -0.5000 
    120 CA        -0.6121  -19.2764  -54.1725 C.3       22 UNK         0.1400 
    121 C         -0.1588  -18.1028  -55.0946 C.2       22 UNK         0.5000 
    122 N         -0.8451  -16.9643  -55.1229 N.am      22 UNK        -0.7600 
    123 O          0.8267  -18.2314  -55.8153 O.2       22 UNK        -0.5000 
    124 C124        0.4792  -19.6492  -53.1293 C.3       23 UNK        -0.0398 
    125 S125        1.5314  -21.0327  -53.6798 S.3       23 UNK        -0.2404 
    126 C126        2.1151  -21.6957  -52.0813 C.3       23 UNK        -0.0205 
    127 H127        0.7686  -14.5294  -52.6961 H         1 UNK         0.0600 
    128 H128       -0.0388  -14.0690  -51.1877 H         1 UNK         0.0600 
    129 H129       -0.9598  -14.7916  -52.5047 H         1 UNK         0.0600 
    130 H130        1.5782  -17.3921  -50.4441 H         1 UNK         0.3000 
    131 H131        2.3329  -14.5530  -50.8909 H         1 UNK         0.0600 
    132 H132        4.5301  -15.2145  -49.9846 H         1 UNK         0.0800 
    133 H133        3.9664  -16.8457  -49.7081 H         1 UNK         0.0800 
    134 H134        5.8677  -18.1081  -52.7403 H         1 UNK         0.0800 
    135 H135        6.2763  -17.4841  -51.1633 H         1 UNK         0.0800 
    136 H136        3.5448  -19.3966  -52.8858 H         1 UNK         0.1150 
    137 H137        3.0713  -22.1501  -49.6350 H         1 UNK         0.1150 
    138 H138        5.8353  -18.9024  -49.3069 H         1 UNK         0.1150 
    139 H139        4.6224  -22.1086  -47.7957 H         1 UNK         0.0800 
    140 H140        5.9850  -21.0342  -47.8612 H         1 UNK         0.0800 
    141 H141        2.1697  -19.7226  -47.7744 H         1 UNK         0.0800 
    142 H142        1.9215  -19.5611  -46.0575 H         1 UNK         0.0800 
    143 H143        2.3242  -22.1976  -47.5441 H         1 UNK         0.0600 
    144 H144        2.3452  -21.7571  -44.6966 H         1 UNK         0.3000 
    145 H145        1.7868  -25.2194  -43.9117 H         1 UNK         0.0600 
    146 H146        3.9094  -24.8343  -42.6861 H         1 UNK         0.0600 
    147 H147        4.2273  -24.9818  -44.4070 H         1 UNK         0.0600 
    148 H148        4.2405  -23.3940  -43.6491 H         1 UNK         0.0600 
    149 H149        2.2268  -22.9404  -42.2612 H         1 UNK         0.3000 
    150 H150       -1.1042  -21.7612  -42.0424 H         1 UNK         0.0600 
    151 H151       -1.1276  -23.7247  -40.4975 H         1 UNK         0.0600 
    152 H152       -0.7975  -22.2341  -39.6300 H         1 UNK         0.0600 
    153 H153        0.5154  -23.3576  -39.9855 H         1 UNK         0.0600 
    154 H154        1.2260  -21.0525  -40.6027 H         1 UNK         0.3000 
    155 H155        2.4740  -19.3525  -41.0079 H         1 UNK         0.0600 
    156 H156        3.1170  -18.9590  -43.9812 H         1 UNK         0.0600 
    157 H157        3.8578  -20.1628  -42.9337 H         1 UNK         0.0600 
    158 H158        4.1280  -18.4516  -42.6339 H         1 UNK         0.0600 
    159 H159        0.8488  -17.7272  -42.8666 H         1 UNK         0.3000 
    160 H160        0.3904  -15.3136  -40.4327 H         1 UNK         0.0600 
    161 H161        1.9819  -14.6300  -42.9606 H         1 UNK         0.0600 
    162 H162        2.5166  -14.2870  -41.3195 H         1 UNK         0.0600 
    163 H163        1.0728  -13.5125  -41.9457 H         1 UNK         0.0600 
    164 H164       -0.2331  -15.4840  -43.2725 H         1 UNK         0.3000 
    165 H165       -2.3247  -17.1826  -43.7853 H         1 UNK         0.0600 
    166 H166       -4.3293  -15.9806  -41.8035 H         1 UNK         0.0600 
    167 H167       -4.7446  -16.6660  -43.3744 H         1 UNK         0.0600 
    168 H168       -4.0567  -17.6868  -42.1215 H         1 UNK         0.0600 
    169 H169       -2.1500  -15.2212  -44.7813 H         1 UNK         0.3000 
    170 H170       -3.1428  -11.9849  -44.3215 H         1 UNK         0.0600 
    171 H171       -0.2172  -12.8084  -43.9075 H         1 UNK         0.0600 
    172 H172       -0.7818  -11.2382  -44.4748 H         1 UNK         0.0600 
    173 H173       -1.1376  -11.7584  -42.8354 H         1 UNK         0.0600 
    174 H174       -1.2447  -13.5802  -45.9503 H         1 UNK         0.3000 
    175 H175       -3.6256  -14.1174  -48.5243 H         1 UNK         0.0600 
    176 H176       -1.7850  -13.1856  -49.9041 H         1 UNK         0.0600 
    177 H177       -2.6277  -11.8982  -49.0608 H         1 UNK         0.0600 
    178 H178       -1.0586  -12.4424  -48.4802 H         1 UNK         0.0600 
    179 H179       -0.8591  -14.8706  -48.0719 H         1 UNK         0.3000 
    180 H180       -1.5194  -17.7757  -46.2070 H         1 UNK         0.0600 
    181 H181       -1.1840  -17.9151  -49.2532 H         1 UNK         0.0600 
    182 H182       -2.3790  -18.7834  -48.3075 H         1 UNK         0.0600 
    183 H183       -0.6724  -19.1630  -48.1290 H         1 UNK         0.0600 
    184 H184        0.7178  -17.1280  -47.8426 H         1 UNK         0.3000 
    185 H185        2.1307  -14.4848  -46.1443 H         1 UNK         0.0600 
    186 H186        3.1224  -17.3644  -45.8096 H         1 UNK         0.0600 
    187 H187        4.0711  -15.8979  -45.5866 H         1 UNK         0.0600 
    188 H188        2.7659  -16.2789  -44.4761 H         1 UNK         0.0600 
    189 H189        3.2501  -16.3356  -47.9929 H         1 UNK         0.3000 
    190 H190       -0.1392  -21.2142  -45.1433 H         1 UNK         0.3000 
    191 H191       -2.2603  -20.7769  -46.9666 H         1 UNK         0.0600 
    192 H192       -2.2907  -20.0648  -44.5763 H         1 UNK         0.0600 
    193 H193       -3.7115  -21.0169  -44.9832 H         1 UNK         0.0600 
    194 H194       -2.4016  -21.7498  -44.0691 H         1 UNK         0.0600 
    195 H195       -1.2300  -23.7918  -45.3122 H         1 UNK         0.3000 
    196 H196       -3.2170  -25.4948  -46.4222 H         1 UNK         0.0600 
    197 H197       -1.6656  -27.3136  -45.6777 H         1 UNK         0.0600 
    198 H198       -1.8841  -26.0979  -44.4277 H         1 UNK         0.0600 
    199 H199       -0.4029  -26.1231  -45.3821 H         1 UNK         0.0600 
    200 H200        0.0451  -24.5862  -47.6056 H         1 UNK         0.3000 
    201 H201        0.0469  -26.3385  -49.8747 H         1 UNK         0.0600 
    202 H202        2.1359  -25.4542  -48.9219 H         1 UNK         0.0600 
    203 H203        1.6364  -23.8024  -49.2687 H         1 UNK         0.0600 
    204 H204        1.9907  -24.9115  -50.5887 H         1 UNK         0.0600 
    205 H205       -0.9056  -22.9116  -49.4447 H         1 UNK         0.3000 
    206 H206       -1.5670  -22.3297  -52.1441 H         1 UNK         0.0600 
    207 H207       -2.7571  -20.3956  -51.1430 H         1 UNK         0.0600 
    208 H208       -2.6936  -21.1328  -49.5504 H         1 UNK         0.0600 
    209 H209       -1.2134  -20.6175  -50.3442 H         1 UNK         0.0600 
    210 H210       -3.6134  -23.2995  -49.3861 H         1 UNK         0.3000 
    211 H211       -5.4104  -24.4554  -49.0699 H         1 UNK         0.0600 
    212 H212       -5.1780  -25.5244  -51.9356 H         1 UNK         0.0600 
    213 H213       -6.0856  -26.2543  -50.6217 H         1 UNK         0.0600 
    214 H214       -4.3337  -26.1854  -50.5371 H         1 UNK         0.0600 
    215 H215       -7.6658  -24.7145  -49.4286 H         1 UNK         0.3000 
    216 H216       -9.7346  -24.2031  -49.8156 H         1 UNK         0.0600 
    217 H217       -8.8400  -23.1256  -52.5362 H         1 UNK         0.0600 
    218 H218       -9.2362  -24.8037  -52.1668 H         1 UNK         0.0600 
    219 H219      -10.4794  -23.5653  -52.0841 H         1 UNK         0.0600 
    220 H220       -7.6732  -21.3608  -50.4929 H         1 UNK         0.3000 
    221 H221       -9.4495  -19.6220  -48.9492 H         1 UNK         0.0600 
    222 H222      -10.4772  -19.5088  -51.2404 H         1 UNK         0.0600 
    223 H223       -9.6905  -17.9885  -50.8551 H         1 UNK         0.0600 
    224 H224       -8.9045  -19.1284  -51.9399 H         1 UNK         0.0600 
    225 H225       -8.4808  -17.4158  -48.7844 H         1 UNK         0.3000 
    226 H226       -5.6527  -17.5097  -48.2147 H         1 UNK         0.0600 
    227 H227       -7.2276  -16.1449  -46.8524 H         1 UNK         0.0600 
    228 H228       -6.0142  -15.1144  -47.5919 H         1 UNK         0.0600 
    229 H229       -7.6398  -15.1684  -48.2636 H         1 UNK         0.0600 
    230 H230       -4.0193  -16.4269  -49.2382 H         1 UNK         0.3000 
    231 H231       -2.7012  -15.6632  -50.8309 H         1 UNK         0.0600 
    232 H232       -3.3940  -13.7869  -52.2143 H         1 UNK         0.0600 
    233 H233       -4.2298  -13.6197  -50.6818 H         1 UNK         0.0600 
    234 H234       -5.0898  -14.2234  -52.0899 H         1 UNK         0.0600 
    235 H235       -4.5195  -18.1461  -51.4337 H         1 UNK         0.3000 
    236 H236       -4.9469  -18.2383  -54.2129 H         1 UNK         0.0600 
    237 H237       -5.4088  -20.6772  -53.7695 H         1 UNK         0.0600 
    238 H238       -4.8108  -20.4708  -52.1319 H         1 UNK         0.0600 
    239 H239       -6.2401  -19.5980  -52.6638 H         1 UNK         0.0600 
    240 H240       -1.9018  -18.5279  -52.6723 H         1 UNK         0.3000 
    241 H241       -0.7317  -20.1306  -54.8416 H         1 UNK         0.0600 
    242 H242       -0.5423  -16.2234  -55.7340 H         1 UNK         0.3800 
    243 H243       -1.6588  -16.8237  -54.5332 H         1 UNK         0.3800 
    244 H244        0.0170  -19.9414  -52.1875 H         1 UNK         0.0800 
    245 H245        1.1161  -18.7978  -52.8847 H         1 UNK         0.0800 
    246 H246        2.5466  -22.6798  -52.2684 H         1 UNK         0.0800 
    247 H247        1.2534  -21.8612  -51.4323 H         1 UNK         0.0800 
@<TRIPOS>BOND
     1    1    2 1    
     2    1  127 1    
     3    1  128 1    
     4    1  129 1    
     5    2    3 2    
     6    2    4 am   BACKBONE|DICT|INTERRES
     7    4    5 1    
     8    4  130 1    
     9    5    6 1    
    10    5   65 1    
    11    5  131 1    
    12    6    7 1    
    13    6  132 1    
    14    6  133 1    
    15    7    8 1    
    16    8    9 1    
    17    8  134 1    
    18    8  135 1    
    19    9   10 ar   
    20    9   14 ar   
    21   10   11 ar   
    22   10  136 1    
    23   11   12 ar   
    24   11  126 1    
    25   12   13 ar   
    26   12  137 1    
    27   13   14 ar   
    28   13   15 1    
    29   14  138 1    
    30   15   16 1    
    31   15  139 1    
    32   15  140 1    
    33   16   17 1    
    34   17   18 1    
    35   17  141 1    
    36   17  142 1    
    37   18   19 1    
    38   18   67 1    
    39   18  143 1    
    40   19   20 am   BACKBONE|DICT|INTERRES
    41   19  144 1    
    42   20   21 2    
    43   20   22 1    
    44   22   23 1    
    45   22   24 1    
    46   22  145 1    
    47   23  146 1    
    48   23  147 1    
    49   23  148 1    
    50   24   25 am   BACKBONE|DICT|INTERRES
    51   24  149 1    
    52   25   26 2    
    53   25   27 1    
    54   27   28 1    
    55   27   29 1    
    56   27  150 1    
    57   28  151 1    
    58   28  152 1    
    59   28  153 1    
    60   29   30 am   BACKBONE|DICT|INTERRES
    61   29  154 1    
    62   30   31 2    
    63   30   32 1    
    64   32   33 1    
    65   32   34 1    
    66   32  155 1    
    67   33  156 1    
    68   33  157 1    
    69   33  158 1    
    70   34   35 am   BACKBONE|DICT|INTERRES
    71   34  159 1    
    72   35   36 2    
    73   35   37 1    
    74   37   38 1    
    75   37   39 1    
    76   37  160 1    
    77   38  161 1    
    78   38  162 1    
    79   38  163 1    
    80   39   40 am   BACKBONE|DICT|INTERRES
    81   39  164 1    
    82   40   41 2    
    83   40   42 1    
    84   42   43 1    
    85   42   44 1    
    86   42  165 1    
    87   43  166 1    
    88   43  167 1    
    89   43  168 1    
    90   44   45 am   BACKBONE|DICT|INTERRES
    91   44  169 1    
    92   45   46 2    
    93   45   47 1    
    94   47   48 1    
    95   47   49 1    
    96   47  170 1    
    97   48  171 1    
    98   48  172 1    
    99   48  173 1    
   100   49   50 am   BACKBONE|DICT|INTERRES
   101   49  174 1    
   102   50   51 2    
   103   50   52 1    
   104   52   53 1    
   105   52   54 1    
   106   52  175 1    
   107   53  176 1    
   108   53  177 1    
   109   53  178 1    
   110   54   55 am   BACKBONE|DICT|INTERRES
   111   54  179 1    
   112   55   56 2    
   113   55   57 1    
   114   57   58 1    
   115   57   59 1    
   116   57  180 1    
   117   58  181 1    
   118   58  182 1    
   119   58  183 1    
   120   59   60 am   BACKBONE|DICT|INTERRES
   121   59  184 1    
   122   60   61 2    
   123   60   62 1    
   124   62   63 1    
   125   62   64 1    
   126   62  185 1    
   127   63  186 1    
   128   63  187 1    
   129   63  188 1    
   130   64   65 am   BACKBONE|DICT|INTERRES
   131   64  189 1    
   132   65   66 2    
   133   67   68 2    
   134   67   69 am   BACKBONE|DICT|INTERRES
   135   69   70 1    
   136   69  190 1    
   137   70   71 1    
   138   70   72 1    
   139   70  191 1    
   140   71  192 1    
   141   71  193 1    
   142   71  194 1    
   143   72   73 2    
   144   72   74 am   BACKBONE|DICT|INTERRES
   145   74   75 1    
   146   74  195 1    
   147   75   76 1    
   148   75   77 1    
   149   75  196 1    
   150   76  197 1    
   151   76  198 1    
   152   76  199 1    
   153   77   78 2    
   154   77   79 am   BACKBONE|DICT|INTERRES
   155   79   80 1    
   156   79  200 1    
   157   80   81 1    
   158   80   82 1    
   159   80  201 1    
   160   81  202 1    
   161   81  203 1    
   162   81  204 1    
   163   82   83 2    
   164   82   84 am   BACKBONE|DICT|INTERRES
   165   84   85 1    
   166   84  205 1    
   167   85   86 1    
   168   85   87 1    
   169   85  206 1    
   170   86  207 1    
   171   86  208 1    
   172   86  209 1    
   173   87   88 2    
   174   87   89 am   BACKBONE|DICT|INTERRES
   175   89   90 1    
   176   89  210 1    
   177   90   91 1    
   178   90   92 1    
   179   90  211 1    
   180   91  212 1    
   181   91  213 1    
   182   91  214 1    
   183   92   93 2    
   184   92   94 am   BACKBONE|DICT|INTERRES
   185   94   95 1    
   186   94  215 1    
   187   95   96 1    
   188   95   97 1    
   189   95  216 1    
   190   96  217 1    
   191   96  218 1    
   192   96  219 1    
   193   97   98 2    
   194   97   99 am   BACKBONE|DICT|INTERRES
   195   99  100 1    
   196   99  220 1    
   197  100  101 1    
   198  100  102 1    
   199  100  221 1    
   200  101  222 1    
   201  101  223 1    
   202  101  224 1    
   203  102  103 2    
   204  102  104 am   BACKBONE|DICT|INTERRES
   205  104  105 1    
   206  104  225 1    
   207  105  106 1    
   208  105  107 1    
   209  105  226 1    
   210  106  227 1    
   211  106  228 1    
   212  106  229 1    
   213  107  108 2    
   214  107  109 am   BACKBONE|DICT|INTERRES
   215  109  110 1    
   216  109  230 1    
   217  110  111 1    
   218  110  112 1    
   219  110  231 1    
   220  111  232 1    
   221  111  233 1    
   222  111  234 1    
   223  112  113 2    
   224  112  114 am   BACKBONE|DICT|INTERRES
   225  114  115 1    
   226  114  235 1    
   227  115  116 1    
   228  115  117 1    
   229  115  236 1    
   230  116  237 1    
   231  116  238 1    
   232  116  239 1    
   233  117  118 2    
   234  117  119 am   BACKBONE|DICT|INTERRES
   235  119  120 1    
   236  119  240 1    
   237  120  121 1    
   238  120  124 1    
   239  120  241 1    
   240  121  122 am   BACKBONE|DICT|INTERRES
   241  121  123 2    
   242  122  242 1    
   243  122  243 1    
   244  124  125 1    
   245  124  244 1    
   246  124  245 1    
   247  125  126 1    
   248  126  246 1    
   249  126  247 1    
@<TRIPOS>SUBSTRUCTURE
     1 UNK         1 GROUP             0       ****    0 ROOT    
