@<TRIPOS>MOLECULE
3R540
247   249    1
SMALL
USER_CHARGES


@<TRIPOS>ATOM
      1 CA          1.8382  -11.6625  -51.7813 C.3       0 UNK        -0.1800 
      2 C           2.2354  -12.3912  -50.5063 C.2       0 UNK         0.5000 
      3 O           1.3977  -13.0588  -49.9006 O.2       0 UNK        -0.5000 
      4 N           3.5066  -12.2631  -50.0998 N.am      1 UNK        -0.5000 
      5 CA          4.1609  -12.8721  -48.9280 C.3       1 UNK         0.1400 
      6 C6          4.1421  -14.4242  -48.9217 C.3       23 UNK        -0.0398 
      7 S7          5.1775  -15.1298  -50.2461 S.3       23 UNK        -0.2404 
      8 C8          3.9496  -15.5505  -51.5253 C.3       23 UNK        -0.0205 
      9 C9          3.0133  -16.6771  -51.1101 C.ar      23 UNK        -0.0193 
     10 C10         1.6327  -16.4683  -51.0512 C.ar      23 UNK        -0.1150 
     11 C11         0.7617  -17.5247  -50.7516 C.ar      23 UNK        -0.0193 
     12 C12         1.2988  -18.7868  -50.4810 C.ar      23 UNK        -0.1150 
     13 C13         2.6841  -19.0039  -50.4895 C.ar      23 UNK        -0.0193 
     14 C14         3.5276  -17.9426  -50.8233 C.ar      23 UNK        -0.1150 
     15 C15         3.3348  -20.3503  -50.1617 C.3       23 UNK        -0.0205 
     16 S16         2.2295  -21.6695  -49.5574 S.3       23 UNK        -0.2404 
     17 C17         1.7065  -21.0002  -47.9392 C.3       23 UNK        -0.0398 
     18 CA          0.6355  -21.8653  -47.2363 C.3       11 UNK         0.1400 
     19 N           0.3365  -21.3565  -45.8990 N.am      11 UNK        -0.5000 
     20 C          -0.3990  -22.0026  -44.9845 C.2       10 UNK         0.5000 
     21 O          -0.8638  -23.1311  -45.1462 O.2       10 UNK        -0.5000 
     22 CA         -0.7109  -21.2313  -43.6930 C.3       10 UNK         0.1400 
     23 CB          0.4714  -21.2860  -42.7178 C.3       10 UNK        -0.1800 
     24 N          -1.0687  -19.8390  -43.9645 N.am      10 UNK        -0.5000 
     25 C          -2.2025  -19.4673  -44.5748 C.2       9 UNK         0.5000 
     26 O          -3.0800  -20.2533  -44.9281 O.2       9 UNK        -0.5000 
     27 CA         -2.3667  -17.9711  -44.8795 C.3       9 UNK         0.1400 
     28 CB         -2.9914  -17.2396  -43.6831 C.3       9 UNK        -0.1800 
     29 N          -1.1023  -17.3413  -45.2700 N.am      9 UNK        -0.5000 
     30 C          -0.5177  -17.5670  -46.4545 C.2       8 UNK         0.5000 
     31 O          -0.9415  -18.3769  -47.2771 O.2       8 UNK        -0.5000 
     32 CA          0.7576  -16.7780  -46.7835 C.3       8 UNK         0.1400 
     33 CB          0.3970  -15.3557  -47.2329 C.3       8 UNK        -0.1800 
     34 N           1.7551  -16.7252  -45.7126 N.am      8 UNK        -0.5000 
     35 C           2.3196  -17.7977  -45.1381 C.2       7 UNK         0.5000 
     36 O           1.8983  -18.9494  -45.2652 O.2       7 UNK        -0.5000 
     37 CA          3.6014  -17.5603  -44.3278 C.3       7 UNK         0.1400 
     38 CB          4.5091  -16.4598  -44.9172 C.3       7 UNK        -0.1800 
     39 N           3.2906  -17.2913  -42.9275 N.am      7 UNK        -0.5000 
     40 C           4.1346  -17.5447  -41.9151 C.2       6 UNK         0.5000 
     41 O           5.2651  -18.0074  -42.0762 O.2       6 UNK        -0.5000 
     42 CA          3.6621  -17.2475  -40.4774 C.3       6 UNK         0.1400 
     43 CB          4.3561  -15.9966  -39.9205 C.3       6 UNK        -0.1800 
     44 N           2.2110  -17.0923  -40.3745 N.am      6 UNK        -0.5000 
     45 C           1.3599  -18.1284  -40.3647 C.2       5 UNK         0.5000 
     46 O           1.7326  -19.3011  -40.3479 O.2       5 UNK        -0.5000 
     47 CA         -0.1534  -17.8302  -40.3837 C.3       5 UNK         0.1400 
     48 CB         -0.7964  -18.2008  -39.0386 C.3       5 UNK        -0.1800 
     49 N          -0.4973  -16.4435  -40.7010 N.am      5 UNK        -0.5000 
     50 C          -0.2993  -15.8416  -41.8799 C.2       4 UNK         0.5000 
     51 O           0.2281  -16.3981  -42.8458 O.2       4 UNK        -0.5000 
     52 CA         -0.7606  -14.3747  -42.0107 C.3       4 UNK         0.1400 
     53 CB         -1.4545  -13.8095  -40.7511 C.3       4 UNK        -0.1800 
     54 N           0.3368  -13.4968  -42.4171 N.am      4 UNK        -0.5000 
     55 C           1.5340  -13.3643  -41.8271 C.2       3 UNK         0.5000 
     56 O           1.8553  -13.9678  -40.8018 O.2       3 UNK        -0.5000 
     57 CA          2.5309  -12.3752  -42.4715 C.3       3 UNK         0.1400 
     58 CB          3.9665  -12.9364  -42.5036 C.3       3 UNK        -0.1800 
     59 N           2.1379  -11.8806  -43.7994 N.am      3 UNK        -0.5000 
     60 C           2.0187  -12.5794  -44.9381 C.2       2 UNK         0.5000 
     61 O           2.1666  -13.8011  -45.0120 O.2       2 UNK        -0.5000 
     62 CA          1.6230  -11.7866  -46.2046 C.3       2 UNK         0.1400 
     63 CB          1.7503  -10.2530  -46.0630 C.3       2 UNK        -0.1800 
     64 N           2.3430  -12.2448  -47.3929 N.am      2 UNK        -0.5000 
     65 C           3.6677  -12.3018  -47.5804 C.2       1 UNK         0.5000 
     66 O           4.4971  -11.9127  -46.7566 O.2       1 UNK        -0.5000 
     67 C          -0.6523  -22.0401  -48.0722 C.2       11 UNK         0.5000 
     68 O          -0.8453  -23.1063  -48.6544 O.2       11 UNK        -0.5000 
     69 N          -1.5344  -21.0291  -48.0734 N.am      12 UNK        -0.5000 
     70 CA         -2.8374  -21.0769  -48.7388 C.3       12 UNK         0.1400 
     71 CB         -3.5212  -19.7053  -48.6577 C.3       12 UNK        -0.1800 
     72 C          -3.7528  -22.1794  -48.1771 C.2       12 UNK         0.5000 
     73 O          -4.3703  -22.9005  -48.9584 O.2       12 UNK        -0.5000 
     74 N          -3.7976  -22.3267  -46.8445 N.am      13 UNK        -0.5000 
     75 CA         -4.5327  -23.3911  -46.1581 C.3       13 UNK         0.1400 
     76 CB         -4.4691  -23.1842  -44.6376 C.3       13 UNK        -0.1800 
     77 C          -4.0384  -24.7962  -46.5458 C.2       13 UNK         0.5000 
     78 O          -4.8586  -25.6502  -46.8882 O.2       13 UNK        -0.5000 
     79 N          -2.7101  -24.9870  -46.5321 N.am      14 UNK        -0.5000 
     80 CA         -2.0350  -26.2154  -46.9564 C.3       14 UNK         0.1400 
     81 CB         -0.5341  -26.1125  -46.6466 C.3       14 UNK        -0.1800 
     82 C          -2.2666  -26.5454  -48.4428 C.2       14 UNK         0.5000 
     83 O          -2.4784  -27.7110  -48.7808 O.2       14 UNK        -0.5000 
     84 N          -2.2869  -25.5141  -49.2969 N.am      15 UNK        -0.5000 
     85 CA         -2.6309  -25.5733  -50.7184 C.3       15 UNK         0.1400 
     86 CB         -2.0342  -24.3445  -51.4257 C.3       15 UNK        -0.1800 
     87 C          -4.1527  -25.7083  -50.9510 C.2       15 UNK         0.5000 
     88 O          -4.7391  -24.9163  -51.6908 O.2       15 UNK        -0.5000 
     89 N          -4.7555  -26.7202  -50.3101 N.am      16 UNK        -0.5000 
     90 CA         -6.1448  -27.1724  -50.4251 C.3       16 UNK         0.1400 
     91 CB         -6.3248  -27.9618  -51.7372 C.3       16 UNK        -0.1800 
     92 C          -7.1930  -26.0542  -50.2395 C.2       16 UNK         0.5000 
     93 O          -8.1506  -25.9758  -51.0113 O.2       16 UNK        -0.5000 
     94 N          -6.9861  -25.2170  -49.2113 N.am      17 UNK        -0.5000 
     95 CA         -7.8124  -24.0622  -48.8423 C.3       17 UNK         0.1400 
     96 CB         -9.1975  -24.5162  -48.3351 C.3       17 UNK        -0.1800 
     97 C          -7.8876  -23.0077  -49.9672 C.2       17 UNK         0.5000 
     98 O          -8.9741  -22.6710  -50.4424 O.2       17 UNK        -0.5000 
     99 N          -6.7074  -22.5096  -50.3540 N.am      18 UNK        -0.5000 
    100 CA        -6.4433  -21.4810  -51.3596 C.3       18 UNK         0.1400 
    101 CB        -7.0433  -20.1240  -50.9341 C.3       18 UNK        -0.1800 
    102 C         -6.8553  -21.9095  -52.7801 C.2       18 UNK         0.5000 
    103 O         -7.4888  -21.1363  -53.5027 O.2       18 UNK        -0.5000 
    104 N         -6.4781  -23.1353  -53.1701 N.am      19 UNK        -0.5000 
    105 CA        -6.6144  -23.6399  -54.5345 C.3       19 UNK         0.1400 
    106 CB        -6.4910  -25.1714  -54.5351 C.3       19 UNK        -0.1800 
    107 C         -5.5512  -22.9707  -55.4222 C.2       19 UNK         0.5000 
    108 O         -4.3953  -23.3988  -55.4297 O.2       19 UNK        -0.5000 
    109 N         -5.9502  -21.8744  -56.0797 N.am      20 UNK        -0.5000 
    110 CA        -5.1535  -20.9287  -56.8715 C.3       20 UNK         0.1400 
    111 CB        -4.4205  -21.6194  -58.0376 C.3       20 UNK        -0.1800 
    112 C         -4.1926  -20.0675  -56.0274 C.2       20 UNK         0.5000 
    113 O         -4.1732  -18.8492  -56.2077 O.2       20 UNK        -0.5000 
    114 N         -3.4397  -20.6994  -55.1163 N.am      21 UNK        -0.5000 
    115 CA        -2.4902  -20.0966  -54.1781 C.3       21 UNK         0.1400 
    116 CB        -1.8268  -21.2180  -53.3614 C.3       21 UNK        -0.1800 
    117 C         -3.1607  -19.0589  -53.2578 C.2       21 UNK         0.5000 
    118 O         -3.7603  -19.4316  -52.2484 O.2       21 UNK        -0.5000 
    119 N         -3.0694  -17.7835  -53.6539 N.am      22 UNK        -0.5000 
    120 CA        -3.7419  -16.6306  -53.0290 C.3       22 UNK         0.1400 
    121 C         -5.2989  -16.6865  -53.1195 C.2       22 UNK         0.5000 
    122 N         -5.8650  -17.3641  -54.1120 N.am      22 UNK        -0.7600 
    123 O         -6.0035  -16.0908  -52.3090 O.2       22 UNK        -0.5000 
    124 C124       -3.2120  -16.3069  -51.6033 C.3       23 UNK        -0.0398 
    125 S125       -1.4242  -15.9326  -51.6137 S.3       23 UNK        -0.2404 
    126 C126       -0.7578  -17.3574  -50.6905 C.3       23 UNK        -0.0205 
    127 H127        1.0464  -10.9436  -51.5708 H         1 UNK         0.0600 
    128 H128        1.4662  -12.3751  -52.5176 H         1 UNK         0.0600 
    129 H129        2.6786  -11.1255  -52.2216 H         1 UNK         0.0600 
    130 H130        4.1179  -11.6737  -50.6475 H         1 UNK         0.3000 
    131 H131        5.2060  -12.5659  -49.0025 H         1 UNK         0.0600 
    132 H132        4.5393  -14.8064  -47.9796 H         1 UNK         0.0800 
    133 H133        3.1273  -14.8138  -48.9934 H         1 UNK         0.0800 
    134 H134        3.3899  -14.6583  -51.8032 H         1 UNK         0.0800 
    135 H135        4.4828  -15.8600  -52.4251 H         1 UNK         0.0800 
    136 H136        1.2430  -15.4819  -51.2560 H         1 UNK         0.1150 
    137 H137        0.6195  -19.5951  -50.2542 H         1 UNK         0.1150 
    138 H138        4.5967  -18.1002  -50.8609 H         1 UNK         0.1150 
    139 H139        3.8309  -20.7163  -51.0615 H         1 UNK         0.0800 
    140 H140        4.1199  -20.1956  -49.4199 H         1 UNK         0.0800 
    141 H141        1.3463  -19.9777  -48.0516 H         1 UNK         0.0800 
    142 H142        2.5929  -20.9330  -47.3068 H         1 UNK         0.0800 
    143 H143        1.0625  -22.8618  -47.1026 H         1 UNK         0.0600 
    144 H144        0.7075  -20.4385  -45.6699 H         1 UNK         0.3000 
    145 H145       -1.5636  -21.7190  -43.2157 H         1 UNK         0.0600 
    146 H146        0.1813  -20.9006  -41.7414 H         1 UNK         0.0600 
    147 H147        0.8115  -22.3117  -42.5690 H         1 UNK         0.0600 
    148 H148        1.3225  -20.7040  -43.0740 H         1 UNK         0.0600 
    149 H149       -0.3725  -19.1341  -43.7677 H         1 UNK         0.3000 
    150 H150       -3.0589  -17.8763  -45.7190 H         1 UNK         0.0600 
    151 H151       -4.0162  -17.5766  -43.5227 H         1 UNK         0.0600 
    152 H152       -3.0260  -16.1625  -43.8455 H         1 UNK         0.0600 
    153 H153       -2.4465  -17.4330  -42.7604 H         1 UNK         0.0600 
    154 H154       -0.6372  -16.7485  -44.5895 H         1 UNK         0.3000 
    155 H155        1.2335  -17.2787  -47.6294 H         1 UNK         0.0600 
    156 H156       -0.0606  -14.7821  -46.4263 H         1 UNK         0.0600 
    157 H157       -0.3046  -15.3714  -48.0681 H         1 UNK         0.0600 
    158 H158        1.2806  -14.8170  -47.5679 H         1 UNK         0.0600 
    159 H159        2.1062  -15.8011  -45.4796 H         1 UNK         0.3000 
    160 H160        4.1551  -18.5003  -44.3838 H         1 UNK         0.0600 
    161 H161        4.0937  -15.4645  -44.7744 H         1 UNK         0.0600 
    162 H162        4.6606  -16.6060  -45.9875 H         1 UNK         0.0600 
    163 H163        5.4938  -16.4718  -44.4504 H         1 UNK         0.0600 
    164 H164        2.3577  -16.9435  -42.7340 H         1 UNK         0.3000 
    165 H165        3.9666  -18.0918  -39.8550 H         1 UNK         0.0600 
    166 H166        4.0140  -15.7667  -38.9114 H         1 UNK         0.0600 
    167 H167        5.4364  -16.1394  -39.8744 H         1 UNK         0.0600 
    168 H168        4.1718  -15.1262  -40.5461 H         1 UNK         0.0600 
    169 H169        1.8502  -16.1453  -40.3955 H         1 UNK         0.3000 
    170 H170       -0.5922  -18.4659  -41.1554 H         1 UNK         0.0600 
    171 H171       -0.4092  -17.5854  -38.2256 H         1 UNK         0.0600 
    172 H172       -1.8789  -18.0757  -39.0703 H         1 UNK         0.0600 
    173 H173       -0.6001  -19.2432  -38.7836 H         1 UNK         0.0600 
    174 H174       -0.9109  -15.9044  -39.9543 H         1 UNK         0.3000 
    175 H175       -1.4868  -14.3591  -42.8243 H         1 UNK         0.0600 
    176 H176       -1.7988  -12.7898  -40.9246 H         1 UNK         0.0600 
    177 H177       -0.7876  -13.7860  -39.8883 H         1 UNK         0.0600 
    178 H178       -2.3331  -14.3981  -40.4835 H         1 UNK         0.0600 
    179 H179        0.1921  -12.9833  -43.2733 H         1 UNK         0.3000 
    180 H180        2.5392  -11.4980  -41.8232 H         1 UNK         0.0600 
    181 H181        4.3681  -13.0288  -41.4948 H         1 UNK         0.0600 
    182 H182        4.6386  -12.2798  -43.0563 H         1 UNK         0.0600 
    183 H183        4.0048  -13.9228  -42.9659 H         1 UNK         0.0600 
    184 H184        1.9739  -10.8848  -43.8503 H         1 UNK         0.3000 
    185 H185        0.5719  -12.0158  -46.3848 H         1 UNK         0.0600 
    186 H186        1.0823   -9.8654  -45.2931 H         1 UNK         0.0600 
    187 H187        2.7671   -9.9494  -45.8108 H         1 UNK         0.0600 
    188 H188        1.4801   -9.7536  -46.9937 H         1 UNK         0.0600 
    189 H189        1.7662  -12.5940  -48.1553 H         1 UNK         0.3000 
    190 H190       -1.2998  -20.1565  -47.6052 H         1 UNK         0.3000 
    191 H191       -2.6606  -21.2980  -49.7934 H         1 UNK         0.0600 
    192 H192       -2.9132  -18.9349  -49.1305 H         1 UNK         0.0600 
    193 H193       -4.4801  -19.7180  -49.1753 H         1 UNK         0.0600 
    194 H194       -3.7041  -19.4048  -47.6259 H         1 UNK         0.0600 
    195 H195       -3.3041  -21.6630  -46.2545 H         1 UNK         0.3000 
    196 H196       -5.5783  -23.3137  -46.4582 H         1 UNK         0.0600 
    197 H197       -5.0101  -23.9726  -44.1128 H         1 UNK         0.0600 
    198 H198       -4.9218  -22.2350  -44.3510 H         1 UNK         0.0600 
    199 H199       -3.4430  -23.1893  -44.2703 H         1 UNK         0.0600 
    200 H200       -2.1109  -24.2298  -46.2153 H         1 UNK         0.3000 
    201 H201       -2.4473  -27.0377  -46.3683 H         1 UNK         0.0600 
    202 H202       -0.3617  -25.9588  -45.5812 H         1 UNK         0.0600 
    203 H203       -0.0676  -25.2855  -47.1824 H         1 UNK         0.0600 
    204 H204       -0.0120  -27.0264  -46.9327 H         1 UNK         0.0600 
    205 H205       -2.0594  -24.5909  -48.9381 H         1 UNK         0.3000 
    206 H206       -2.1635  -26.4602  -51.1505 H         1 UNK         0.0600 
    207 H207       -0.9536  -24.2956  -51.2911 H         1 UNK         0.0600 
    208 H208       -2.2278  -24.3736  -52.4987 H         1 UNK         0.0600 
    209 H209       -2.4607  -23.4199  -51.0369 H         1 UNK         0.0600 
    210 H210       -4.1641  -27.2781  -49.7018 H         1 UNK         0.3000 
    211 H211       -6.3065  -27.8689  -49.6012 H         1 UNK         0.0600 
    212 H212       -6.1504  -27.3347  -52.6103 H         1 UNK         0.0600 
    213 H213       -7.3325  -28.3710  -51.8192 H         1 UNK         0.0600 
    214 H214       -5.6317  -28.8015  -51.7879 H         1 UNK         0.0600 
    215 H215       -6.1566  -25.3607  -48.6459 H         1 UNK         0.3000 
    216 H216       -7.3075  -23.5788  -48.0061 H         1 UNK         0.0600 
    217 H217       -9.7730  -23.6665  -47.9662 H         1 UNK         0.0600 
    218 H218       -9.1022  -25.2251  -47.5126 H         1 UNK         0.0600 
    219 H219       -9.7860  -24.9910  -49.1205 H         1 UNK         0.0600 
    220 H220       -5.8692  -22.8675  -49.8955 H         1 UNK         0.3000 
    221 H221       -5.3590  -21.3668  -51.3817 H         1 UNK         0.0600 
    222 H222       -8.1329  -20.1316  -50.9717 H         1 UNK         0.0600 
    223 H223       -6.7460  -19.8582  -49.9203 H         1 UNK         0.0600 
    224 H224       -6.6979  -19.3260  -51.5930 H         1 UNK         0.0600 
    225 H225       -5.9315  -23.7133  -52.5341 H         1 UNK         0.3000 
    226 H226       -7.6077  -23.3877  -54.9120 H         1 UNK         0.0600 
    227 H227       -7.2553  -25.6237  -53.9031 H         1 UNK         0.0600 
    228 H228       -6.6201  -25.5709  -55.5415 H         1 UNK         0.0600 
    229 H229       -5.5166  -25.5021  -54.1747 H         1 UNK         0.0600 
    230 H230       -6.9027  -21.5749  -55.9159 H         1 UNK         0.3000 
    231 H231       -5.8780  -20.2416  -57.3115 H         1 UNK         0.0600 
    232 H232       -3.6392  -22.2961  -57.6912 H         1 UNK         0.0600 
    233 H233       -3.9439  -20.8816  -58.6842 H         1 UNK         0.0600 
    234 H234       -5.1127  -22.1928  -58.6541 H         1 UNK         0.0600 
    235 H235       -3.5571  -21.7064  -55.0534 H         1 UNK         0.3000 
    236 H236       -1.7123  -19.5970  -54.7587 H         1 UNK         0.0600 
    237 H237       -1.2732  -21.9027  -54.0040 H         1 UNK         0.0600 
    238 H238       -1.1234  -20.8116  -52.6331 H         1 UNK         0.0600 
    239 H239       -2.5685  -21.7999  -52.8136 H         1 UNK         0.0600 
    240 H240       -2.5995  -17.5865  -54.5259 H         1 UNK         0.3000 
    241 H241       -3.4809  -15.7775  -53.6560 H         1 UNK         0.0600 
    242 H242       -5.2913  -17.8339  -54.8027 H         1 UNK         0.3800 
    243 H243       -6.8693  -17.3998  -54.1810 H         1 UNK         0.3800 
    244 H244       -3.7171  -15.4283  -51.1994 H         1 UNK         0.0800 
    245 H245       -3.4299  -17.1221  -50.9122 H         1 UNK         0.0800 
    246 H246       -1.0575  -17.2625  -49.6476 H         1 UNK         0.0800 
    247 H247       -1.2305  -18.2647  -51.0693 H         1 UNK         0.0800 
@<TRIPOS>BOND
     1    1    2 1    
     2    1  127 1    
     3    1  128 1    
     4    1  129 1    
     5    2    3 2    
     6    2    4 am   BACKBONE|DICT|INTERRES
     7    4    5 1    
     8    4  130 1    
     9    5    6 1    
    10    5   65 1    
    11    5  131 1    
    12    6    7 1    
    13    6  132 1    
    14    6  133 1    
    15    7    8 1    
    16    8    9 1    
    17    8  134 1    
    18    8  135 1    
    19    9   10 ar   
    20    9   14 ar   
    21   10   11 ar   
    22   10  136 1    
    23   11   12 ar   
    24   11  126 1    
    25   12   13 ar   
    26   12  137 1    
    27   13   14 ar   
    28   13   15 1    
    29   14  138 1    
    30   15   16 1    
    31   15  139 1    
    32   15  140 1    
    33   16   17 1    
    34   17   18 1    
    35   17  141 1    
    36   17  142 1    
    37   18   19 1    
    38   18   67 1    
    39   18  143 1    
    40   19   20 am   BACKBONE|DICT|INTERRES
    41   19  144 1    
    42   20   21 2    
    43   20   22 1    
    44   22   23 1    
    45   22   24 1    
    46   22  145 1    
    47   23  146 1    
    48   23  147 1    
    49   23  148 1    
    50   24   25 am   BACKBONE|DICT|INTERRES
    51   24  149 1    
    52   25   26 2    
    53   25   27 1    
    54   27   28 1    
    55   27   29 1    
    56   27  150 1    
    57   28  151 1    
    58   28  152 1    
    59   28  153 1    
    60   29   30 am   BACKBONE|DICT|INTERRES
    61   29  154 1    
    62   30   31 2    
    63   30   32 1    
    64   32   33 1    
    65   32   34 1    
    66   32  155 1    
    67   33  156 1    
    68   33  157 1    
    69   33  158 1    
    70   34   35 am   BACKBONE|DICT|INTERRES
    71   34  159 1    
    72   35   36 2    
    73   35   37 1    
    74   37   38 1    
    75   37   39 1    
    76   37  160 1    
    77   38  161 1    
    78   38  162 1    
    79   38  163 1    
    80   39   40 am   BACKBONE|DICT|INTERRES
    81   39  164 1    
    82   40   41 2    
    83   40   42 1    
    84   42   43 1    
    85   42   44 1    
    86   42  165 1    
    87   43  166 1    
    88   43  167 1    
    89   43  168 1    
    90   44   45 am   BACKBONE|DICT|INTERRES
    91   44  169 1    
    92   45   46 2    
    93   45   47 1    
    94   47   48 1    
    95   47   49 1    
    96   47  170 1    
    97   48  171 1    
    98   48  172 1    
    99   48  173 1    
   100   49   50 am   BACKBONE|DICT|INTERRES
   101   49  174 1    
   102   50   51 2    
   103   50   52 1    
   104   52   53 1    
   105   52   54 1    
   106   52  175 1    
   107   53  176 1    
   108   53  177 1    
   109   53  178 1    
   110   54   55 am   BACKBONE|DICT|INTERRES
   111   54  179 1    
   112   55   56 2    
   113   55   57 1    
   114   57   58 1    
   115   57   59 1    
   116   57  180 1    
   117   58  181 1    
   118   58  182 1    
   119   58  183 1    
   120   59   60 am   BACKBONE|DICT|INTERRES
   121   59  184 1    
   122   60   61 2    
   123   60   62 1    
   124   62   63 1    
   125   62   64 1    
   126   62  185 1    
   127   63  186 1    
   128   63  187 1    
   129   63  188 1    
   130   64   65 am   BACKBONE|DICT|INTERRES
   131   64  189 1    
   132   65   66 2    
   133   67   68 2    
   134   67   69 am   BACKBONE|DICT|INTERRES
   135   69   70 1    
   136   69  190 1    
   137   70   71 1    
   138   70   72 1    
   139   70  191 1    
   140   71  192 1    
   141   71  193 1    
   142   71  194 1    
   143   72   73 2    
   144   72   74 am   BACKBONE|DICT|INTERRES
   145   74   75 1    
   146   74  195 1    
   147   75   76 1    
   148   75   77 1    
   149   75  196 1    
   150   76  197 1    
   151   76  198 1    
   152   76  199 1    
   153   77   78 2    
   154   77   79 am   BACKBONE|DICT|INTERRES
   155   79   80 1    
   156   79  200 1    
   157   80   81 1    
   158   80   82 1    
   159   80  201 1    
   160   81  202 1    
   161   81  203 1    
   162   81  204 1    
   163   82   83 2    
   164   82   84 am   BACKBONE|DICT|INTERRES
   165   84   85 1    
   166   84  205 1    
   167   85   86 1    
   168   85   87 1    
   169   85  206 1    
   170   86  207 1    
   171   86  208 1    
   172   86  209 1    
   173   87   88 2    
   174   87   89 am   BACKBONE|DICT|INTERRES
   175   89   90 1    
   176   89  210 1    
   177   90   91 1    
   178   90   92 1    
   179   90  211 1    
   180   91  212 1    
   181   91  213 1    
   182   91  214 1    
   183   92   93 2    
   184   92   94 am   BACKBONE|DICT|INTERRES
   185   94   95 1    
   186   94  215 1    
   187   95   96 1    
   188   95   97 1    
   189   95  216 1    
   190   96  217 1    
   191   96  218 1    
   192   96  219 1    
   193   97   98 2    
   194   97   99 am   BACKBONE|DICT|INTERRES
   195   99  100 1    
   196   99  220 1    
   197  100  101 1    
   198  100  102 1    
   199  100  221 1    
   200  101  222 1    
   201  101  223 1    
   202  101  224 1    
   203  102  103 2    
   204  102  104 am   BACKBONE|DICT|INTERRES
   205  104  105 1    
   206  104  225 1    
   207  105  106 1    
   208  105  107 1    
   209  105  226 1    
   210  106  227 1    
   211  106  228 1    
   212  106  229 1    
   213  107  108 2    
   214  107  109 am   BACKBONE|DICT|INTERRES
   215  109  110 1    
   216  109  230 1    
   217  110  111 1    
   218  110  112 1    
   219  110  231 1    
   220  111  232 1    
   221  111  233 1    
   222  111  234 1    
   223  112  113 2    
   224  112  114 am   BACKBONE|DICT|INTERRES
   225  114  115 1    
   226  114  235 1    
   227  115  116 1    
   228  115  117 1    
   229  115  236 1    
   230  116  237 1    
   231  116  238 1    
   232  116  239 1    
   233  117  118 2    
   234  117  119 am   BACKBONE|DICT|INTERRES
   235  119  120 1    
   236  119  240 1    
   237  120  121 1    
   238  120  124 1    
   239  120  241 1    
   240  121  122 am   BACKBONE|DICT|INTERRES
   241  121  123 2    
   242  122  242 1    
   243  122  243 1    
   244  124  125 1    
   245  124  244 1    
   246  124  245 1    
   247  125  126 1    
   248  126  246 1    
   249  126  247 1    
@<TRIPOS>SUBSTRUCTURE
     1 UNK         1 GROUP             0       ****    0 ROOT    
