@<TRIPOS>MOLECULE
3R540
247   249    1
SMALL
USER_CHARGES


@<TRIPOS>ATOM
      1 CA         -2.4606  -14.9881  -46.8736 C.3       0 UNK        -0.1800 
      2 C          -2.3527  -13.5603  -47.3821 C.2       0 UNK         0.5000 
      3 O          -2.4147  -12.6166  -46.5943 O.2       0 UNK        -0.5000 
      4 N          -2.1946  -13.4035  -48.7019 N.am      1 UNK        -0.5000 
      5 CA         -2.0970  -12.1114  -49.3958 C.3       1 UNK         0.1400 
      6 C6         -2.2730  -12.2406  -50.9328 C.3       23 UNK        -0.0398 
      7 S7         -3.7251  -13.2304  -51.4399 S.3       23 UNK        -0.2404 
      8 C8         -2.9473  -14.6808  -52.2280 C.3       23 UNK        -0.0205 
      9 C9         -2.2805  -15.5939  -51.2098 C.ar      23 UNK        -0.0193 
     10 C10        -0.9280  -15.4338  -50.8992 C.ar      23 UNK        -0.1150 
     11 C11        -0.3185  -16.2402  -49.9355 C.ar      23 UNK        -0.0193 
     12 C12        -1.0722  -17.2219  -49.2870 C.ar      23 UNK        -0.1150 
     13 C13        -2.4231  -17.4088  -49.6021 C.ar      23 UNK        -0.0193 
     14 C14        -3.0195  -16.5903  -50.5664 C.ar      23 UNK        -0.1150 
     15 C15        -3.2544  -18.4604  -48.8775 C.3       23 UNK        -0.0205 
     16 S16        -2.8490  -20.1525  -49.4161 S.3       23 UNK        -0.2404 
     17 C17        -1.3881  -20.4969  -48.3716 C.3       23 UNK        -0.0398 
     18 CA         -1.2512  -21.9325  -47.8063 C.3       11 UNK         0.1400 
     19 N          -0.1827  -21.9841  -46.8067 N.am      11 UNK        -0.5000 
     20 C           0.3127  -23.0978  -46.2520 C.2       10 UNK         0.5000 
     21 O          -0.0441  -24.2350  -46.5578 O.2       10 UNK        -0.5000 
     22 CA          1.3384  -22.8981  -45.1210 C.3       10 UNK         0.1400 
     23 CB          2.7141  -22.5119  -45.6844 C.3       10 UNK        -0.1800 
     24 N           0.9038  -21.8938  -44.1476 N.am      10 UNK        -0.5000 
     25 C          -0.1938  -22.0103  -43.3853 C.2       9 UNK         0.5000 
     26 O          -0.9305  -22.9960  -43.3921 O.2       9 UNK        -0.5000 
     27 CA         -0.5552  -20.8108  -42.4943 C.3       9 UNK         0.1400 
     28 CB          0.2627  -20.8362  -41.1946 C.3       9 UNK        -0.1800 
     29 N          -0.3678  -19.5271  -43.1687 N.am      9 UNK        -0.5000 
     30 C          -1.0464  -19.1196  -44.2506 C.2       8 UNK         0.5000 
     31 O          -1.9243  -19.7810  -44.8012 O.2       8 UNK        -0.5000 
     32 CA         -0.6307  -17.7702  -44.8585 C.3       8 UNK         0.1400 
     33 CB         -1.1328  -16.5960  -44.0038 C.3       8 UNK        -0.1800 
     34 N           0.8173  -17.6755  -45.0251 N.am      8 UNK        -0.5000 
     35 C           1.5480  -18.4625  -45.8274 C.2       7 UNK         0.5000 
     36 O           1.0713  -19.3291  -46.5603 O.2       7 UNK        -0.5000 
     37 CA          3.0722  -18.2733  -45.7673 C.3       7 UNK         0.1400 
     38 CB          3.5309  -17.2622  -46.8218 C.3       7 UNK        -0.1800 
     39 N           3.5266  -17.8416  -44.4441 N.am      7 UNK        -0.5000 
     40 C           3.5764  -18.6577  -43.3832 C.2       6 UNK         0.5000 
     41 O           3.2213  -19.8379  -43.4133 O.2       6 UNK        -0.5000 
     42 CA          4.0819  -18.0462  -42.0636 C.3       6 UNK         0.1400 
     43 CB          5.5686  -17.6695  -42.1659 C.3       6 UNK        -0.1800 
     44 N           3.3184  -16.8827  -41.6026 N.am      6 UNK        -0.5000 
     45 C           1.9989  -16.8593  -41.3684 C.2       5 UNK         0.5000 
     46 O           1.2418  -17.7866  -41.6423 O.2       5 UNK        -0.5000 
     47 CA          1.4070  -15.5969  -40.7133 C.3       5 UNK         0.1400 
     48 CB          1.0533  -15.8871  -39.2469 C.3       5 UNK        -0.1800 
     49 N           2.3056  -14.4401  -40.7542 N.am      5 UNK        -0.5000 
     50 C           2.4959  -13.5881  -41.7709 C.2       4 UNK         0.5000 
     51 O           3.2909  -12.6524  -41.6711 O.2       4 UNK        -0.5000 
     52 CA          1.6843  -13.7478  -43.0787 C.3       4 UNK         0.1400 
     53 CB          0.3569  -12.9765  -43.0006 C.3       4 UNK        -0.1800 
     54 N           2.4392  -13.2505  -44.2237 N.am      4 UNK        -0.5000 
     55 C           3.5017  -13.8602  -44.7628 C.2       3 UNK         0.5000 
     56 O           3.9084  -14.9649  -44.3924 O.2       3 UNK        -0.5000 
     57 CA          4.2195  -13.0914  -45.8971 C.3       3 UNK         0.1400 
     58 CB          5.0935  -13.9931  -46.7928 C.3       3 UNK        -0.1800 
     59 N           3.3338  -12.2588  -46.7270 N.am      3 UNK        -0.5000 
     60 C           2.2563  -12.6683  -47.4129 C.2       2 UNK         0.5000 
     61 O           1.8025  -13.8141  -47.3705 O.2       2 UNK        -0.5000 
     62 CA          1.5824  -11.6215  -48.3123 C.3       2 UNK         0.1400 
     63 CB          2.4081  -11.3812  -49.5898 C.3       2 UNK        -0.1800 
     64 N           0.2548  -12.1048  -48.6697 N.am      2 UNK        -0.5000 
     65 C          -0.7801  -11.3637  -49.0823 C.2       1 UNK         0.5000 
     66 O          -0.7273  -10.1418  -49.2297 O.2       1 UNK        -0.5000 
     67 C          -2.5691  -22.5169  -47.2494 C.2       11 UNK         0.5000 
     68 O          -3.1838  -23.3521  -47.9156 O.2       11 UNK        -0.5000 
     69 N          -2.9589  -22.1067  -46.0326 N.am      12 UNK        -0.5000 
     70 CA         -4.1522  -22.5773  -45.3241 C.3       12 UNK         0.1400 
     71 CB         -4.3388  -21.7855  -44.0222 C.3       12 UNK        -0.1800 
     72 C          -4.1478  -24.0895  -45.0466 C.2       12 UNK         0.5000 
     73 O          -5.1791  -24.7387  -45.2221 O.2       12 UNK        -0.5000 
     74 N          -2.9872  -24.6243  -44.6459 N.am      13 UNK        -0.5000 
     75 CA         -2.7681  -26.0553  -44.4436 C.3       13 UNK         0.1400 
     76 CB         -1.4296  -26.2680  -43.7201 C.3       13 UNK        -0.1800 
     77 C          -2.8060  -26.8530  -45.7603 C.2       13 UNK         0.5000 
     78 O          -3.3053  -27.9790  -45.7701 O.2       13 UNK        -0.5000 
     79 N          -2.2748  -26.2615  -46.8385 N.am      14 UNK        -0.5000 
     80 CA         -2.2082  -26.8652  -48.1649 C.3       14 UNK         0.1400 
     81 CB         -1.1688  -26.1241  -49.0184 C.3       14 UNK        -0.1800 
     82 C          -3.5736  -26.9248  -48.8721 C.2       14 UNK         0.5000 
     83 O          -3.9913  -28.0156  -49.2653 O.2       14 UNK        -0.5000 
     84 N          -4.2341  -25.7698  -49.0451 N.am      15 UNK        -0.5000 
     85 CA         -5.4606  -25.6591  -49.8468 C.3       15 UNK         0.1400 
     86 CB         -5.1182  -25.7848  -51.3434 C.3       15 UNK        -0.1800 
     87 C          -6.3121  -24.4011  -49.5860 C.2       15 UNK         0.5000 
     88 O          -7.4449  -24.3578  -50.0667 O.2       15 UNK        -0.5000 
     89 N          -5.7943  -23.4100  -48.8456 N.am      16 UNK        -0.5000 
     90 CA         -6.4849  -22.1850  -48.4198 C.3       16 UNK         0.1400 
     91 CB         -7.5914  -22.5164  -47.3954 C.3       16 UNK        -0.1800 
     92 C          -6.9901  -21.3212  -49.5930 C.2       16 UNK         0.5000 
     93 O          -8.1712  -20.9767  -49.6541 O.2       16 UNK        -0.5000 
     94 N          -6.0676  -20.9976  -50.5078 N.am      17 UNK        -0.5000 
     95 CA         -6.2180  -20.1201  -51.6755 C.3       17 UNK         0.1400 
     96 CB         -6.7260  -18.7171  -51.2834 C.3       17 UNK        -0.1800 
     97 C          -7.0252  -20.7142  -52.8471 C.2       17 UNK         0.5000 
     98 O          -7.0616  -20.0958  -53.9118 O.2       17 UNK        -0.5000 
     99 N          -7.5966  -21.9179  -52.6844 N.am      18 UNK        -0.5000 
    100 CA        -8.1050  -22.7376  -53.7935 C.3       18 UNK         0.1400 
    101 CB        -8.9394  -23.8972  -53.2302 C.3       18 UNK        -0.1800 
    102 C         -6.9521  -23.2707  -54.6715 C.2       18 UNK         0.5000 
    103 O         -7.1245  -23.4798  -55.8724 O.2       18 UNK        -0.5000 
    104 N         -5.7877  -23.4244  -54.0380 N.am      19 UNK        -0.5000 
    105 CA        -4.4631  -23.6266  -54.5955 C.3       19 UNK         0.1400 
    106 CB        -4.2488  -25.1123  -54.9403 C.3       19 UNK        -0.1800 
    107 C         -3.4755  -23.1124  -53.5305 C.2       19 UNK         0.5000 
    108 O         -3.9089  -22.6348  -52.4754 O.2       19 UNK        -0.5000 
    109 N         -2.1716  -23.2187  -53.8155 N.am      20 UNK        -0.5000 
    110 CA        -1.0472  -22.9113  -52.9163 C.3       20 UNK         0.1400 
    111 CB        -1.0912  -23.8100  -51.6623 C.3       20 UNK        -0.1800 
    112 C         -0.8843  -21.4203  -52.5442 C.2       20 UNK         0.5000 
    113 O         -0.0605  -21.1037  -51.6846 O.2       20 UNK        -0.5000 
    114 N         -1.6344  -20.5302  -53.2080 N.am      21 UNK        -0.5000 
    115 CA        -1.5253  -19.0802  -53.0687 C.3       21 UNK         0.1400 
    116 CB        -2.7206  -18.4137  -53.7664 C.3       21 UNK        -0.1800 
    117 C         -0.1972  -18.5675  -53.6523 C.2       21 UNK         0.5000 
    118 O          0.2427  -19.0554  -54.6972 O.2       21 UNK        -0.5000 
    119 N          0.4134  -17.6026  -52.9614 N.am      22 UNK        -0.5000 
    120 CA         1.7120  -17.0107  -53.3081 C.3       22 UNK         0.1400 
    121 C          1.6660  -16.1760  -54.6179 C.2       22 UNK         0.5000 
    122 N          2.7107  -16.2292  -55.4331 N.am      22 UNK        -0.7600 
    123 O          0.7127  -15.4449  -54.8778 O.2       22 UNK        -0.5000 
    124 C124        2.2856  -16.1589  -52.1473 C.3       23 UNK        -0.0398 
    125 S125        2.2880  -17.0343  -50.5422 S.3       23 UNK        -0.2404 
    126 C126        1.1392  -16.0193  -49.5601 C.3       23 UNK        -0.0205 
    127 H127       -3.1175  -15.5778  -47.5122 H         1 UNK         0.0600 
    128 H128       -2.8707  -15.0064  -45.8642 H         1 UNK         0.0600 
    129 H129       -1.4757  -15.4541  -46.8583 H         1 UNK         0.0600 
    130 H130       -2.1760  -14.2192  -49.2999 H         1 UNK         0.3000 
    131 H131       -2.9122  -11.4870  -49.0240 H         1 UNK         0.0600 
    132 H132       -2.3931  -11.2474  -51.3694 H         1 UNK         0.0800 
    133 H133       -1.3755  -12.6494  -51.3966 H         1 UNK         0.0800 
    134 H134       -2.2275  -14.3542  -52.9805 H         1 UNK         0.0800 
    135 H135       -3.7159  -15.2358  -52.7678 H         1 UNK         0.0800 
    136 H136       -0.3533  -14.6665  -51.3962 H         1 UNK         0.1150 
    137 H137       -0.6029  -17.8311  -48.5286 H         1 UNK         0.1150 
    138 H138       -4.0661  -16.7156  -50.8065 H         1 UNK         0.1150 
    139 H139       -3.1259  -18.3587  -47.7991 H         1 UNK         0.0800 
    140 H140       -4.3152  -18.2911  -49.0598 H         1 UNK         0.0800 
    141 H141       -1.3980  -19.7978  -47.5356 H         1 UNK         0.0800 
    142 H142       -0.4974  -20.2518  -48.9523 H         1 UNK         0.0800 
    143 H143       -0.9490  -22.5772  -48.6342 H         1 UNK         0.0600 
    144 H144        0.1944  -21.0877  -46.5126 H         1 UNK         0.3000 
    145 H145        1.4419  -23.8491  -44.5943 H         1 UNK         0.0600 
    146 H146        3.4539  -22.4188  -44.8891 H         1 UNK         0.0600 
    147 H147        3.0764  -23.2697  -46.3801 H         1 UNK         0.0600 
    148 H148        2.6799  -21.5639  -46.2212 H         1 UNK         0.0600 
    149 H149        1.4760  -21.0629  -44.0554 H         1 UNK         0.3000 
    150 H150       -1.6108  -20.8965  -42.2308 H         1 UNK         0.0600 
    151 H151        0.1374  -21.7847  -40.6709 H         1 UNK         0.0600 
    152 H152       -0.0545  -20.0450  -40.5151 H         1 UNK         0.0600 
    153 H153        1.3281  -20.7030  -41.3874 H         1 UNK         0.0600 
    154 H154        0.3241  -18.9046  -42.7560 H         1 UNK         0.3000 
    155 H155       -1.0858  -17.6938  -45.8481 H         1 UNK         0.0600 
    156 H156       -0.8267  -15.6385  -44.4250 H         1 UNK         0.0600 
    157 H157       -0.7596  -16.6446  -42.9818 H         1 UNK         0.0600 
    158 H158       -2.2220  -16.5964  -43.9502 H         1 UNK         0.0600 
    159 H159        1.3073  -17.0196  -44.4372 H         1 UNK         0.3000 
    160 H160        3.5401  -19.2329  -45.9965 H         1 UNK         0.0600 
    161 H161        3.0176  -16.3073  -46.7071 H         1 UNK         0.0600 
    162 H162        3.3211  -17.6319  -47.8249 H         1 UNK         0.0600 
    163 H163        4.6041  -17.0827  -46.7597 H         1 UNK         0.0600 
    164 H164        3.7990  -16.8659  -44.3442 H         1 UNK         0.3000 
    165 H165        3.9852  -18.8173  -41.2965 H         1 UNK         0.0600 
    166 H166        5.9671  -17.3723  -41.1957 H         1 UNK         0.0600 
    167 H167        6.1639  -18.5144  -42.5149 H         1 UNK         0.0600 
    168 H168        5.7296  -16.8440  -42.8607 H         1 UNK         0.0600 
    169 H169        3.8551  -16.0589  -41.3740 H         1 UNK         0.3000 
    170 H170        0.4755  -15.3608  -41.2284 H         1 UNK         0.0600 
    171 H171        0.3591  -16.7253  -39.1692 H         1 UNK         0.0600 
    172 H172        1.9376  -16.1387  -38.6600 H         1 UNK         0.0600 
    173 H173        0.5732  -15.0271  -38.7792 H         1 UNK         0.0600 
    174 H174        2.8396  -14.2864  -39.9114 H         1 UNK         0.3000 
    175 H175        1.4687  -14.7992  -43.2675 H         1 UNK         0.0600 
    176 H176       -0.2231  -13.0966  -43.9164 H         1 UNK         0.0600 
    177 H177       -0.2630  -13.3316  -42.1772 H         1 UNK         0.0600 
    178 H178        0.5213  -11.9092  -42.8468 H         1 UNK         0.0600 
    179 H179        2.1886  -12.3363  -44.5686 H         1 UNK         0.3000 
    180 H180        4.8926  -12.4016  -45.3862 H         1 UNK         0.0600 
    181 H181        5.7222  -13.3927  -47.4501 H         1 UNK         0.0600 
    182 H182        4.4909  -14.6440  -47.4244 H         1 UNK         0.0600 
    183 H183        5.7590  -14.6239  -46.2022 H         1 UNK         0.0600 
    184 H184        3.6141  -11.2918  -46.8153 H         1 UNK         0.3000 
    185 H185        1.4882  -10.6910  -47.7487 H         1 UNK         0.0600 
    186 H186        2.5129  -12.2955  -50.1755 H         1 UNK         0.0600 
    187 H187        1.9446  -10.6279  -50.2269 H         1 UNK         0.0600 
    188 H188        3.4115  -11.0270  -49.3510 H         1 UNK         0.0600 
    189 H189        0.1210  -13.0941  -48.5004 H         1 UNK         0.3000 
    190 H190       -2.4216  -21.3804  -45.5635 H         1 UNK         0.3000 
    191 H191       -5.0118  -22.3686  -45.9564 H         1 UNK         0.0600 
    192 H192       -3.4949  -21.9191  -43.3462 H         1 UNK         0.0600 
    193 H193       -5.2368  -22.1081  -43.4938 H         1 UNK         0.0600 
    194 H194       -4.4458  -20.7191  -44.2208 H         1 UNK         0.0600 
    195 H195       -2.1989  -24.0103  -44.4598 H         1 UNK         0.3000 
    196 H196       -3.5658  -26.4339  -43.8011 H         1 UNK         0.0600 
    197 H197       -1.2428  -27.3282  -43.5453 H         1 UNK         0.0600 
    198 H198       -1.4239  -25.7718  -42.7494 H         1 UNK         0.0600 
    199 H199       -0.5927  -25.8765  -44.2996 H         1 UNK         0.0600 
    200 H200       -1.8435  -25.3503  -46.7325 H         1 UNK         0.3000 
    201 H201       -1.8568  -27.8928  -48.0484 H         1 UNK         0.0600 
    202 H202       -0.1712  -26.2161  -48.5889 H         1 UNK         0.0600 
    203 H203       -1.3976  -25.0621  -49.0972 H         1 UNK         0.0600 
    204 H204       -1.1268  -26.5323  -50.0288 H         1 UNK         0.0600 
    205 H205       -3.8335  -24.9153  -48.6670 H         1 UNK         0.3000 
    206 H206       -6.1113  -26.4946  -49.5801 H         1 UNK         0.0600 
    207 H207       -4.7885  -26.7929  -51.5936 H         1 UNK         0.0600 
    208 H208       -5.9781  -25.5668  -51.9779 H         1 UNK         0.0600 
    209 H209       -4.3175  -25.1004  -51.6159 H         1 UNK         0.0600 
    210 H210       -4.8328  -23.4865  -48.5223 H         1 UNK         0.3000 
    211 H211       -5.7377  -21.5717  -47.9160 H         1 UNK         0.0600 
    212 H212       -8.4110  -23.0735  -47.8503 H         1 UNK         0.0600 
    213 H213       -8.0130  -21.6056  -46.9688 H         1 UNK         0.0600 
    214 H214       -7.2050  -23.1137  -46.5699 H         1 UNK         0.0600 
    215 H215       -5.1379  -21.3819  -50.3933 H         1 UNK         0.3000 
    216 H216       -5.2032  -19.9982  -52.0556 H         1 UNK         0.0600 
    217 H217       -6.6402  -18.0253  -52.1222 H         1 UNK         0.0600 
    218 H218       -6.1490  -18.2982  -50.4611 H         1 UNK         0.0600 
    219 H219       -7.7742  -18.7322  -50.9844 H         1 UNK         0.0600 
    220 H220       -7.5639  -22.3501  -51.7707 H         1 UNK         0.3000 
    221 H221       -8.7510  -22.1184  -54.4192 H         1 UNK         0.0600 
    222 H222       -8.3343  -24.5731  -52.6253 H         1 UNK         0.0600 
    223 H223       -9.7566  -23.5311  -52.6086 H         1 UNK         0.0600 
    224 H224       -9.3803  -24.4856  -54.0358 H         1 UNK         0.0600 
    225 H225       -5.7452  -23.1671  -53.0587 H         1 UNK         0.3000 
    226 H226       -4.3534  -23.0148  -55.4929 H         1 UNK         0.0600 
    227 H227       -5.0078  -25.4692  -55.6365 H         1 UNK         0.0600 
    228 H228       -3.2802  -25.2724  -55.4143 H         1 UNK         0.0600 
    229 H229       -4.2884  -25.7446  -54.0540 H         1 UNK         0.0600 
    230 H230       -1.9082  -23.5945  -54.7160 H         1 UNK         0.3000 
    231 H231       -0.1460  -23.1744  -53.4718 H         1 UNK         0.0600 
    232 H232       -1.2067  -24.8593  -51.9329 H         1 UNK         0.0600 
    233 H233       -1.9143  -23.5409  -50.9992 H         1 UNK         0.0600 
    234 H234       -0.1702  -23.7241  -51.0846 H         1 UNK         0.0600 
    235 H235       -2.2657  -20.8739  -53.9143 H         1 UNK         0.3000 
    236 H236       -1.5625  -18.8372  -52.0049 H         1 UNK         0.0600 
    237 H237       -2.6476  -17.3275  -53.7099 H         1 UNK         0.0600 
    238 H238       -2.7723  -18.6825  -54.8221 H         1 UNK         0.0600 
    239 H239       -3.6616  -18.6995  -53.2981 H         1 UNK         0.0600 
    240 H240       -0.0119  -17.2559  -52.1132 H         1 UNK         0.3000 
    241 H241        2.3980  -17.8449  -53.4694 H         1 UNK         0.0600 
    242 H242        2.6992  -15.6794  -56.2783 H         1 UNK         0.3800 
    243 H243        3.5074  -16.8161  -55.2381 H         1 UNK         0.3800 
    244 H244        3.3177  -15.8825  -52.3689 H         1 UNK         0.0800 
    245 H245        1.7466  -15.2163  -52.0542 H         1 UNK         0.0800 
    246 H246        1.2785  -16.2540  -48.5042 H         1 UNK         0.0800 
    247 H247        1.4038  -14.9676  -49.6721 H         1 UNK         0.0800 
@<TRIPOS>BOND
     1    1    2 1    
     2    1  127 1    
     3    1  128 1    
     4    1  129 1    
     5    2    3 2    
     6    2    4 am   BACKBONE|DICT|INTERRES
     7    4    5 1    
     8    4  130 1    
     9    5    6 1    
    10    5   65 1    
    11    5  131 1    
    12    6    7 1    
    13    6  132 1    
    14    6  133 1    
    15    7    8 1    
    16    8    9 1    
    17    8  134 1    
    18    8  135 1    
    19    9   10 ar   
    20    9   14 ar   
    21   10   11 ar   
    22   10  136 1    
    23   11   12 ar   
    24   11  126 1    
    25   12   13 ar   
    26   12  137 1    
    27   13   14 ar   
    28   13   15 1    
    29   14  138 1    
    30   15   16 1    
    31   15  139 1    
    32   15  140 1    
    33   16   17 1    
    34   17   18 1    
    35   17  141 1    
    36   17  142 1    
    37   18   19 1    
    38   18   67 1    
    39   18  143 1    
    40   19   20 am   BACKBONE|DICT|INTERRES
    41   19  144 1    
    42   20   21 2    
    43   20   22 1    
    44   22   23 1    
    45   22   24 1    
    46   22  145 1    
    47   23  146 1    
    48   23  147 1    
    49   23  148 1    
    50   24   25 am   BACKBONE|DICT|INTERRES
    51   24  149 1    
    52   25   26 2    
    53   25   27 1    
    54   27   28 1    
    55   27   29 1    
    56   27  150 1    
    57   28  151 1    
    58   28  152 1    
    59   28  153 1    
    60   29   30 am   BACKBONE|DICT|INTERRES
    61   29  154 1    
    62   30   31 2    
    63   30   32 1    
    64   32   33 1    
    65   32   34 1    
    66   32  155 1    
    67   33  156 1    
    68   33  157 1    
    69   33  158 1    
    70   34   35 am   BACKBONE|DICT|INTERRES
    71   34  159 1    
    72   35   36 2    
    73   35   37 1    
    74   37   38 1    
    75   37   39 1    
    76   37  160 1    
    77   38  161 1    
    78   38  162 1    
    79   38  163 1    
    80   39   40 am   BACKBONE|DICT|INTERRES
    81   39  164 1    
    82   40   41 2    
    83   40   42 1    
    84   42   43 1    
    85   42   44 1    
    86   42  165 1    
    87   43  166 1    
    88   43  167 1    
    89   43  168 1    
    90   44   45 am   BACKBONE|DICT|INTERRES
    91   44  169 1    
    92   45   46 2    
    93   45   47 1    
    94   47   48 1    
    95   47   49 1    
    96   47  170 1    
    97   48  171 1    
    98   48  172 1    
    99   48  173 1    
   100   49   50 am   BACKBONE|DICT|INTERRES
   101   49  174 1    
   102   50   51 2    
   103   50   52 1    
   104   52   53 1    
   105   52   54 1    
   106   52  175 1    
   107   53  176 1    
   108   53  177 1    
   109   53  178 1    
   110   54   55 am   BACKBONE|DICT|INTERRES
   111   54  179 1    
   112   55   56 2    
   113   55   57 1    
   114   57   58 1    
   115   57   59 1    
   116   57  180 1    
   117   58  181 1    
   118   58  182 1    
   119   58  183 1    
   120   59   60 am   BACKBONE|DICT|INTERRES
   121   59  184 1    
   122   60   61 2    
   123   60   62 1    
   124   62   63 1    
   125   62   64 1    
   126   62  185 1    
   127   63  186 1    
   128   63  187 1    
   129   63  188 1    
   130   64   65 am   BACKBONE|DICT|INTERRES
   131   64  189 1    
   132   65   66 2    
   133   67   68 2    
   134   67   69 am   BACKBONE|DICT|INTERRES
   135   69   70 1    
   136   69  190 1    
   137   70   71 1    
   138   70   72 1    
   139   70  191 1    
   140   71  192 1    
   141   71  193 1    
   142   71  194 1    
   143   72   73 2    
   144   72   74 am   BACKBONE|DICT|INTERRES
   145   74   75 1    
   146   74  195 1    
   147   75   76 1    
   148   75   77 1    
   149   75  196 1    
   150   76  197 1    
   151   76  198 1    
   152   76  199 1    
   153   77   78 2    
   154   77   79 am   BACKBONE|DICT|INTERRES
   155   79   80 1    
   156   79  200 1    
   157   80   81 1    
   158   80   82 1    
   159   80  201 1    
   160   81  202 1    
   161   81  203 1    
   162   81  204 1    
   163   82   83 2    
   164   82   84 am   BACKBONE|DICT|INTERRES
   165   84   85 1    
   166   84  205 1    
   167   85   86 1    
   168   85   87 1    
   169   85  206 1    
   170   86  207 1    
   171   86  208 1    
   172   86  209 1    
   173   87   88 2    
   174   87   89 am   BACKBONE|DICT|INTERRES
   175   89   90 1    
   176   89  210 1    
   177   90   91 1    
   178   90   92 1    
   179   90  211 1    
   180   91  212 1    
   181   91  213 1    
   182   91  214 1    
   183   92   93 2    
   184   92   94 am   BACKBONE|DICT|INTERRES
   185   94   95 1    
   186   94  215 1    
   187   95   96 1    
   188   95   97 1    
   189   95  216 1    
   190   96  217 1    
   191   96  218 1    
   192   96  219 1    
   193   97   98 2    
   194   97   99 am   BACKBONE|DICT|INTERRES
   195   99  100 1    
   196   99  220 1    
   197  100  101 1    
   198  100  102 1    
   199  100  221 1    
   200  101  222 1    
   201  101  223 1    
   202  101  224 1    
   203  102  103 2    
   204  102  104 am   BACKBONE|DICT|INTERRES
   205  104  105 1    
   206  104  225 1    
   207  105  106 1    
   208  105  107 1    
   209  105  226 1    
   210  106  227 1    
   211  106  228 1    
   212  106  229 1    
   213  107  108 2    
   214  107  109 am   BACKBONE|DICT|INTERRES
   215  109  110 1    
   216  109  230 1    
   217  110  111 1    
   218  110  112 1    
   219  110  231 1    
   220  111  232 1    
   221  111  233 1    
   222  111  234 1    
   223  112  113 2    
   224  112  114 am   BACKBONE|DICT|INTERRES
   225  114  115 1    
   226  114  235 1    
   227  115  116 1    
   228  115  117 1    
   229  115  236 1    
   230  116  237 1    
   231  116  238 1    
   232  116  239 1    
   233  117  118 2    
   234  117  119 am   BACKBONE|DICT|INTERRES
   235  119  120 1    
   236  119  240 1    
   237  120  121 1    
   238  120  124 1    
   239  120  241 1    
   240  121  122 am   BACKBONE|DICT|INTERRES
   241  121  123 2    
   242  122  242 1    
   243  122  243 1    
   244  124  125 1    
   245  124  244 1    
   246  124  245 1    
   247  125  126 1    
   248  126  246 1    
   249  126  247 1    
@<TRIPOS>SUBSTRUCTURE
     1 UNK         1 GROUP             0       ****    0 ROOT    
