@<TRIPOS>MOLECULE
3R540
247   249    1
SMALL
USER_CHARGES


@<TRIPOS>ATOM
      1 CA         -4.7215  -11.1799  -48.5160 C.3       0 UNK        -0.1800 
      2 C          -3.5153  -11.9231  -47.9616 C.2       0 UNK         0.5000 
      3 O          -2.8709  -11.4391  -47.0319 O.2       0 UNK        -0.5000 
      4 N          -3.2183  -13.1079  -48.5139 N.am      1 UNK        -0.5000 
      5 CA         -2.0776  -13.9647  -48.1517 C.3       1 UNK         0.1400 
      6 C6         -1.9855  -15.1830  -49.0995 C.3       23 UNK        -0.0398 
      7 S7         -0.3008  -15.8565  -49.2648 S.3       23 UNK        -0.2404 
      8 C8         -0.5836  -17.6277  -48.9539 C.3       23 UNK        -0.0205 
      9 C9          0.4824  -18.4604  -49.6443 C.ar      23 UNK        -0.0193 
     10 C10         0.3496  -18.7628  -51.0011 C.ar      23 UNK        -0.1150 
     11 C11         1.3348  -19.4911  -51.6706 C.ar      23 UNK        -0.0193 
     12 C12         2.4642  -19.9227  -50.9649 C.ar      23 UNK        -0.1150 
     13 C13         2.6065  -19.6354  -49.6023 C.ar      23 UNK        -0.0193 
     14 C14         1.6091  -18.9042  -48.9474 C.ar      23 UNK        -0.1150 
     15 C15         3.8542  -20.0714  -48.8401 C.3       23 UNK        -0.0205 
     16 S16         4.0931  -21.8790  -48.7728 S.3       23 UNK        -0.2404 
     17 C17         2.4645  -22.4938  -48.2277 C.3       23 UNK        -0.0398 
     18 CA          2.5530  -23.5871  -47.1377 C.3       11 UNK         0.1400 
     19 N           3.0347  -23.0572  -45.8568 N.am      11 UNK        -0.5000 
     20 C           3.6452  -23.7988  -44.9236 C.2       10 UNK         0.5000 
     21 O           3.9020  -24.9958  -45.0604 O.2       10 UNK        -0.5000 
     22 CA          4.0130  -23.0940  -43.6063 C.3       10 UNK         0.1400 
     23 CB          5.2764  -22.2383  -43.7846 C.3       10 UNK        -0.1800 
     24 N           2.9266  -22.2750  -43.0618 N.am      10 UNK        -0.5000 
     25 C           1.7546  -22.7577  -42.6216 C.2       9 UNK         0.5000 
     26 O           1.4495  -23.9497  -42.6552 O.2       9 UNK        -0.5000 
     27 CA          0.7443  -21.7430  -42.0558 C.3       9 UNK         0.1400 
     28 CB          1.1117  -21.3590  -40.6146 C.3       9 UNK        -0.1800 
     29 N           0.6362  -20.5377  -42.8758 N.am      9 UNK        -0.5000 
     30 C           0.0984  -20.5047  -44.1029 C.2       8 UNK         0.5000 
     31 O          -0.4309  -21.4762  -44.6405 O.2       8 UNK        -0.5000 
     32 CA          0.2155  -19.1835  -44.8857 C.3       8 UNK         0.1400 
     33 CB         -0.8976  -18.2011  -44.4917 C.3       8 UNK        -0.1800 
     34 N           1.5160  -18.5382  -44.7159 N.am      8 UNK        -0.5000 
     35 C           2.6926  -19.0907  -45.0409 C.2       7 UNK         0.5000 
     36 O           2.8118  -20.2056  -45.5488 O.2       7 UNK        -0.5000 
     37 CA          3.9476  -18.2780  -44.6891 C.3       7 UNK         0.1400 
     38 CB          4.1839  -17.1576  -45.7142 C.3       7 UNK        -0.1800 
     39 N           3.8559  -17.7100  -43.3441 N.am      7 UNK        -0.5000 
     40 C           3.9189  -18.4302  -42.2153 C.2       6 UNK         0.5000 
     41 O           4.0896  -19.6484  -42.1903 O.2       6 UNK        -0.5000 
     42 CA          3.7165  -17.6662  -40.8941 C.3       6 UNK         0.1400 
     43 CB          5.0115  -16.9569  -40.4706 C.3       6 UNK        -0.1800 
     44 N           2.6277  -16.6912  -40.9677 N.am      6 UNK        -0.5000 
     45 C           1.3371  -17.0146  -41.1280 C.2       5 UNK         0.5000 
     46 O           0.9269  -18.1714  -41.2055 O.2       5 UNK        -0.5000 
     47 CA          0.3392  -15.8517  -41.2668 C.3       5 UNK         0.1400 
     48 CB         -0.1289  -15.3732  -39.8849 C.3       5 UNK        -0.1800 
     49 N           0.8391  -14.7051  -42.0287 N.am      5 UNK        -0.5000 
     50 C           1.3230  -14.7408  -43.2780 C.2       4 UNK         0.5000 
     51 O           1.5432  -15.7820  -43.8979 O.2       4 UNK        -0.5000 
     52 CA          1.5411  -13.3725  -43.9467 C.3       4 UNK         0.1400 
     53 CB          2.2107  -13.4819  -45.3285 C.3       4 UNK        -0.1800 
     54 N           0.2406  -12.7240  -44.0931 N.am      4 UNK        -0.5000 
     55 C          -0.3219  -11.9096  -43.1886 C.2       3 UNK         0.5000 
     56 O           0.2616  -11.5105  -42.1801 O.2       3 UNK        -0.5000 
     57 CA         -1.7960  -11.5175  -43.4137 C.3       3 UNK         0.1400 
     58 CB         -1.8886  -10.1721  -44.1481 C.3       3 UNK        -0.1800 
     59 N          -2.5446  -12.5352  -44.1560 N.am      3 UNK        -0.5000 
     60 C          -2.8515  -13.7508  -43.6724 C.2       2 UNK         0.5000 
     61 O          -2.6315  -14.0914  -42.5099 O.2       2 UNK        -0.5000 
     62 CA         -3.4854  -14.7732  -44.6412 C.3       2 UNK         0.1400 
     63 CB         -4.9946  -14.8980  -44.3842 C.3       2 UNK        -0.1800 
     64 N          -3.2736  -14.4741  -46.0592 N.am      2 UNK        -0.5000 
     65 C          -2.0815  -14.4063  -46.6700 C.2       1 UNK         0.5000 
     66 O          -1.0160  -14.6215  -46.0955 O.2       1 UNK        -0.5000 
     67 C           1.2048  -24.3338  -46.9957 C.2       11 UNK         0.5000 
     68 O           0.8460  -25.0898  -47.9002 O.2       11 UNK        -0.5000 
     69 N           0.4967  -24.1293  -45.8733 N.am      12 UNK        -0.5000 
     70 CA         -0.8317  -24.6570  -45.5440 C.3       12 UNK         0.1400 
     71 CB         -0.8085  -26.1947  -45.4179 C.3       12 UNK        -0.1800 
     72 C          -1.8998  -24.1343  -46.5252 C.2       12 UNK         0.5000 
     73 O          -2.5356  -24.9139  -47.2367 O.2       12 UNK        -0.5000 
     74 N          -2.0309  -22.8034  -46.5574 N.am      13 UNK        -0.5000 
     75 CA         -2.9000  -22.0276  -47.4384 C.3       13 UNK         0.1400 
     76 CB         -2.5184  -20.5420  -47.3125 C.3       13 UNK        -0.1800 
     77 C          -4.3929  -22.2706  -47.1652 C.2       13 UNK         0.5000 
     78 O          -4.9932  -21.5751  -46.3432 O.2       13 UNK        -0.5000 
     79 N          -4.9655  -23.2563  -47.8668 N.am      14 UNK        -0.5000 
     80 CA         -6.4036  -23.5185  -47.9031 C.3       14 UNK         0.1400 
     81 CB         -6.6529  -24.9322  -48.4451 C.3       14 UNK        -0.1800 
     82 C          -7.1455  -22.4555  -48.7349 C.2       14 UNK         0.5000 
     83 O          -8.2649  -22.0824  -48.3818 O.2       14 UNK        -0.5000 
     84 N          -6.4836  -21.9502  -49.7833 N.am      15 UNK        -0.5000 
     85 CA         -6.8258  -20.7115  -50.4695 C.3       15 UNK         0.1400 
     86 CB         -6.9063  -20.9676  -51.9805 C.3       15 UNK        -0.1800 
     87 C          -5.7160  -19.6983  -50.1641 C.2       15 UNK         0.5000 
     88 O          -4.5385  -20.0674  -50.1496 O.2       15 UNK        -0.5000 
     89 N          -6.0926  -18.4325  -49.9519 N.am      16 UNK        -0.5000 
     90 CA         -5.1740  -17.3232  -49.6908 C.3       16 UNK         0.1400 
     91 CB         -5.9322  -16.2083  -48.9468 C.3       16 UNK        -0.1800 
     92 C          -4.5069  -16.8322  -50.9932 C.2       16 UNK         0.5000 
     93 O          -4.7303  -15.6948  -51.4113 O.2       16 UNK        -0.5000 
     94 N          -3.7109  -17.7199  -51.6042 N.am      17 UNK        -0.5000 
     95 CA         -3.0905  -17.6064  -52.9270 C.3       17 UNK         0.1400 
     96 CB         -2.1135  -16.4097  -52.9862 C.3       17 UNK        -0.1800 
     97 C          -4.1423  -17.5989  -54.0592 C.2       17 UNK         0.5000 
     98 O          -5.2737  -18.0465  -53.8498 O.2       17 UNK        -0.5000 
     99 N          -3.7365  -17.1287  -55.2484 N.am      18 UNK        -0.5000 
    100 CA        -4.4818  -17.0339  -56.5132 C.3       18 UNK         0.1400 
    101 CB        -5.7267  -16.1358  -56.3757 C.3       18 UNK        -0.1800 
    102 C         -4.8324  -18.3989  -57.1387 C.2       18 UNK         0.5000 
    103 O         -4.4892  -18.6430  -58.2966 O.2       18 UNK        -0.5000 
    104 N         -5.4855  -19.2667  -56.3609 N.am      19 UNK        -0.5000 
    105 CA        -5.7318  -20.6697  -56.6783 C.3       19 UNK         0.1400 
    106 CB        -6.9301  -21.1546  -55.8470 C.3       19 UNK        -0.1800 
    107 C         -4.4849  -21.5258  -56.3856 C.2       19 UNK         0.5000 
    108 O         -3.5621  -21.0748  -55.7028 O.2       19 UNK        -0.5000 
    109 N         -4.4968  -22.7680  -56.8850 N.am      20 UNK        -0.5000 
    110 CA        -3.4175  -23.7465  -56.7175 C.3       20 UNK         0.1400 
    111 CB        -3.6495  -24.9105  -57.6934 C.3       20 UNK        -0.1800 
    112 C         -3.2608  -24.2773  -55.2771 C.2       20 UNK         0.5000 
    113 O         -2.2023  -24.8129  -54.9452 O.2       20 UNK        -0.5000 
    114 N         -4.2965  -24.1180  -54.4406 N.am      21 UNK        -0.5000 
    115 CA        -4.3630  -24.5566  -53.0421 C.3       21 UNK         0.1400 
    116 CB        -5.8432  -24.6966  -52.6487 C.3       21 UNK        -0.1800 
    117 C         -3.5609  -23.6528  -52.0735 C.2       21 UNK         0.5000 
    118 O         -4.0695  -23.2582  -51.0209 O.2       21 UNK        -0.5000 
    119 N         -2.3164  -23.3524  -52.4604 N.am      22 UNK        -0.5000 
    120 CA        -1.3301  -22.5465  -51.7269 C.3       22 UNK         0.1400 
    121 C         -0.8512  -23.1606  -50.3852 C.2       22 UNK         0.5000 
    122 N         -0.9155  -24.4697  -50.1824 N.am      22 UNK        -0.7600 
    123 O         -0.4029  -22.4239  -49.5161 O.2       22 UNK        -0.5000 
    124 C124       -0.1031  -22.2297  -52.6271 C.3       23 UNK        -0.0398 
    125 S125       -0.3302  -20.6957  -53.5834 S.3       23 UNK        -0.2404 
    126 C126        1.1931  -19.7796  -53.1620 C.3       23 UNK        -0.0205 
    127 H127       -5.2062  -11.7349  -49.3197 H         1 UNK         0.0600 
    128 H128       -4.4156  -10.2100  -48.9078 H         1 UNK         0.0600 
    129 H129       -5.4546  -11.0141  -47.7265 H         1 UNK         0.0600 
    130 H130       -3.7887  -13.4389  -49.2793 H         1 UNK         0.3000 
    131 H131       -1.1853  -13.3511  -48.2947 H         1 UNK         0.0600 
    132 H132       -2.6796  -15.9632  -48.7886 H         1 UNK         0.0800 
    133 H133       -2.2896  -14.8946  -50.1067 H         1 UNK         0.0800 
    134 H134       -1.5632  -17.9290  -49.3280 H         1 UNK         0.0800 
    135 H135       -0.5881  -17.8118  -47.8785 H         1 UNK         0.0800 
    136 H136       -0.5189  -18.4204  -51.5428 H         1 UNK         0.1150 
    137 H137        3.2392  -20.4784  -51.4737 H         1 UNK         0.1150 
    138 H138        1.7166  -18.6637  -47.8994 H         1 UNK         0.1150 
    139 H139        4.7279  -19.6240  -49.3154 H         1 UNK         0.0800 
    140 H140        3.8398  -19.6853  -47.8230 H         1 UNK         0.0800 
    141 H141        1.8318  -21.6711  -47.8906 H         1 UNK         0.0800 
    142 H142        2.0010  -22.8978  -49.1272 H         1 UNK         0.0800 
    143 H143        3.2703  -24.3323  -47.4886 H         1 UNK         0.0600 
    144 H144        2.8964  -22.0616  -45.6916 H         1 UNK         0.3000 
    145 H145        4.2379  -23.8701  -42.8718 H         1 UNK         0.0600 
    146 H146        5.6131  -21.8296  -42.8320 H         1 UNK         0.0600 
    147 H147        5.1060  -21.4051  -44.4666 H         1 UNK         0.0600 
    148 H148        6.0969  -22.8316  -44.1901 H         1 UNK         0.0600 
    149 H149        3.1165  -21.2830  -42.9668 H         1 UNK         0.3000 
    150 H150       -0.2351  -22.2259  -42.0353 H         1 UNK         0.0600 
    151 H151        1.1999  -22.2441  -39.9834 H         1 UNK         0.0600 
    152 H152        0.3480  -20.7193  -40.1718 H         1 UNK         0.0600 
    153 H153        2.0617  -20.8252  -40.5690 H         1 UNK         0.0600 
    154 H154        0.9926  -19.6780  -42.4693 H         1 UNK         0.3000 
    155 H155        0.1045  -19.4192  -45.9456 H         1 UNK         0.0600 
    156 H156       -1.8840  -18.6404  -44.6396 H         1 UNK         0.0600 
    157 H157       -0.8509  -17.2917  -45.0916 H         1 UNK         0.0600 
    158 H158       -0.8233  -17.9137  -43.4436 H         1 UNK         0.0600 
    159 H159        1.5139  -17.5973  -44.3272 H         1 UNK         0.3000 
    160 H160        4.8067  -18.9512  -44.7197 H         1 UNK         0.0600 
    161 H161        3.3460  -16.4615  -45.7577 H         1 UNK         0.0600 
    162 H162        4.3174  -17.5669  -46.7158 H         1 UNK         0.0600 
    163 H163        5.0814  -16.5871  -45.4752 H         1 UNK         0.0600 
    164 H164        3.6203  -16.7297  -43.2828 H         1 UNK         0.3000 
    165 H165        3.4625  -18.3981  -40.1242 H         1 UNK         0.0600 
    166 H166        4.9003  -16.4833  -39.4950 H         1 UNK         0.0600 
    167 H167        5.8370  -17.6659  -40.3942 H         1 UNK         0.0600 
    168 H168        5.3043  -16.1877  -41.1863 H         1 UNK         0.0600 
    169 H169        2.8783  -15.7145  -40.9228 H         1 UNK         0.3000 
    170 H170       -0.5328  -16.2320  -41.8014 H         1 UNK         0.0600 
    171 H171        0.6871  -14.9277  -39.3146 H         1 UNK         0.0600 
    172 H172       -0.9221  -14.6304  -39.9746 H         1 UNK         0.0600 
    173 H173       -0.5272  -16.2021  -39.2980 H         1 UNK         0.0600 
    174 H174        0.6785  -13.7956  -41.6171 H         1 UNK         0.3000 
    175 H175        2.1940  -12.7799  -43.3027 H         1 UNK         0.0600 
    176 H176        1.6249  -14.0902  -46.0187 H         1 UNK         0.0600 
    177 H177        2.3429  -12.4988  -45.7803 H         1 UNK         0.0600 
    178 H178        3.1979  -13.9378  -45.2467 H         1 UNK         0.0600 
    179 H179       -0.3357  -13.0851  -44.8453 H         1 UNK         0.3000 
    180 H180       -2.2628  -11.4019  -42.4332 H         1 UNK         0.0600 
    181 H181       -2.9261   -9.8769  -44.3055 H         1 UNK         0.0600 
    182 H182       -1.3987  -10.2110  -45.1218 H         1 UNK         0.0600 
    183 H183       -1.4079   -9.3804  -43.5720 H         1 UNK         0.0600 
    184 H184       -2.7532  -12.3207  -45.1253 H         1 UNK         0.3000 
    185 H185       -3.0214  -15.7400  -44.4353 H         1 UNK         0.0600 
    186 H186       -5.5167  -13.9644  -44.5976 H         1 UNK         0.0600 
    187 H187       -5.4373  -15.6805  -45.0010 H         1 UNK         0.0600 
    188 H188       -5.1944  -15.1554  -43.3432 H         1 UNK         0.0600 
    189 H189       -4.0964  -14.2447  -46.5964 H         1 UNK         0.3000 
    190 H190        0.8719  -23.4730  -45.2024 H         1 UNK         0.3000 
    191 H191       -1.0852  -24.2557  -44.5615 H         1 UNK         0.0600 
    192 H192       -1.7721  -26.5679  -45.0696 H         1 UNK         0.0600 
    193 H193       -0.0551  -26.5176  -44.6994 H         1 UNK         0.0600 
    194 H194       -0.5965  -26.6833  -46.3690 H         1 UNK         0.0600 
    195 H195       -1.4557  -22.2634  -45.9140 H         1 UNK         0.3000 
    196 H196       -2.7176  -22.3302  -48.4680 H         1 UNK         0.0600 
    197 H197       -3.1627  -19.9138  -47.9266 H         1 UNK         0.0600 
    198 H198       -1.4928  -20.3751  -47.6427 H         1 UNK         0.0600 
    199 H199       -2.6052  -20.1928  -46.2841 H         1 UNK         0.0600 
    200 H200       -4.3854  -23.8009  -48.4923 H         1 UNK         0.3000 
    201 H201       -6.7923  -23.4742  -46.8835 H         1 UNK         0.0600 
    202 H202       -6.2191  -25.6857  -47.7874 H         1 UNK         0.0600 
    203 H203       -6.2169  -25.0640  -49.4334 H         1 UNK         0.0600 
    204 H204       -7.7207  -25.1413  -48.5219 H         1 UNK         0.0600 
    205 H205       -5.5543  -22.3058  -49.9923 H         1 UNK         0.3000 
    206 H206       -7.7834  -20.3178  -50.1227 H         1 UNK         0.0600 
    207 H207       -7.6768  -21.7017  -52.2156 H         1 UNK         0.0600 
    208 H208       -7.1538  -20.0506  -52.5170 H         1 UNK         0.0600 
    209 H209       -5.9572  -21.3315  -52.3771 H         1 UNK         0.0600 
    210 H210       -7.0712  -18.1931  -50.0214 H         1 UNK         0.3000 
    211 H211       -4.3799  -17.6754  -49.0289 H         1 UNK         0.0600 
    212 H212       -6.7608  -15.8187  -49.5393 H         1 UNK         0.0600 
    213 H213       -5.2726  -15.3721  -48.7142 H         1 UNK         0.0600 
    214 H214       -6.3373  -16.5712  -48.0019 H         1 UNK         0.0600 
    215 H215       -3.6847  -18.6489  -51.1932 H         1 UNK         0.3000 
    216 H216       -2.5097  -18.5199  -53.0595 H         1 UNK         0.0600 
    217 H217       -1.4487  -16.4834  -53.8471 H         1 UNK         0.0600 
    218 H218       -1.4796  -16.3696  -52.1013 H         1 UNK         0.0600 
    219 H219       -2.6400  -15.4573  -53.0561 H         1 UNK         0.0600 
    220 H220       -2.7768  -16.8195  -55.3111 H         1 UNK         0.3000 
    221 H221       -3.8059  -16.5379  -57.2117 H         1 UNK         0.0600 
    222 H222       -6.4705  -16.5623  -55.7024 H         1 UNK         0.0600 
    223 H223       -5.4598  -15.1491  -55.9971 H         1 UNK         0.0600 
    224 H224       -6.2098  -15.9933  -57.3430 H         1 UNK         0.0600 
    225 H225       -5.6436  -18.9827  -55.3970 H         1 UNK         0.3000 
    226 H226       -5.9773  -20.7607  -57.7385 H         1 UNK         0.0600 
    227 H227       -7.8115  -20.5398  -56.0301 H         1 UNK         0.0600 
    228 H228       -7.1967  -22.1825  -56.0951 H         1 UNK         0.0600 
    229 H229       -6.7144  -21.1193  -54.7799 H         1 UNK         0.0600 
    230 H230       -5.2918  -23.0695  -57.4303 H         1 UNK         0.3000 
    231 H231       -2.4767  -23.2606  -56.9851 H         1 UNK         0.0600 
    232 H232       -2.8469  -25.6460  -57.6239 H         1 UNK         0.0600 
    233 H233       -3.6777  -24.5611  -58.7257 H         1 UNK         0.0600 
    234 H234       -4.5872  -25.4279  -57.4868 H         1 UNK         0.0600 
    235 H235       -5.1101  -23.6379  -54.7937 H         1 UNK         0.3000 
    236 H236       -3.9160  -25.5508  -52.9786 H         1 UNK         0.0600 
    237 H237       -6.3549  -23.7352  -52.6468 H         1 UNK         0.0600 
    238 H238       -6.3735  -25.3567  -53.3352 H         1 UNK         0.0600 
    239 H239       -5.9423  -25.1280  -51.6544 H         1 UNK         0.0600 
    240 H240       -2.0052  -23.7460  -53.3422 H         1 UNK         0.3000 
    241 H241       -1.8235  -21.6108  -51.4542 H         1 UNK         0.0600 
    242 H242       -0.5508  -24.8338  -49.3086 H         1 UNK         0.3800 
    243 H243       -1.2815  -25.0939  -50.8813 H         1 UNK         0.3800 
    244 H244        0.0947  -23.0488  -53.3201 H         1 UNK         0.0800 
    245 H245        0.8137  -22.1336  -52.0426 H         1 UNK         0.0800 
    246 H246        2.0532  -20.3408  -53.5304 H         1 UNK         0.0800 
    247 H247        1.1920  -18.8322  -53.7024 H         1 UNK         0.0800 
@<TRIPOS>BOND
     1    1    2 1    
     2    1  127 1    
     3    1  128 1    
     4    1  129 1    
     5    2    3 2    
     6    2    4 am   BACKBONE|DICT|INTERRES
     7    4    5 1    
     8    4  130 1    
     9    5    6 1    
    10    5   65 1    
    11    5  131 1    
    12    6    7 1    
    13    6  132 1    
    14    6  133 1    
    15    7    8 1    
    16    8    9 1    
    17    8  134 1    
    18    8  135 1    
    19    9   10 ar   
    20    9   14 ar   
    21   10   11 ar   
    22   10  136 1    
    23   11   12 ar   
    24   11  126 1    
    25   12   13 ar   
    26   12  137 1    
    27   13   14 ar   
    28   13   15 1    
    29   14  138 1    
    30   15   16 1    
    31   15  139 1    
    32   15  140 1    
    33   16   17 1    
    34   17   18 1    
    35   17  141 1    
    36   17  142 1    
    37   18   19 1    
    38   18   67 1    
    39   18  143 1    
    40   19   20 am   BACKBONE|DICT|INTERRES
    41   19  144 1    
    42   20   21 2    
    43   20   22 1    
    44   22   23 1    
    45   22   24 1    
    46   22  145 1    
    47   23  146 1    
    48   23  147 1    
    49   23  148 1    
    50   24   25 am   BACKBONE|DICT|INTERRES
    51   24  149 1    
    52   25   26 2    
    53   25   27 1    
    54   27   28 1    
    55   27   29 1    
    56   27  150 1    
    57   28  151 1    
    58   28  152 1    
    59   28  153 1    
    60   29   30 am   BACKBONE|DICT|INTERRES
    61   29  154 1    
    62   30   31 2    
    63   30   32 1    
    64   32   33 1    
    65   32   34 1    
    66   32  155 1    
    67   33  156 1    
    68   33  157 1    
    69   33  158 1    
    70   34   35 am   BACKBONE|DICT|INTERRES
    71   34  159 1    
    72   35   36 2    
    73   35   37 1    
    74   37   38 1    
    75   37   39 1    
    76   37  160 1    
    77   38  161 1    
    78   38  162 1    
    79   38  163 1    
    80   39   40 am   BACKBONE|DICT|INTERRES
    81   39  164 1    
    82   40   41 2    
    83   40   42 1    
    84   42   43 1    
    85   42   44 1    
    86   42  165 1    
    87   43  166 1    
    88   43  167 1    
    89   43  168 1    
    90   44   45 am   BACKBONE|DICT|INTERRES
    91   44  169 1    
    92   45   46 2    
    93   45   47 1    
    94   47   48 1    
    95   47   49 1    
    96   47  170 1    
    97   48  171 1    
    98   48  172 1    
    99   48  173 1    
   100   49   50 am   BACKBONE|DICT|INTERRES
   101   49  174 1    
   102   50   51 2    
   103   50   52 1    
   104   52   53 1    
   105   52   54 1    
   106   52  175 1    
   107   53  176 1    
   108   53  177 1    
   109   53  178 1    
   110   54   55 am   BACKBONE|DICT|INTERRES
   111   54  179 1    
   112   55   56 2    
   113   55   57 1    
   114   57   58 1    
   115   57   59 1    
   116   57  180 1    
   117   58  181 1    
   118   58  182 1    
   119   58  183 1    
   120   59   60 am   BACKBONE|DICT|INTERRES
   121   59  184 1    
   122   60   61 2    
   123   60   62 1    
   124   62   63 1    
   125   62   64 1    
   126   62  185 1    
   127   63  186 1    
   128   63  187 1    
   129   63  188 1    
   130   64   65 am   BACKBONE|DICT|INTERRES
   131   64  189 1    
   132   65   66 2    
   133   67   68 2    
   134   67   69 am   BACKBONE|DICT|INTERRES
   135   69   70 1    
   136   69  190 1    
   137   70   71 1    
   138   70   72 1    
   139   70  191 1    
   140   71  192 1    
   141   71  193 1    
   142   71  194 1    
   143   72   73 2    
   144   72   74 am   BACKBONE|DICT|INTERRES
   145   74   75 1    
   146   74  195 1    
   147   75   76 1    
   148   75   77 1    
   149   75  196 1    
   150   76  197 1    
   151   76  198 1    
   152   76  199 1    
   153   77   78 2    
   154   77   79 am   BACKBONE|DICT|INTERRES
   155   79   80 1    
   156   79  200 1    
   157   80   81 1    
   158   80   82 1    
   159   80  201 1    
   160   81  202 1    
   161   81  203 1    
   162   81  204 1    
   163   82   83 2    
   164   82   84 am   BACKBONE|DICT|INTERRES
   165   84   85 1    
   166   84  205 1    
   167   85   86 1    
   168   85   87 1    
   169   85  206 1    
   170   86  207 1    
   171   86  208 1    
   172   86  209 1    
   173   87   88 2    
   174   87   89 am   BACKBONE|DICT|INTERRES
   175   89   90 1    
   176   89  210 1    
   177   90   91 1    
   178   90   92 1    
   179   90  211 1    
   180   91  212 1    
   181   91  213 1    
   182   91  214 1    
   183   92   93 2    
   184   92   94 am   BACKBONE|DICT|INTERRES
   185   94   95 1    
   186   94  215 1    
   187   95   96 1    
   188   95   97 1    
   189   95  216 1    
   190   96  217 1    
   191   96  218 1    
   192   96  219 1    
   193   97   98 2    
   194   97   99 am   BACKBONE|DICT|INTERRES
   195   99  100 1    
   196   99  220 1    
   197  100  101 1    
   198  100  102 1    
   199  100  221 1    
   200  101  222 1    
   201  101  223 1    
   202  101  224 1    
   203  102  103 2    
   204  102  104 am   BACKBONE|DICT|INTERRES
   205  104  105 1    
   206  104  225 1    
   207  105  106 1    
   208  105  107 1    
   209  105  226 1    
   210  106  227 1    
   211  106  228 1    
   212  106  229 1    
   213  107  108 2    
   214  107  109 am   BACKBONE|DICT|INTERRES
   215  109  110 1    
   216  109  230 1    
   217  110  111 1    
   218  110  112 1    
   219  110  231 1    
   220  111  232 1    
   221  111  233 1    
   222  111  234 1    
   223  112  113 2    
   224  112  114 am   BACKBONE|DICT|INTERRES
   225  114  115 1    
   226  114  235 1    
   227  115  116 1    
   228  115  117 1    
   229  115  236 1    
   230  116  237 1    
   231  116  238 1    
   232  116  239 1    
   233  117  118 2    
   234  117  119 am   BACKBONE|DICT|INTERRES
   235  119  120 1    
   236  119  240 1    
   237  120  121 1    
   238  120  124 1    
   239  120  241 1    
   240  121  122 am   BACKBONE|DICT|INTERRES
   241  121  123 2    
   242  122  242 1    
   243  122  243 1    
   244  124  125 1    
   245  124  244 1    
   246  124  245 1    
   247  125  126 1    
   248  126  246 1    
   249  126  247 1    
@<TRIPOS>SUBSTRUCTURE
     1 UNK         1 GROUP             0       ****    0 ROOT    
