@<TRIPOS>MOLECULE
3R540
247   249    1
SMALL
USER_CHARGES


@<TRIPOS>ATOM
      1 CA         -4.4716  -13.9955  -50.4499 C.3       0 UNK        -0.1800 
      2 C          -3.4059  -14.0271  -49.3640 C.2       0 UNK         0.5000 
      3 O          -3.3080  -13.0923  -48.5692 O.2       0 UNK        -0.5000 
      4 N          -2.6190  -15.1078  -49.3072 N.am      1 UNK        -0.5000 
      5 CA         -1.4917  -15.2926  -48.3786 C.3       1 UNK         0.1400 
      6 C6         -0.4060  -16.2336  -48.9529 C.3       23 UNK        -0.0398 
      7 S7          0.2256  -15.6554  -50.5664 S.3       23 UNK        -0.2404 
      8 C8          1.9789  -16.1405  -50.4889 C.3       23 UNK        -0.0205 
      9 C9          2.1540  -17.6451  -50.6290 C.ar      23 UNK        -0.0193 
     10 C10         1.9528  -18.2589  -51.8683 C.ar      23 UNK        -0.1150 
     11 C11         2.0956  -19.6414  -52.0079 C.ar      23 UNK        -0.0193 
     12 C12         2.4497  -20.4107  -50.8960 C.ar      23 UNK        -0.1150 
     13 C13         2.6699  -19.8107  -49.6518 C.ar      23 UNK        -0.0193 
     14 C14         2.5254  -18.4228  -49.5287 C.ar      23 UNK        -0.1150 
     15 C15         3.0897  -20.6826  -48.4690 C.3       23 UNK        -0.0205 
     16 S16         2.4022  -20.1774  -46.8540 S.3       23 UNK        -0.2404 
     17 C17         0.6098  -20.2745  -47.1658 C.3       23 UNK        -0.0398 
     18 CA          0.0215  -21.6867  -46.9467 C.3       11 UNK         0.1400 
     19 N           0.1996  -22.1635  -45.5722 N.am      11 UNK        -0.5000 
     20 C          -0.0990  -23.3988  -45.1468 C.2       10 UNK         0.5000 
     21 O          -0.5192  -24.2930  -45.8792 O.2       10 UNK        -0.5000 
     22 CA          0.0325  -23.6621  -43.6392 C.3       10 UNK         0.1400 
     23 CB          1.4887  -23.9604  -43.2513 C.3       10 UNK        -0.1800 
     24 N          -0.4786  -22.5381  -42.8556 N.am      10 UNK        -0.5000 
     25 C          -1.7786  -22.2269  -42.7528 C.2       9 UNK         0.5000 
     26 O          -2.6798  -22.8828  -43.2744 O.2       9 UNK        -0.5000 
     27 CA         -2.1286  -20.9486  -41.9696 C.3       9 UNK         0.1400 
     28 CB         -2.2130  -21.2418  -40.4644 C.3       9 UNK        -0.1800 
     29 N          -1.1749  -19.8630  -42.1998 N.am      9 UNK        -0.5000 
     30 C          -1.0148  -19.2330  -43.3718 C.2       8 UNK         0.5000 
     31 O          -1.6678  -19.4903  -44.3819 O.2       8 UNK        -0.5000 
     32 CA          0.0929  -18.1676  -43.4360 C.3       8 UNK         0.1400 
     33 CB         -0.4271  -16.8255  -42.9079 C.3       8 UNK        -0.1800 
     34 N           1.3092  -18.5163  -42.7009 N.am      8 UNK        -0.5000 
     35 C           2.0564  -19.6142  -42.8787 C.2       7 UNK         0.5000 
     36 O           1.7138  -20.5529  -43.5973 O.2       7 UNK        -0.5000 
     37 CA          3.3874  -19.7051  -42.0985 C.3       7 UNK         0.1400 
     38 CB          4.5418  -20.1898  -42.9992 C.3       7 UNK        -0.1800 
     39 N           3.7643  -18.4832  -41.3667 N.am      7 UNK        -0.5000 
     40 C           4.0782  -17.2799  -41.8719 C.2       6 UNK         0.5000 
     41 O           4.0874  -17.0222  -43.0768 O.2       6 UNK        -0.5000 
     42 CA          4.3876  -16.1901  -40.8256 C.3       6 UNK         0.1400 
     43 CB          5.7862  -16.3763  -40.2021 C.3       6 UNK        -0.1800 
     44 N           4.1874  -14.8283  -41.3353 N.am      6 UNK        -0.5000 
     45 C           4.9395  -14.1286  -42.1959 C.2       5 UNK         0.5000 
     46 O           6.0078  -14.5159  -42.6735 O.2       5 UNK        -0.5000 
     47 CA          4.3711  -12.7529  -42.6001 C.3       5 UNK         0.1400 
     48 CB          5.4722  -11.7697  -43.0363 C.3       5 UNK        -0.1800 
     49 N           3.3981  -12.8796  -43.6844 N.am      5 UNK        -0.5000 
     50 C           2.1548  -13.3605  -43.5617 C.2       4 UNK         0.5000 
     51 O           1.6691  -13.7392  -42.4919 O.2       4 UNK        -0.5000 
     52 CA          1.3368  -13.4438  -44.8670 C.3       4 UNK         0.1400 
     53 CB          1.7388  -14.6894  -45.6732 C.3       4 UNK        -0.1800 
     54 N          -0.1122  -13.4578  -44.6397 N.am      4 UNK        -0.5000 
     55 C          -0.8126  -12.4253  -44.1425 C.2       3 UNK         0.5000 
     56 O          -0.3036  -11.3329  -43.8839 O.2       3 UNK        -0.5000 
     57 CA         -2.3265  -12.6259  -43.9118 C.3       3 UNK         0.1400 
     58 CB         -3.1304  -11.3461  -44.2054 C.3       3 UNK        -0.1800 
     59 N          -2.8606  -13.7080  -44.7379 N.am      3 UNK        -0.5000 
     60 C          -3.4165  -14.8402  -44.2870 C.2       2 UNK         0.5000 
     61 O          -3.6008  -15.0832  -43.0944 O.2       2 UNK        -0.5000 
     62 CA         -3.8271  -15.8922  -45.3422 C.3       2 UNK         0.1400 
     63 CB         -5.3560  -15.9371  -45.4815 C.3       2 UNK        -0.1800 
     64 N          -3.2415  -15.6612  -46.6666 N.am      2 UNK        -0.5000 
     65 C          -1.9365  -15.7352  -46.9642 C.2       1 UNK         0.5000 
     66 O          -1.0897  -16.0907  -46.1460 O.2       1 UNK        -0.5000 
     67 C          -1.4588  -21.7284  -47.3823 C.2       11 UNK         0.5000 
     68 O          -1.7578  -22.1687  -48.4936 O.2       11 UNK        -0.5000 
     69 N          -2.3642  -21.3005  -46.4927 N.am      12 UNK        -0.5000 
     70 CA         -3.8102  -21.3642  -46.6897 C.3       12 UNK         0.1400 
     71 CB         -4.5169  -20.6222  -45.5449 C.3       12 UNK        -0.1800 
     72 C          -4.3344  -22.8062  -46.8093 C.2       12 UNK         0.5000 
     73 O          -5.1591  -23.0759  -47.6818 O.2       12 UNK        -0.5000 
     74 N          -3.8462  -23.6984  -45.9383 N.am      13 UNK        -0.5000 
     75 CA         -4.2630  -25.0962  -45.8735 C.3       13 UNK         0.1400 
     76 CB         -3.8689  -25.6841  -44.5088 C.3       13 UNK        -0.1800 
     77 C          -3.7000  -25.9558  -47.0187 C.2       13 UNK         0.5000 
     78 O          -4.4712  -26.6270  -47.7055 O.2       13 UNK        -0.5000 
     79 N          -2.3699  -25.9618  -47.1747 N.am      14 UNK        -0.5000 
     80 CA         -1.6607  -26.9069  -48.0365 C.3       14 UNK         0.1400 
     81 CB         -0.2723  -27.1988  -47.4443 C.3       14 UNK        -0.1800 
     82 C          -1.5348  -26.4144  -49.4842 C.2       14 UNK         0.5000 
     83 O          -1.7816  -27.1908  -50.4080 O.2       14 UNK        -0.5000 
     84 N          -1.1363  -25.1478  -49.6618 N.am      15 UNK        -0.5000 
     85 CA         -0.8716  -24.5631  -50.9796 C.3       15 UNK         0.1400 
     86 CB          0.2711  -23.5382  -50.8653 C.3       15 UNK        -0.1800 
     87 C          -2.1200  -23.9313  -51.6208 C.2       15 UNK         0.5000 
     88 O          -2.0793  -23.6222  -52.8100 O.2       15 UNK        -0.5000 
     89 N          -3.1892  -23.7342  -50.8315 N.am      16 UNK        -0.5000 
     90 CA         -4.4237  -23.0163  -51.1818 C.3       16 UNK         0.1400 
     91 CB         -5.2059  -23.7500  -52.2890 C.3       16 UNK        -0.1800 
     92 C          -4.1628  -21.5290  -51.5058 C.2       16 UNK         0.5000 
     93 O          -4.8734  -20.9152  -52.3070 O.2       16 UNK        -0.5000 
     94 N          -3.1368  -20.9644  -50.8565 N.am      17 UNK        -0.5000 
     95 CA         -2.6163  -19.6257  -51.1158 C.3       17 UNK         0.1400 
     96 CB         -1.2259  -19.5228  -50.4947 C.3       17 UNK        -0.1800 
     97 C          -3.5242  -18.4989  -50.5934 C.2       17 UNK         0.5000 
     98 O          -3.3475  -17.3506  -50.9963 O.2       17 UNK        -0.5000 
     99 N          -4.5043  -18.8374  -49.7445 N.am      18 UNK        -0.5000 
    100 CA        -5.5731  -17.9406  -49.2961 C.3       18 UNK         0.1400 
    101 CB        -6.3687  -18.6282  -48.1786 C.3       18 UNK        -0.1800 
    102 C         -6.5149  -17.5229  -50.4421 C.2       18 UNK         0.5000 
    103 O         -7.0250  -16.4035  -50.4334 O.2       18 UNK        -0.5000 
    104 N         -6.6939  -18.4219  -51.4191 N.am      19 UNK        -0.5000 
    105 CA        -7.4185  -18.1803  -52.6671 C.3       19 UNK         0.1400 
    106 CB        -8.2007  -19.4573  -53.0195 C.3       19 UNK        -0.1800 
    107 C         -6.4651  -17.7972  -53.8183 C.2       19 UNK         0.5000 
    108 O         -6.9312  -17.5906  -54.9392 O.2       19 UNK        -0.5000 
    109 N         -5.1527  -17.7504  -53.5330 N.am      20 UNK        -0.5000 
    110 CA        -4.0317  -17.5973  -54.4669 C.3       20 UNK         0.1400 
    111 CB        -4.0280  -16.1875  -55.0918 C.3       20 UNK        -0.1800 
    112 C         -3.9722  -18.7289  -55.5177 C.2       20 UNK         0.5000 
    113 O         -3.5259  -18.5045  -56.6435 O.2       20 UNK        -0.5000 
    114 N         -4.4232  -19.9309  -55.1324 N.am      21 UNK        -0.5000 
    115 CA        -4.5923  -21.0929  -56.0056 C.3       21 UNK         0.1400 
    116 CB        -5.9116  -21.7928  -55.6336 C.3       21 UNK        -0.1800 
    117 C         -3.3759  -22.0412  -55.9682 C.2       21 UNK         0.5000 
    118 O         -3.5390  -23.2543  -56.1113 O.2       21 UNK        -0.5000 
    119 N         -2.1792  -21.4694  -55.7869 N.am      22 UNK        -0.5000 
    120 CA        -0.8807  -22.1583  -55.8091 C.3       22 UNK         0.1400 
    121 C         -0.5867  -22.8504  -57.1706 C.2       22 UNK         0.5000 
    122 N         -0.0032  -24.0413  -57.1564 N.am      22 UNK        -0.7600 
    123 O         -0.8385  -22.2963  -58.2388 O.2       22 UNK        -0.5000 
    124 C124        0.2719  -21.1865  -55.4544 C.3       23 UNK        -0.0398 
    125 S125        0.1309  -20.4892  -53.7738 S.3       23 UNK        -0.2404 
    126 C126        1.8934  -20.2955  -53.3654 C.3       23 UNK        -0.0205 
    127 H127       -5.4647  -13.9765  -50.0012 H         1 UNK         0.0600 
    128 H128       -4.4117  -14.8652  -51.1046 H         1 UNK         0.0600 
    129 H129       -4.3556  -13.1023  -51.0635 H         1 UNK         0.0600 
    130 H130       -2.7599  -15.8560  -49.9827 H         1 UNK         0.3000 
    131 H131       -1.0169  -14.3191  -48.2381 H         1 UNK         0.0600 
    132 H132       -0.8038  -17.2386  -49.0631 H         1 UNK         0.0800 
    133 H133        0.4344  -16.3176  -48.2623 H         1 UNK         0.0800 
    134 H134        2.5157  -15.6438  -51.2982 H         1 UNK         0.0800 
    135 H135        2.4231  -15.7760  -49.5613 H         1 UNK         0.0800 
    136 H136        1.6723  -17.6602  -52.7236 H         1 UNK         0.1150 
    137 H137        2.5655  -21.4799  -51.0041 H         1 UNK         0.1150 
    138 H138        2.6988  -17.9459  -48.5746 H         1 UNK         0.1150 
    139 H139        2.8089  -21.7218  -48.6472 H         1 UNK         0.0800 
    140 H140        4.1779  -20.6666  -48.4008 H         1 UNK         0.0800 
    141 H141        0.4304  -19.9378  -48.1835 H         1 UNK         0.0800 
    142 H142        0.1162  -19.5485  -46.5180 H         1 UNK         0.0800 
    143 H143        0.5593  -22.3783  -47.5984 H         1 UNK         0.0600 
    144 H144        0.5941  -21.5029  -44.9082 H         1 UNK         0.3000 
    145 H145       -0.5650  -24.5447  -43.4007 H         1 UNK         0.0600 
    146 H146        1.5779  -24.1698  -42.1853 H         1 UNK         0.0600 
    147 H147        1.8591  -24.8357  -43.7865 H         1 UNK         0.0600 
    148 H148        2.1544  -23.1303  -43.4873 H         1 UNK         0.0600 
    149 H149        0.2080  -21.9005  -42.4779 H         1 UNK         0.3000 
    150 H150       -3.1113  -20.6120  -42.3066 H         1 UNK         0.0600 
    151 H151       -2.9324  -22.0364  -40.2620 H         1 UNK         0.0600 
    152 H152       -2.5380  -20.3618  -39.9090 H         1 UNK         0.0600 
    153 H153       -1.2510  -21.5587  -40.0598 H         1 UNK         0.0600 
    154 H154       -0.5872  -19.5947  -41.4244 H         1 UNK         0.3000 
    155 H155        0.3685  -18.0406  -44.4849 H         1 UNK         0.0600 
    156 H156        0.3134  -16.0365  -43.0311 H         1 UNK         0.0600 
    157 H157       -0.6916  -16.8773  -41.8512 H         1 UNK         0.0600 
    158 H158       -1.3169  -16.5223  -43.4542 H         1 UNK         0.0600 
    159 H159        1.6737  -17.8060  -42.0852 H         1 UNK         0.3000 
    160 H160        3.2279  -20.4698  -41.3371 H         1 UNK         0.0600 
    161 H161        4.7130  -19.5145  -43.8379 H         1 UNK         0.0600 
    162 H162        4.3255  -21.1738  -43.4171 H         1 UNK         0.0600 
    163 H163        5.4726  -20.2741  -42.4385 H         1 UNK         0.0600 
    164 H164        3.7712  -18.5841  -40.3607 H         1 UNK         0.3000 
    165 H165        3.6548  -16.3013  -40.0248 H         1 UNK         0.0600 
    166 H166        6.5732  -16.3883  -40.9564 H         1 UNK         0.0600 
    167 H167        6.0122  -15.5812  -39.4914 H         1 UNK         0.0600 
    168 H168        5.8487  -17.3208  -39.6607 H         1 UNK         0.0600 
    169 H169        3.2835  -14.4272  -41.1149 H         1 UNK         0.3000 
    170 H170        3.8722  -12.3219  -41.7292 H         1 UNK         0.0600 
    171 H171        6.2237  -11.6549  -42.2541 H         1 UNK         0.0600 
    172 H172        5.9851  -12.1074  -43.9378 H         1 UNK         0.0600 
    173 H173        5.0599  -10.7806  -43.2367 H         1 UNK         0.0600 
    174 H174        3.7305  -12.6250  -44.6032 H         1 UNK         0.3000 
    175 H175        1.5696  -12.5607  -45.4658 H         1 UNK         0.0600 
    176 H176        1.4771  -15.6112  -45.1527 H         1 UNK         0.0600 
    177 H177        1.2494  -14.6993  -46.6462 H         1 UNK         0.0600 
    178 H178        2.8137  -14.7144  -45.8562 H         1 UNK         0.0600 
    179 H179       -0.5851  -14.3349  -44.8145 H         1 UNK         0.3000 
    180 H180       -2.4438  -12.8618  -42.8524 H         1 UNK         0.0600 
    181 H181       -3.0079  -11.0243  -45.2403 H         1 UNK         0.0600 
    182 H182       -2.8142  -10.5232  -43.5632 H         1 UNK         0.0600 
    183 H183       -4.1946  -11.5013  -44.0270 H         1 UNK         0.0600 
    184 H184       -2.7643  -13.5905  -45.7370 H         1 UNK         0.3000 
    185 H185       -3.4828  -16.8656  -44.9856 H         1 UNK         0.0600 
    186 H186       -5.8313  -16.1416  -44.5211 H         1 UNK         0.0600 
    187 H187       -5.7544  -14.9913  -45.8508 H         1 UNK         0.0600 
    188 H188       -5.6671  -16.7228  -46.1670 H         1 UNK         0.0600 
    189 H189       -3.8657  -15.3251  -47.3848 H         1 UNK         0.3000 
    190 H190       -2.0447  -20.8813  -45.6231 H         1 UNK         0.3000 
    191 H191       -4.0415  -20.8489  -47.6231 H         1 UNK         0.0600 
    192 H192       -4.2841  -21.0621  -44.5752 H         1 UNK         0.0600 
    193 H193       -5.6003  -20.6540  -45.6658 H         1 UNK         0.0600 
    194 H194       -4.2212  -19.5733  -45.5129 H         1 UNK         0.0600 
    195 H195       -3.1998  -23.3838  -45.2230 H         1 UNK         0.3000 
    196 H196       -5.3526  -25.1290  -45.9427 H         1 UNK         0.0600 
    197 H197       -4.1615  -26.7321  -44.4334 H         1 UNK         0.0600 
    198 H198       -4.3606  -25.1505  -43.6952 H         1 UNK         0.0600 
    199 H199       -2.7928  -25.6290  -44.3398 H         1 UNK         0.0600 
    200 H200       -1.7916  -25.3493  -46.6014 H         1 UNK         0.3000 
    201 H201       -2.2091  -27.8516  -48.0540 H         1 UNK         0.0600 
    202 H202       -0.3503  -27.5783  -46.4254 H         1 UNK         0.0600 
    203 H203        0.3566  -26.3083  -47.4219 H         1 UNK         0.0600 
    204 H204        0.2511  -27.9529  -48.0333 H         1 UNK         0.0600 
    205 H205       -0.9885  -24.5549  -48.8565 H         1 UNK         0.3000 
    206 H206       -0.5306  -25.3469  -51.6595 H         1 UNK         0.0600 
    207 H207        1.1748  -23.9979  -50.4654 H         1 UNK         0.0600 
    208 H208        0.5235  -23.1264  -51.8435 H         1 UNK         0.0600 
    209 H209        0.0118  -22.6992  -50.2228 H         1 UNK         0.0600 
    210 H210       -3.1001  -24.0050  -49.8620 H         1 UNK         0.3000 
    211 H211       -5.0474  -23.0233  -50.2887 H         1 UNK         0.0600 
    212 H212       -4.6790  -23.7282  -53.2432 H         1 UNK         0.0600 
    213 H213       -6.1836  -23.2924  -52.4431 H         1 UNK         0.0600 
    214 H214       -5.3757  -24.7936  -52.0244 H         1 UNK         0.0600 
    215 H215       -2.6192  -21.5268  -50.1872 H         1 UNK         0.3000 
    216 H216       -2.5177  -19.5055  -52.1964 H         1 UNK         0.0600 
    217 H217       -0.6037  -20.3799  -50.7509 H         1 UNK         0.0600 
    218 H218       -1.2969  -19.4638  -49.4110 H         1 UNK         0.0600 
    219 H219       -0.7106  -18.6338  -50.8559 H         1 UNK         0.0600 
    220 H220       -4.5766  -19.8059  -49.4734 H         1 UNK         0.3000 
    221 H221       -5.1162  -17.0353  -48.8912 H         1 UNK         0.0600 
    222 H222       -6.8003  -19.5738  -48.5094 H         1 UNK         0.0600 
    223 H223       -5.7340  -18.8302  -47.3186 H         1 UNK         0.0600 
    224 H224       -7.1879  -17.9957  -47.8337 H         1 UNK         0.0600 
    225 H225       -6.2245  -19.3161  -51.3533 H         1 UNK         0.3000 
    226 H226       -8.1310  -17.3627  -52.5408 H         1 UNK         0.0600 
    227 H227       -8.8902  -19.7298  -52.2204 H         1 UNK         0.0600 
    228 H228       -8.7935  -19.3194  -53.9245 H         1 UNK         0.0600 
    229 H229       -7.5337  -20.3036  -53.1898 H         1 UNK         0.0600 
    230 H230       -4.8875  -17.8781  -52.5669 H         1 UNK         0.3000 
    231 H231       -3.1227  -17.6915  -53.8714 H         1 UNK         0.0600 
    232 H232       -3.1206  -16.0197  -55.6731 H         1 UNK         0.0600 
    233 H233       -4.0652  -15.4167  -54.3219 H         1 UNK         0.0600 
    234 H234       -4.8763  -16.0370  -55.7599 H         1 UNK         0.0600 
    235 H235       -4.7077  -20.0655  -54.1674 H         1 UNK         0.3000 
    236 H236       -4.6878  -20.7587  -57.0407 H         1 UNK         0.0600 
    237 H237       -6.7564  -21.1103  -55.7286 H         1 UNK         0.0600 
    238 H238       -6.1096  -22.6432  -56.2869 H         1 UNK         0.0600 
    239 H239       -5.8956  -22.1584  -54.6083 H         1 UNK         0.0600 
    240 H240       -2.1446  -20.4656  -55.6966 H         1 UNK         0.3000 
    241 H241       -0.9177  -22.9347  -55.0441 H         1 UNK         0.0600 
    242 H242        0.2148  -24.5131  -56.2922 H         1 UNK         0.3800 
    243 H243        0.2078  -24.4940  -58.0324 H         1 UNK         0.3800 
    244 H244        1.2295  -21.7050  -55.5319 H         1 UNK         0.0800 
    245 H245        0.3145  -20.3621  -56.1684 H         1 UNK         0.0800 
    246 H246        2.3779  -19.6907  -54.1335 H         1 UNK         0.0800 
    247 H247        2.3784  -21.2727  -53.3897 H         1 UNK         0.0800 
@<TRIPOS>BOND
     1    1    2 1    
     2    1  127 1    
     3    1  128 1    
     4    1  129 1    
     5    2    3 2    
     6    2    4 am   BACKBONE|DICT|INTERRES
     7    4    5 1    
     8    4  130 1    
     9    5    6 1    
    10    5   65 1    
    11    5  131 1    
    12    6    7 1    
    13    6  132 1    
    14    6  133 1    
    15    7    8 1    
    16    8    9 1    
    17    8  134 1    
    18    8  135 1    
    19    9   10 ar   
    20    9   14 ar   
    21   10   11 ar   
    22   10  136 1    
    23   11   12 ar   
    24   11  126 1    
    25   12   13 ar   
    26   12  137 1    
    27   13   14 ar   
    28   13   15 1    
    29   14  138 1    
    30   15   16 1    
    31   15  139 1    
    32   15  140 1    
    33   16   17 1    
    34   17   18 1    
    35   17  141 1    
    36   17  142 1    
    37   18   19 1    
    38   18   67 1    
    39   18  143 1    
    40   19   20 am   BACKBONE|DICT|INTERRES
    41   19  144 1    
    42   20   21 2    
    43   20   22 1    
    44   22   23 1    
    45   22   24 1    
    46   22  145 1    
    47   23  146 1    
    48   23  147 1    
    49   23  148 1    
    50   24   25 am   BACKBONE|DICT|INTERRES
    51   24  149 1    
    52   25   26 2    
    53   25   27 1    
    54   27   28 1    
    55   27   29 1    
    56   27  150 1    
    57   28  151 1    
    58   28  152 1    
    59   28  153 1    
    60   29   30 am   BACKBONE|DICT|INTERRES
    61   29  154 1    
    62   30   31 2    
    63   30   32 1    
    64   32   33 1    
    65   32   34 1    
    66   32  155 1    
    67   33  156 1    
    68   33  157 1    
    69   33  158 1    
    70   34   35 am   BACKBONE|DICT|INTERRES
    71   34  159 1    
    72   35   36 2    
    73   35   37 1    
    74   37   38 1    
    75   37   39 1    
    76   37  160 1    
    77   38  161 1    
    78   38  162 1    
    79   38  163 1    
    80   39   40 am   BACKBONE|DICT|INTERRES
    81   39  164 1    
    82   40   41 2    
    83   40   42 1    
    84   42   43 1    
    85   42   44 1    
    86   42  165 1    
    87   43  166 1    
    88   43  167 1    
    89   43  168 1    
    90   44   45 am   BACKBONE|DICT|INTERRES
    91   44  169 1    
    92   45   46 2    
    93   45   47 1    
    94   47   48 1    
    95   47   49 1    
    96   47  170 1    
    97   48  171 1    
    98   48  172 1    
    99   48  173 1    
   100   49   50 am   BACKBONE|DICT|INTERRES
   101   49  174 1    
   102   50   51 2    
   103   50   52 1    
   104   52   53 1    
   105   52   54 1    
   106   52  175 1    
   107   53  176 1    
   108   53  177 1    
   109   53  178 1    
   110   54   55 am   BACKBONE|DICT|INTERRES
   111   54  179 1    
   112   55   56 2    
   113   55   57 1    
   114   57   58 1    
   115   57   59 1    
   116   57  180 1    
   117   58  181 1    
   118   58  182 1    
   119   58  183 1    
   120   59   60 am   BACKBONE|DICT|INTERRES
   121   59  184 1    
   122   60   61 2    
   123   60   62 1    
   124   62   63 1    
   125   62   64 1    
   126   62  185 1    
   127   63  186 1    
   128   63  187 1    
   129   63  188 1    
   130   64   65 am   BACKBONE|DICT|INTERRES
   131   64  189 1    
   132   65   66 2    
   133   67   68 2    
   134   67   69 am   BACKBONE|DICT|INTERRES
   135   69   70 1    
   136   69  190 1    
   137   70   71 1    
   138   70   72 1    
   139   70  191 1    
   140   71  192 1    
   141   71  193 1    
   142   71  194 1    
   143   72   73 2    
   144   72   74 am   BACKBONE|DICT|INTERRES
   145   74   75 1    
   146   74  195 1    
   147   75   76 1    
   148   75   77 1    
   149   75  196 1    
   150   76  197 1    
   151   76  198 1    
   152   76  199 1    
   153   77   78 2    
   154   77   79 am   BACKBONE|DICT|INTERRES
   155   79   80 1    
   156   79  200 1    
   157   80   81 1    
   158   80   82 1    
   159   80  201 1    
   160   81  202 1    
   161   81  203 1    
   162   81  204 1    
   163   82   83 2    
   164   82   84 am   BACKBONE|DICT|INTERRES
   165   84   85 1    
   166   84  205 1    
   167   85   86 1    
   168   85   87 1    
   169   85  206 1    
   170   86  207 1    
   171   86  208 1    
   172   86  209 1    
   173   87   88 2    
   174   87   89 am   BACKBONE|DICT|INTERRES
   175   89   90 1    
   176   89  210 1    
   177   90   91 1    
   178   90   92 1    
   179   90  211 1    
   180   91  212 1    
   181   91  213 1    
   182   91  214 1    
   183   92   93 2    
   184   92   94 am   BACKBONE|DICT|INTERRES
   185   94   95 1    
   186   94  215 1    
   187   95   96 1    
   188   95   97 1    
   189   95  216 1    
   190   96  217 1    
   191   96  218 1    
   192   96  219 1    
   193   97   98 2    
   194   97   99 am   BACKBONE|DICT|INTERRES
   195   99  100 1    
   196   99  220 1    
   197  100  101 1    
   198  100  102 1    
   199  100  221 1    
   200  101  222 1    
   201  101  223 1    
   202  101  224 1    
   203  102  103 2    
   204  102  104 am   BACKBONE|DICT|INTERRES
   205  104  105 1    
   206  104  225 1    
   207  105  106 1    
   208  105  107 1    
   209  105  226 1    
   210  106  227 1    
   211  106  228 1    
   212  106  229 1    
   213  107  108 2    
   214  107  109 am   BACKBONE|DICT|INTERRES
   215  109  110 1    
   216  109  230 1    
   217  110  111 1    
   218  110  112 1    
   219  110  231 1    
   220  111  232 1    
   221  111  233 1    
   222  111  234 1    
   223  112  113 2    
   224  112  114 am   BACKBONE|DICT|INTERRES
   225  114  115 1    
   226  114  235 1    
   227  115  116 1    
   228  115  117 1    
   229  115  236 1    
   230  116  237 1    
   231  116  238 1    
   232  116  239 1    
   233  117  118 2    
   234  117  119 am   BACKBONE|DICT|INTERRES
   235  119  120 1    
   236  119  240 1    
   237  120  121 1    
   238  120  124 1    
   239  120  241 1    
   240  121  122 am   BACKBONE|DICT|INTERRES
   241  121  123 2    
   242  122  242 1    
   243  122  243 1    
   244  124  125 1    
   245  124  244 1    
   246  124  245 1    
   247  125  126 1    
   248  126  246 1    
   249  126  247 1    
@<TRIPOS>SUBSTRUCTURE
     1 UNK         1 GROUP             0       ****    0 ROOT    
