@<TRIPOS>MOLECULE
3R540
247   249    1
SMALL
USER_CHARGES


@<TRIPOS>ATOM
      1 CA         -2.5363  -13.4657  -44.5441 C.3       0 UNK        -0.1800 
      2 C          -1.7786  -12.5562  -45.5000 C.2       0 UNK         0.5000 
      3 O          -1.6104  -11.3696  -45.2203 O.2       0 UNK        -0.5000 
      4 N          -1.2905  -13.1196  -46.6125 N.am      1 UNK        -0.5000 
      5 CA         -0.5572  -12.4316  -47.6883 C.3       1 UNK         0.1400 
      6 C6         -0.3275  -13.3692  -48.8982 C.3       23 UNK        -0.0398 
      7 S7         -1.9037  -13.9420  -49.6194 S.3       23 UNK        -0.2404 
      8 C8         -1.3693  -14.5212  -51.2589 C.3       23 UNK        -0.0205 
      9 C9         -0.8551  -15.9515  -51.2130 C.ar      23 UNK        -0.0193 
     10 C10        -1.7206  -17.0147  -51.4886 C.ar      23 UNK        -0.1150 
     11 C11        -1.2523  -18.3311  -51.4776 C.ar      23 UNK        -0.0193 
     12 C12         0.0952  -18.5727  -51.2085 C.ar      23 UNK        -0.1150 
     13 C13         0.9568  -17.5302  -50.8621 C.ar      23 UNK        -0.0193 
     14 C14         0.4794  -16.2162  -50.8889 C.ar      23 UNK        -0.1150 
     15 C15         2.3895  -17.8210  -50.4215 C.3       23 UNK        -0.0205 
     16 S16         2.5302  -19.1736  -49.1905 S.3       23 UNK        -0.2404 
     17 C17         1.2585  -18.7354  -47.9548 C.3       23 UNK        -0.0398 
     18 CA          0.0691  -19.7357  -47.9871 C.3       11 UNK         0.1400 
     19 N           0.3977  -20.9665  -47.2722 N.am      11 UNK        -0.5000 
     20 C          -0.1745  -22.1609  -47.4650 C.2       10 UNK         0.5000 
     21 O          -1.0300  -22.3769  -48.3253 O.2       10 UNK        -0.5000 
     22 CA          0.3145  -23.3220  -46.5707 C.3       10 UNK         0.1400 
     23 CB          1.0684  -24.3675  -47.4068 C.3       10 UNK        -0.1800 
     24 N           1.2009  -22.8838  -45.4881 N.am      10 UNK        -0.5000 
     25 C           0.7957  -22.3123  -44.3473 C.2       9 UNK         0.5000 
     26 O          -0.3911  -22.1728  -44.0470 O.2       9 UNK        -0.5000 
     27 CA          1.9102  -21.8255  -43.3983 C.3       9 UNK         0.1400 
     28 CB          3.0548  -21.1156  -44.1498 C.3       9 UNK        -0.1800 
     29 N           1.3662  -20.8960  -42.4134 N.am      9 UNK        -0.5000 
     30 C           1.0316  -21.2045  -41.1548 C.2       8 UNK         0.5000 
     31 O           1.1985  -22.3203  -40.6591 O.2       8 UNK        -0.5000 
     32 CA          0.4276  -20.0820  -40.2859 C.3       8 UNK         0.1400 
     33 CB          1.4344  -19.6389  -39.2127 C.3       8 UNK        -0.1800 
     34 N           0.0059  -18.9128  -41.0638 N.am      8 UNK        -0.5000 
     35 C          -1.1432  -18.8460  -41.7509 C.2       7 UNK         0.5000 
     36 O          -1.9960  -19.7340  -41.7332 O.2       7 UNK        -0.5000 
     37 CA         -1.3942  -17.5867  -42.6041 C.3       7 UNK         0.1400 
     38 CB         -2.1977  -16.5472  -41.8090 C.3       7 UNK        -0.1800 
     39 N          -0.1886  -16.9516  -43.1432 N.am      7 UNK        -0.5000 
     40 C           0.6484  -17.5261  -44.0201 C.2       6 UNK         0.5000 
     41 O           0.5864  -18.7039  -44.3652 O.2       6 UNK        -0.5000 
     42 CA          1.7446  -16.6309  -44.6115 C.3       6 UNK         0.1400 
     43 CB          1.1434  -15.6232  -45.6018 C.3       6 UNK        -0.1800 
     44 N           2.4653  -15.9308  -43.5531 N.am      6 UNK        -0.5000 
     45 C           3.5269  -16.4445  -42.9156 C.2       5 UNK         0.5000 
     46 O           4.0821  -17.4935  -43.2433 O.2       5 UNK        -0.5000 
     47 CA          4.0440  -15.6757  -41.6847 C.3       5 UNK         0.1400 
     48 CB          5.1895  -14.7309  -42.0773 C.3       5 UNK        -0.1800 
     49 N           2.9977  -14.9194  -40.9922 N.am      5 UNK        -0.5000 
     50 C           1.9537  -15.4796  -40.3626 C.2       4 UNK         0.5000 
     51 O           1.7630  -16.6930  -40.3084 O.2       4 UNK        -0.5000 
     52 CA          0.9211  -14.5331  -39.7243 C.3       4 UNK         0.1400 
     53 CB          1.2852  -14.2545  -38.2587 C.3       4 UNK        -0.1800 
     54 N           0.7597  -13.2611  -40.4301 N.am      4 UNK        -0.5000 
     55 C           0.4008  -13.1182  -41.7127 C.2       3 UNK         0.5000 
     56 O           0.1788  -14.0694  -42.4703 O.2       3 UNK        -0.5000 
     57 CA          0.2914  -11.6755  -42.2534 C.3       3 UNK         0.1400 
     58 CB          0.8440  -10.5891  -41.3027 C.3       3 UNK        -0.1800 
     59 N           0.9011  -11.5595  -43.5789 N.am      3 UNK        -0.5000 
     60 C           2.1735  -11.8311  -43.9101 C.2       2 UNK         0.5000 
     61 O           3.0431  -12.1287  -43.0902 O.2       2 UNK        -0.5000 
     62 CA          2.5006  -11.8184  -45.4152 C.3       2 UNK         0.1400 
     63 CB          3.7615  -12.6339  -45.7580 C.3       2 UNK        -0.1800 
     64 N           1.3560  -12.3521  -46.1511 N.am      2 UNK        -0.5000 
     65 C           0.7784  -11.8033  -47.2248 C.2       1 UNK         0.5000 
     66 O           1.2339  -10.8297  -47.8256 O.2       1 UNK        -0.5000 
     67 C          -1.2365  -19.0940  -47.4715 C.2       11 UNK         0.5000 
     68 O          -1.7814  -19.4960  -46.4412 O.2       11 UNK        -0.5000 
     69 N          -1.7089  -18.0868  -48.2196 N.am      12 UNK        -0.5000 
     70 CA         -2.9214  -17.3054  -47.9767 C.3       12 UNK         0.1400 
     71 CB         -2.7538  -16.4344  -46.7111 C.3       12 UNK        -0.1800 
     72 C          -4.1830  -18.1919  -47.9848 C.2       12 UNK         0.5000 
     73 O          -4.3303  -19.0190  -48.8867 O.2       12 UNK        -0.5000 
     74 N          -5.0610  -18.0132  -46.9887 N.am      13 UNK        -0.5000 
     75 CA         -6.3539  -18.6875  -46.8437 C.3       13 UNK         0.1400 
     76 CB         -7.0877  -18.0857  -45.6350 C.3       13 UNK        -0.1800 
     77 C          -6.2845  -20.2234  -46.7208 C.2       13 UNK         0.5000 
     78 O          -7.2971  -20.8846  -46.9546 O.2       13 UNK        -0.5000 
     79 N          -5.1105  -20.7697  -46.3707 N.am      14 UNK        -0.5000 
     80 CA         -4.8556  -22.2102  -46.3432 C.3       14 UNK         0.1400 
     81 CB         -3.5447  -22.4836  -45.5934 C.3       14 UNK        -0.1800 
     82 C          -4.8267  -22.8409  -47.7499 C.2       14 UNK         0.5000 
     83 O          -5.1701  -24.0151  -47.8802 O.2       14 UNK        -0.5000 
     84 N          -4.4278  -22.0575  -48.7661 N.am      15 UNK        -0.5000 
     85 CA         -4.4303  -22.3292  -50.2134 C.3       15 UNK         0.1400 
     86 CB         -5.8786  -22.4730  -50.7141 C.3       15 UNK        -0.1800 
     87 C          -3.5523  -23.5016  -50.7144 C.2       15 UNK         0.5000 
     88 O          -3.3051  -23.5900  -51.9177 O.2       15 UNK        -0.5000 
     89 N          -3.0917  -24.3697  -49.8060 N.am      16 UNK        -0.5000 
     90 CA         -2.3502  -25.6100  -50.0466 C.3       16 UNK         0.1400 
     91 CB         -2.2675  -26.3834  -48.7205 C.3       16 UNK        -0.1800 
     92 C          -0.9499  -25.4373  -50.6682 C.2       16 UNK         0.5000 
     93 O          -0.3539  -26.4290  -51.0911 O.2       16 UNK        -0.5000 
     94 N          -0.4450  -24.1978  -50.7220 N.am      17 UNK        -0.5000 
     95 CA          0.7746  -23.8126  -51.4359 C.3       17 UNK         0.1400 
     96 CB          1.0749  -22.3419  -51.1262 C.3       17 UNK        -0.1800 
     97 C           0.6844  -24.0251  -52.9629 C.2       17 UNK         0.5000 
     98 O           1.7168  -24.2042  -53.6107 O.2       17 UNK        -0.5000 
     99 N          -0.5407  -24.0180  -53.4990 N.am      18 UNK        -0.5000 
    100 CA        -0.8816  -24.3843  -54.8689 C.3       18 UNK         0.1400 
    101 CB        -1.4350  -23.1369  -55.5819 C.3       18 UNK        -0.1800 
    102 C         -1.9294  -25.5106  -54.8271 C.2       18 UNK         0.5000 
    103 O         -2.3191  -25.9619  -53.7468 O.2       18 UNK        -0.5000 
    104 N         -2.4358  -25.9150  -55.9988 N.am      19 UNK        -0.5000 
    105 CA        -3.5741  -26.8316  -56.1487 C.3       19 UNK         0.1400 
    106 CB        -3.5245  -27.4545  -57.5555 C.3       19 UNK        -0.1800 
    107 C         -4.9161  -26.1172  -55.8577 C.2       19 UNK         0.5000 
    108 O         -5.8176  -26.1211  -56.6964 O.2       19 UNK        -0.5000 
    109 N         -4.9813  -25.4465  -54.6978 N.am      20 UNK        -0.5000 
    110 CA        -6.0237  -24.5451  -54.1896 C.3       20 UNK         0.1400 
    111 CB        -7.3696  -25.2808  -54.0408 C.3       20 UNK        -0.1800 
    112 C         -6.1807  -23.2228  -54.9765 C.2       20 UNK         0.5000 
    113 O         -6.9795  -22.3761  -54.5735 O.2       20 UNK        -0.5000 
    114 N         -5.4206  -23.0538  -56.0679 N.am      21 UNK        -0.5000 
    115 CA        -5.5486  -21.9830  -57.0593 C.3       21 UNK         0.1400 
    116 CB        -4.5610  -22.2503  -58.2056 C.3       21 UNK        -0.1800 
    117 C         -5.3593  -20.5586  -56.5080 C.2       21 UNK         0.5000 
    118 O         -6.0022  -19.6329  -57.0053 O.2       21 UNK        -0.5000 
    119 N         -4.4978  -20.4096  -55.4950 N.am      22 UNK        -0.5000 
    120 CA        -4.2703  -19.1453  -54.7788 C.3       22 UNK         0.1400 
    121 C         -5.2575  -18.8857  -53.6013 C.2       22 UNK         0.5000 
    122 N         -6.2059  -19.7690  -53.3082 N.am      22 UNK        -0.7600 
    123 O         -5.1775  -17.8462  -52.9532 O.2       22 UNK        -0.5000 
    124 C124       -2.7820  -18.9625  -54.3811 C.3       23 UNK        -0.0398 
    125 S125       -2.1029  -20.2721  -53.3030 S.3       23 UNK        -0.2404 
    126 C126       -2.2118  -19.4977  -51.6609 C.3       23 UNK        -0.0205 
    127 H127       -3.5971  -13.4763  -44.7932 H         1 UNK         0.0600 
    128 H128       -2.4291  -13.1156  -43.5177 H         1 UNK         0.0600 
    129 H129       -2.1575  -14.4867  -44.5866 H         1 UNK         0.0600 
    130 H130       -1.5004  -14.0882  -46.7986 H         1 UNK         0.3000 
    131 H131       -1.1853  -11.6021  -48.0204 H         1 UNK         0.0600 
    132 H132        0.2381  -12.8519  -49.6755 H         1 UNK         0.0800 
    133 H133        0.2646  -14.2383  -48.6068 H         1 UNK         0.0800 
    134 H134       -2.2185  -14.4585  -51.9412 H         1 UNK         0.0800 
    135 H135       -0.6080  -13.8561  -51.6688 H         1 UNK         0.0800 
    136 H136       -2.7634  -16.8184  -51.6984 H         1 UNK         0.1150 
    137 H137        0.4674  -19.5836  -51.2061 H         1 UNK         0.1150 
    138 H138        1.1431  -15.3978  -50.6481 H         1 UNK         0.1150 
    139 H139        2.8451  -16.9253  -49.9965 H         1 UNK         0.0800 
    140 H140        2.9816  -18.0808  -51.2997 H         1 UNK         0.0800 
    141 H141        0.9441  -17.7077  -48.1384 H         1 UNK         0.0800 
    142 H142        1.7217  -18.7233  -46.9679 H         1 UNK         0.0800 
    143 H143       -0.1332  -20.0185  -49.0189 H         1 UNK         0.0600 
    144 H144        1.0428  -20.8729  -46.5037 H         1 UNK         0.3000 
    145 H145       -0.5680  -23.7982  -46.1383 H         1 UNK         0.0600 
    146 H146        0.4233  -24.7969  -48.1701 H         1 UNK         0.0600 
    147 H147        1.4201  -25.1922  -46.7868 H         1 UNK         0.0600 
    148 H148        1.9315  -23.9338  -47.9136 H         1 UNK         0.0600 
    149 H149        2.1916  -22.9820  -45.6577 H         1 UNK         0.3000 
    150 H150        2.3240  -22.7041  -42.8996 H         1 UNK         0.0600 
    151 H151        2.6883  -20.3033  -44.7781 H         1 UNK         0.0600 
    152 H152        3.6061  -21.8063  -44.7881 H         1 UNK         0.0600 
    153 H153        3.7756  -20.6888  -43.4516 H         1 UNK         0.0600 
    154 H154        1.0974  -19.9889  -42.7772 H         1 UNK         0.3000 
    155 H155       -0.4432  -20.4975  -39.7746 H         1 UNK         0.0600 
    156 H156        2.3525  -19.2544  -39.6587 H         1 UNK         0.0600 
    157 H157        1.7094  -20.4727  -38.5657 H         1 UNK         0.0600 
    158 H158        1.0168  -18.8585  -38.5764 H         1 UNK         0.0600 
    159 H159        0.6424  -18.1208  -41.0716 H         1 UNK         0.3000 
    160 H160       -1.9999  -17.8978  -43.4581 H         1 UNK         0.0600 
    161 H161       -3.1366  -16.9706  -41.4499 H         1 UNK         0.0600 
    162 H162       -1.6445  -16.1942  -40.9398 H         1 UNK         0.0600 
    163 H163       -2.4461  -15.6817  -42.4225 H         1 UNK         0.0600 
    164 H164       -0.0500  -15.9755  -42.8999 H         1 UNK         0.3000 
    165 H165        2.4349  -17.2681  -45.1683 H         1 UNK         0.0600 
    166 H166        1.9280  -15.0983  -46.1448 H         1 UNK         0.0600 
    167 H167        0.5250  -16.1269  -46.3446 H         1 UNK         0.0600 
    168 H168        0.5171  -14.8889  -45.0962 H         1 UNK         0.0600 
    169 H169        2.0407  -15.0904  -43.1824 H         1 UNK         0.3000 
    170 H170        4.4393  -16.4122  -40.9818 H         1 UNK         0.0600 
    171 H171        5.5811  -14.1997  -41.2098 H         1 UNK         0.0600 
    172 H172        4.8697  -13.9905  -42.8103 H         1 UNK         0.0600 
    173 H173        6.0174  -15.2875  -42.5183 H         1 UNK         0.0600 
    174 H174        3.0601  -13.9116  -41.0338 H         1 UNK         0.3000 
    175 H175       -0.0430  -15.0424  -39.7407 H         1 UNK         0.0600 
    176 H176        1.3897  -15.1849  -37.6986 H         1 UNK         0.0600 
    177 H177        2.2280  -13.7126  -38.1741 H         1 UNK         0.0600 
    178 H178        0.5124  -13.6653  -37.7646 H         1 UNK         0.0600 
    179 H179        0.9392  -12.4264  -39.8913 H         1 UNK         0.3000 
    180 H180       -0.7737  -11.4846  -42.3888 H         1 UNK         0.0600 
    181 H181        1.8970  -10.7454  -41.0653 H         1 UNK         0.0600 
    182 H182        0.2887  -10.5620  -40.3645 H         1 UNK         0.0600 
    183 H183        0.7527   -9.5997  -41.7511 H         1 UNK         0.0600 
    184 H184        0.2480  -11.3418  -44.3241 H         1 UNK         0.3000 
    185 H185        2.6738  -10.7760  -45.6900 H         1 UNK         0.0600 
    186 H186        4.6457  -12.1988  -45.2908 H         1 UNK         0.0600 
    187 H187        3.6836  -13.6646  -45.4112 H         1 UNK         0.0600 
    188 H188        3.9392  -12.6529  -46.8333 H         1 UNK         0.0600 
    189 H189        0.8892  -13.1348  -45.7170 H         1 UNK         0.3000 
    190 H190       -1.2319  -17.8623  -49.0826 H         1 UNK         0.3000 
    191 H191       -3.0271  -16.6336  -48.8287 H         1 UNK         0.0600 
    192 H192       -1.8308  -15.8612  -46.7658 H         1 UNK         0.0600 
    193 H193       -3.5706  -15.7186  -46.6105 H         1 UNK         0.0600 
    194 H194       -2.7118  -17.0312  -45.7992 H         1 UNK         0.0600 
    195 H195       -4.8404  -17.3281  -46.2813 H         1 UNK         0.3000 
    196 H196       -6.9366  -18.4678  -47.7406 H         1 UNK         0.0600 
    197 H197       -8.0738  -18.5354  -45.5105 H         1 UNK         0.0600 
    198 H198       -7.2366  -17.0125  -45.7563 H         1 UNK         0.0600 
    199 H199       -6.5345  -18.2470  -44.7089 H         1 UNK         0.0600 
    200 H200       -4.3195  -20.1623  -46.2029 H         1 UNK         0.3000 
    201 H201       -5.6650  -22.6887  -45.7876 H         1 UNK         0.0600 
    202 H202       -3.3214  -23.5508  -45.5639 H         1 UNK         0.0600 
    203 H203       -3.5971  -22.1332  -44.5624 H         1 UNK         0.0600 
    204 H204       -2.7017  -21.9848  -46.0684 H         1 UNK         0.0600 
    205 H205       -4.1763  -21.1031  -48.5333 H         1 UNK         0.3000 
    206 H206       -4.0237  -21.4303  -50.6740 H         1 UNK         0.0600 
    207 H207       -6.5035  -21.6560  -50.3528 H         1 UNK         0.0600 
    208 H208       -5.9170  -22.4435  -51.8024 H         1 UNK         0.0600 
    209 H209       -6.3293  -23.4112  -50.3888 H         1 UNK         0.0600 
    210 H210       -3.4012  -24.2198  -48.8544 H         1 UNK         0.3000 
    211 H211       -2.9323  -26.2042  -50.7538 H         1 UNK         0.0600 
    212 H212       -1.7567  -25.8057  -47.9497 H         1 UNK         0.0600 
    213 H213       -1.7270  -27.3230  -48.8423 H         1 UNK         0.0600 
    214 H214       -3.2620  -26.6293  -48.3474 H         1 UNK         0.0600 
    215 H215       -0.9681  -23.4553  -50.2740 H         1 UNK         0.3000 
    216 H216        1.5978  -24.4242  -51.0617 H         1 UNK         0.0600 
    217 H217        0.2258  -21.7184  -51.4023 H         1 UNK         0.0600 
    218 H218        1.9453  -21.9861  -51.6791 H         1 UNK         0.0600 
    219 H219        1.2800  -22.1901  -50.0671 H         1 UNK         0.0600 
    220 H220       -1.3368  -23.9314  -52.8752 H         1 UNK         0.3000 
    221 H221       -0.0062  -24.7554  -55.4051 H         1 UNK         0.0600 
    222 H222       -2.3766  -22.8085  -55.1404 H         1 UNK         0.0600 
    223 H223       -0.7326  -22.3053  -55.5203 H         1 UNK         0.0600 
    224 H224       -1.6124  -23.3274  -56.6404 H         1 UNK         0.0600 
    225 H225       -2.0831  -25.5033  -56.8508 H         1 UNK         0.3000 
    226 H226       -3.4767  -27.6426  -55.4238 H         1 UNK         0.0600 
    227 H227       -2.5860  -27.9847  -57.7185 H         1 UNK         0.0600 
    228 H228       -4.3305  -28.1765  -57.6929 H         1 UNK         0.0600 
    229 H229       -3.6228  -26.6983  -58.3354 H         1 UNK         0.0600 
    230 H230       -4.1578  -25.5148  -54.1040 H         1 UNK         0.3000 
    231 H231       -5.6942  -24.2650  -53.1900 H         1 UNK         0.0600 
    232 H232       -7.7984  -25.5452  -55.0077 H         1 UNK         0.0600 
    233 H233       -8.0991  -24.6573  -53.5224 H         1 UNK         0.0600 
    234 H234       -7.2568  -26.1963  -53.4603 H         1 UNK         0.0600 
    235 H235       -4.8052  -23.8131  -56.3151 H         1 UNK         0.3000 
    236 H236       -6.5611  -22.0400  -57.4639 H         1 UNK         0.0600 
    237 H237       -4.6586  -21.4974  -58.9889 H         1 UNK         0.0600 
    238 H238       -3.5274  -22.2296  -57.8587 H         1 UNK         0.0600 
    239 H239       -4.7426  -23.2216  -58.6663 H         1 UNK         0.0600 
    240 H240       -4.0249  -21.2210  -55.1260 H         1 UNK         0.3000 
    241 H241       -4.4789  -18.3319  -55.4763 H         1 UNK         0.0600 
    242 H242       -6.8391  -19.5684  -52.5517 H         1 UNK         0.3800 
    243 H243       -6.3323  -20.6155  -53.8518 H         1 UNK         0.3800 
    244 H244       -2.6254  -17.9831  -53.9297 H         1 UNK         0.0800 
    245 H245       -2.1757  -18.9526  -55.2875 H         1 UNK         0.0800 
    246 H246       -3.2380  -19.1826  -51.4687 H         1 UNK         0.0800 
    247 H247       -1.9873  -20.2548  -50.9083 H         1 UNK         0.0800 
@<TRIPOS>BOND
     1    1    2 1    
     2    1  127 1    
     3    1  128 1    
     4    1  129 1    
     5    2    3 2    
     6    2    4 am   BACKBONE|DICT|INTERRES
     7    4    5 1    
     8    4  130 1    
     9    5    6 1    
    10    5   65 1    
    11    5  131 1    
    12    6    7 1    
    13    6  132 1    
    14    6  133 1    
    15    7    8 1    
    16    8    9 1    
    17    8  134 1    
    18    8  135 1    
    19    9   10 ar   
    20    9   14 ar   
    21   10   11 ar   
    22   10  136 1    
    23   11   12 ar   
    24   11  126 1    
    25   12   13 ar   
    26   12  137 1    
    27   13   14 ar   
    28   13   15 1    
    29   14  138 1    
    30   15   16 1    
    31   15  139 1    
    32   15  140 1    
    33   16   17 1    
    34   17   18 1    
    35   17  141 1    
    36   17  142 1    
    37   18   19 1    
    38   18   67 1    
    39   18  143 1    
    40   19   20 am   BACKBONE|DICT|INTERRES
    41   19  144 1    
    42   20   21 2    
    43   20   22 1    
    44   22   23 1    
    45   22   24 1    
    46   22  145 1    
    47   23  146 1    
    48   23  147 1    
    49   23  148 1    
    50   24   25 am   BACKBONE|DICT|INTERRES
    51   24  149 1    
    52   25   26 2    
    53   25   27 1    
    54   27   28 1    
    55   27   29 1    
    56   27  150 1    
    57   28  151 1    
    58   28  152 1    
    59   28  153 1    
    60   29   30 am   BACKBONE|DICT|INTERRES
    61   29  154 1    
    62   30   31 2    
    63   30   32 1    
    64   32   33 1    
    65   32   34 1    
    66   32  155 1    
    67   33  156 1    
    68   33  157 1    
    69   33  158 1    
    70   34   35 am   BACKBONE|DICT|INTERRES
    71   34  159 1    
    72   35   36 2    
    73   35   37 1    
    74   37   38 1    
    75   37   39 1    
    76   37  160 1    
    77   38  161 1    
    78   38  162 1    
    79   38  163 1    
    80   39   40 am   BACKBONE|DICT|INTERRES
    81   39  164 1    
    82   40   41 2    
    83   40   42 1    
    84   42   43 1    
    85   42   44 1    
    86   42  165 1    
    87   43  166 1    
    88   43  167 1    
    89   43  168 1    
    90   44   45 am   BACKBONE|DICT|INTERRES
    91   44  169 1    
    92   45   46 2    
    93   45   47 1    
    94   47   48 1    
    95   47   49 1    
    96   47  170 1    
    97   48  171 1    
    98   48  172 1    
    99   48  173 1    
   100   49   50 am   BACKBONE|DICT|INTERRES
   101   49  174 1    
   102   50   51 2    
   103   50   52 1    
   104   52   53 1    
   105   52   54 1    
   106   52  175 1    
   107   53  176 1    
   108   53  177 1    
   109   53  178 1    
   110   54   55 am   BACKBONE|DICT|INTERRES
   111   54  179 1    
   112   55   56 2    
   113   55   57 1    
   114   57   58 1    
   115   57   59 1    
   116   57  180 1    
   117   58  181 1    
   118   58  182 1    
   119   58  183 1    
   120   59   60 am   BACKBONE|DICT|INTERRES
   121   59  184 1    
   122   60   61 2    
   123   60   62 1    
   124   62   63 1    
   125   62   64 1    
   126   62  185 1    
   127   63  186 1    
   128   63  187 1    
   129   63  188 1    
   130   64   65 am   BACKBONE|DICT|INTERRES
   131   64  189 1    
   132   65   66 2    
   133   67   68 2    
   134   67   69 am   BACKBONE|DICT|INTERRES
   135   69   70 1    
   136   69  190 1    
   137   70   71 1    
   138   70   72 1    
   139   70  191 1    
   140   71  192 1    
   141   71  193 1    
   142   71  194 1    
   143   72   73 2    
   144   72   74 am   BACKBONE|DICT|INTERRES
   145   74   75 1    
   146   74  195 1    
   147   75   76 1    
   148   75   77 1    
   149   75  196 1    
   150   76  197 1    
   151   76  198 1    
   152   76  199 1    
   153   77   78 2    
   154   77   79 am   BACKBONE|DICT|INTERRES
   155   79   80 1    
   156   79  200 1    
   157   80   81 1    
   158   80   82 1    
   159   80  201 1    
   160   81  202 1    
   161   81  203 1    
   162   81  204 1    
   163   82   83 2    
   164   82   84 am   BACKBONE|DICT|INTERRES
   165   84   85 1    
   166   84  205 1    
   167   85   86 1    
   168   85   87 1    
   169   85  206 1    
   170   86  207 1    
   171   86  208 1    
   172   86  209 1    
   173   87   88 2    
   174   87   89 am   BACKBONE|DICT|INTERRES
   175   89   90 1    
   176   89  210 1    
   177   90   91 1    
   178   90   92 1    
   179   90  211 1    
   180   91  212 1    
   181   91  213 1    
   182   91  214 1    
   183   92   93 2    
   184   92   94 am   BACKBONE|DICT|INTERRES
   185   94   95 1    
   186   94  215 1    
   187   95   96 1    
   188   95   97 1    
   189   95  216 1    
   190   96  217 1    
   191   96  218 1    
   192   96  219 1    
   193   97   98 2    
   194   97   99 am   BACKBONE|DICT|INTERRES
   195   99  100 1    
   196   99  220 1    
   197  100  101 1    
   198  100  102 1    
   199  100  221 1    
   200  101  222 1    
   201  101  223 1    
   202  101  224 1    
   203  102  103 2    
   204  102  104 am   BACKBONE|DICT|INTERRES
   205  104  105 1    
   206  104  225 1    
   207  105  106 1    
   208  105  107 1    
   209  105  226 1    
   210  106  227 1    
   211  106  228 1    
   212  106  229 1    
   213  107  108 2    
   214  107  109 am   BACKBONE|DICT|INTERRES
   215  109  110 1    
   216  109  230 1    
   217  110  111 1    
   218  110  112 1    
   219  110  231 1    
   220  111  232 1    
   221  111  233 1    
   222  111  234 1    
   223  112  113 2    
   224  112  114 am   BACKBONE|DICT|INTERRES
   225  114  115 1    
   226  114  235 1    
   227  115  116 1    
   228  115  117 1    
   229  115  236 1    
   230  116  237 1    
   231  116  238 1    
   232  116  239 1    
   233  117  118 2    
   234  117  119 am   BACKBONE|DICT|INTERRES
   235  119  120 1    
   236  119  240 1    
   237  120  121 1    
   238  120  124 1    
   239  120  241 1    
   240  121  122 am   BACKBONE|DICT|INTERRES
   241  121  123 2    
   242  122  242 1    
   243  122  243 1    
   244  124  125 1    
   245  124  244 1    
   246  124  245 1    
   247  125  126 1    
   248  126  246 1    
   249  126  247 1    
@<TRIPOS>SUBSTRUCTURE
     1 UNK         1 GROUP             0       ****    0 ROOT    
