@<TRIPOS>MOLECULE
3R540
247   249    1
SMALL
USER_CHARGES


@<TRIPOS>ATOM
      1 CA         -2.1424  -16.1965  -47.2846 C.3       0 UNK        -0.1800 
      2 C          -1.0245  -15.2781  -47.7507 C.2       0 UNK         0.5000 
      3 O          -0.0972  -15.0098  -46.9907 O.2       0 UNK        -0.5000 
      4 N          -1.1103  -14.7856  -48.9937 N.am      1 UNK        -0.5000 
      5 CA         -0.1300  -13.9122  -49.6613 C.3       1 UNK         0.1400 
      6 C6          1.2118  -14.6220  -49.9926 C.3       23 UNK        -0.0398 
      7 S7          0.9776  -16.0821  -51.0659 S.3       23 UNK        -0.2404 
      8 C8          1.1985  -17.4312  -49.8629 C.3       23 UNK        -0.0205 
      9 C9          0.5746  -18.7367  -50.3313 C.ar      23 UNK        -0.0193 
     10 C10        -0.7974  -18.8017  -50.5928 C.ar      23 UNK        -0.1150 
     11 C11        -1.3935  -20.0070  -50.9691 C.ar      23 UNK        -0.0193 
     12 C12        -0.6144  -21.1650  -51.0195 C.ar      23 UNK        -0.1150 
     13 C13         0.7472  -21.1301  -50.7085 C.ar      23 UNK        -0.0193 
     14 C14         1.3480  -19.8981  -50.4235 C.ar      23 UNK        -0.1150 
     15 C15         1.5194  -22.4482  -50.6744 C.3       23 UNK        -0.0205 
     16 S16         2.8114  -22.6142  -49.3845 S.3       23 UNK        -0.2404 
     17 C17         2.1451  -21.8344  -47.8699 C.3       23 UNK        -0.0398 
     18 CA          1.1902  -22.7014  -47.0119 C.3       11 UNK         0.1400 
     19 N           1.2347  -22.2959  -45.6021 N.am      11 UNK        -0.5000 
     20 C           0.5557  -22.8595  -44.5927 C.2       10 UNK         0.5000 
     21 O          -0.1469  -23.8612  -44.7137 O.2       10 UNK        -0.5000 
     22 CA          0.6223  -22.1468  -43.2283 C.3       10 UNK         0.1400 
     23 CB          1.9026  -22.5228  -42.4686 C.3       10 UNK        -0.1800 
     24 N           0.5242  -20.6905  -43.3499 N.am      10 UNK        -0.5000 
     25 C          -0.5492  -20.0427  -43.8280 C.2       9 UNK         0.5000 
     26 O          -1.5893  -20.6052  -44.1678 O.2       9 UNK        -0.5000 
     27 CA         -0.4263  -18.5188  -43.9989 C.3       9 UNK         0.1400 
     28 CB         -0.7284  -17.7932  -42.6817 C.3       9 UNK        -0.1800 
     29 N           0.8963  -18.1327  -44.4887 N.am      9 UNK        -0.5000 
     30 C           1.3259  -18.3759  -45.7352 C.2       8 UNK         0.5000 
     31 O           0.6329  -18.9069  -46.6044 O.2       8 UNK        -0.5000 
     32 CA          2.7961  -18.0311  -46.0410 C.3       8 UNK         0.1400 
     33 CB          2.9621  -16.5499  -46.4018 C.3       8 UNK        -0.1800 
     34 N           3.7001  -18.3617  -44.9373 N.am      8 UNK        -0.5000 
     35 C           3.9613  -19.6117  -44.5345 C.2       7 UNK         0.5000 
     36 O           3.4596  -20.6092  -45.0467 O.2       7 UNK        -0.5000 
     37 CA          4.9172  -19.7855  -43.3431 C.3       7 UNK         0.1400 
     38 CB          6.3764  -19.7919  -43.8226 C.3       7 UNK        -0.1800 
     39 N           4.7605  -18.7861  -42.2852 N.am      7 UNK        -0.5000 
     40 C           3.6359  -18.5365  -41.6004 C.2       6 UNK         0.5000 
     41 O           2.5474  -19.0566  -41.8612 O.2       6 UNK        -0.5000 
     42 CA          3.7771  -17.5929  -40.3866 C.3       6 UNK         0.1400 
     43 CB          4.8269  -16.4758  -40.5913 C.3       6 UNK        -0.1800 
     44 N           2.4980  -17.0360  -39.9369 N.am      6 UNK        -0.5000 
     45 C           1.7253  -16.1535  -40.5828 C.2       5 UNK         0.5000 
     46 O           1.9895  -15.6868  -41.6944 O.2       5 UNK        -0.5000 
     47 CA          0.4446  -15.7099  -39.8518 C.3       5 UNK         0.1400 
     48 CB          0.7043  -15.3572  -38.3704 C.3       5 UNK        -0.1800 
     49 N          -0.1162  -14.5547  -40.5438 N.am      5 UNK        -0.5000 
     50 C          -1.3694  -14.0990  -40.4397 C.2       4 UNK         0.5000 
     51 O          -2.2396  -14.6479  -39.7625 O.2       4 UNK        -0.5000 
     52 CA         -1.7098  -12.7982  -41.1940 C.3       4 UNK         0.1400 
     53 CB         -1.8274  -11.6256  -40.2069 C.3       4 UNK        -0.1800 
     54 N          -0.7145  -12.4522  -42.2125 N.am      4 UNK        -0.5000 
     55 C          -0.7336  -12.9125  -43.4678 C.2       3 UNK         0.5000 
     56 O          -1.6061  -13.6645  -43.9092 O.2       3 UNK        -0.5000 
     57 CA          0.4300  -12.4731  -44.3712 C.3       3 UNK         0.1400 
     58 CB          1.5000  -13.5714  -44.4414 C.3       3 UNK        -0.1800 
     59 N          -0.0654  -12.1892  -45.7160 N.am      3 UNK        -0.5000 
     60 C          -0.5592  -11.0019  -46.0958 C.2       2 UNK         0.5000 
     61 O          -0.5581  -10.0123  -45.3610 O.2       2 UNK        -0.5000 
     62 CA         -1.1942  -10.8824  -47.4996 C.3       2 UNK         0.1400 
     63 CB         -0.7348   -9.6107  -48.2436 C.3       2 UNK        -0.1800 
     64 N          -1.0533  -12.0745  -48.3428 N.am      2 UNK        -0.5000 
     65 C           0.0583  -12.5769  -48.9031 C.2       1 UNK         0.5000 
     66 O           1.1710  -12.0553  -48.8193 O.2       1 UNK        -0.5000 
     67 C          -0.2497  -22.6496  -47.5605 C.2       11 UNK         0.5000 
     68 O          -0.7214  -23.6353  -48.1274 O.2       11 UNK        -0.5000 
     69 N          -0.9353  -21.5188  -47.3331 N.am      12 UNK        -0.5000 
     70 CA         -2.3227  -21.2982  -47.7375 C.3       12 UNK         0.1400 
     71 CB         -2.7043  -19.8315  -47.4972 C.3       12 UNK        -0.1800 
     72 C          -3.3177  -22.2458  -47.0508 C.2       12 UNK         0.5000 
     73 O          -4.2219  -22.7507  -47.7179 O.2       12 UNK        -0.5000 
     74 N          -3.1179  -22.4904  -45.7491 N.am      13 UNK        -0.5000 
     75 CA         -3.9047  -23.4256  -44.9469 C.3       13 UNK         0.1400 
     76 CB         -3.5590  -23.2464  -43.4611 C.3       13 UNK        -0.1800 
     77 C          -3.7111  -24.8892  -45.3818 C.2       13 UNK         0.5000 
     78 O          -4.6946  -25.6237  -45.4753 O.2       13 UNK        -0.5000 
     79 N          -2.4591  -25.2788  -45.6626 N.am      14 UNK        -0.5000 
     80 CA         -2.0899  -26.6070  -46.1556 C.3       14 UNK         0.1400 
     81 CB         -0.5628  -26.7693  -46.1105 C.3       14 UNK        -0.1800 
     82 C          -2.6239  -26.8810  -47.5722 C.2       14 UNK         0.5000 
     83 O          -3.1080  -27.9824  -47.8365 O.2       14 UNK        -0.5000 
     84 N          -2.5469  -25.8695  -48.4475 N.am      15 UNK        -0.5000 
     85 CA         -3.1008  -25.9000  -49.8010 C.3       15 UNK         0.1400 
     86 CB         -2.5535  -24.7001  -50.5890 C.3       15 UNK        -0.1800 
     87 C          -4.6416  -25.8893  -49.8237 C.2       15 UNK         0.5000 
     88 O          -5.2335  -26.4624  -50.7386 O.2       15 UNK        -0.5000 
     89 N          -5.2442  -25.2321  -48.8206 N.am      16 UNK        -0.5000 
     90 CA         -6.6601  -24.8730  -48.7042 C.3       16 UNK         0.1400 
     91 CB         -7.5598  -26.1235  -48.6166 C.3       16 UNK        -0.1800 
     92 C          -7.0649  -23.8867  -49.8190 C.2       16 UNK         0.5000 
     93 O          -8.0628  -24.0999  -50.5108 O.2       16 UNK        -0.5000 
     94 N          -6.2430  -22.8361  -49.9752 N.am      17 UNK        -0.5000 
     95 CA         -6.2507  -21.8553  -51.0674 C.3       17 UNK         0.1400 
     96 CB         -7.5488  -21.0180  -51.0538 C.3       17 UNK        -0.1800 
     97 C          -5.9465  -22.5129  -52.4355 C.2       17 UNK         0.5000 
     98 O          -5.2906  -23.5544  -52.4743 O.2       17 UNK        -0.5000 
     99 N          -6.3990  -21.8860  -53.5313 N.am      18 UNK        -0.5000 
    100 CA        -6.4572  -22.3687  -54.9231 C.3       18 UNK         0.1400 
    101 CB        -7.4001  -23.5838  -55.0200 C.3       18 UNK        -0.1800 
    102 C         -5.1213  -22.6700  -55.6417 C.2       18 UNK         0.5000 
    103 O         -5.0937  -22.6345  -56.8727 O.2       18 UNK        -0.5000 
    104 N         -4.0486  -22.9667  -54.8988 N.am      19 UNK        -0.5000 
    105 CA        -2.7243  -23.3354  -55.4131 C.3       19 UNK         0.1400 
    106 CB        -1.8695  -23.8587  -54.2489 C.3       19 UNK        -0.1800 
    107 C         -1.9857  -22.2023  -56.1533 C.2       19 UNK         0.5000 
    108 O         -1.0723  -22.4796  -56.9322 O.2       19 UNK        -0.5000 
    109 N         -2.3913  -20.9569  -55.9007 N.am      20 UNK        -0.5000 
    110 CA        -1.8914  -19.7375  -56.5190 C.3       20 UNK         0.1400 
    111 CB        -0.6248  -19.2702  -55.7711 C.3       20 UNK        -0.1800 
    112 C         -3.0204  -18.6932  -56.4836 C.2       20 UNK         0.5000 
    113 O         -4.1685  -19.0370  -56.1856 O.2       20 UNK        -0.5000 
    114 N         -2.6789  -17.4251  -56.7503 N.am      21 UNK        -0.5000 
    115 CA        -3.5577  -16.2782  -56.4974 C.3       21 UNK         0.1400 
    116 CB        -2.9473  -15.0195  -57.1327 C.3       21 UNK        -0.1800 
    117 C         -3.8060  -16.0628  -54.9891 C.2       21 UNK         0.5000 
    118 O         -4.8932  -15.6303  -54.6063 O.2       21 UNK        -0.5000 
    119 N         -2.7955  -16.4017  -54.1740 N.am      22 UNK        -0.5000 
    120 CA        -2.8191  -16.4560  -52.7021 C.3       22 UNK         0.1400 
    121 C         -3.0090  -15.0844  -51.9861 C.2       22 UNK         0.5000 
    122 N         -2.8354  -13.9530  -52.6572 N.am      22 UNK        -0.7600 
    123 O         -3.2747  -15.0403  -50.7880 O.2       22 UNK        -0.5000 
    124 C124       -3.7817  -17.5490  -52.1532 C.3       23 UNK        -0.0398 
    125 S125       -3.3942  -19.2316  -52.7609 S.3       23 UNK        -0.2404 
    126 C126       -2.8885  -20.0926  -51.2393 C.3       23 UNK        -0.0205 
    127 H127       -2.7379  -15.7026  -46.5170 H         1 UNK         0.0600 
    128 H128       -1.7168  -17.1026  -46.8555 H         1 UNK         0.0600 
    129 H129       -2.8009  -16.4824  -48.1054 H         1 UNK         0.0600 
    130 H130       -1.9289  -15.0053  -49.5587 H         1 UNK         0.3000 
    131 H131       -0.5848  -13.6326  -50.6124 H         1 UNK         0.0600 
    132 H132        1.7387  -14.9035  -49.0805 H         1 UNK         0.0800 
    133 H133        1.8777  -13.9410  -50.5250 H         1 UNK         0.0800 
    134 H134        0.7360  -17.1658  -48.9133 H         1 UNK         0.0800 
    135 H135        2.2636  -17.5547  -49.6617 H         1 UNK         0.0800 
    136 H136       -1.4001  -17.9127  -50.4861 H         1 UNK         0.1150 
    137 H137       -1.0792  -22.1098  -51.2623 H         1 UNK         0.1150 
    138 H138        2.4050  -19.8559  -50.2030 H         1 UNK         0.1150 
    139 H139        0.8236  -23.2780  -50.5392 H         1 UNK         0.0800 
    140 H140        1.9835  -22.6001  -51.6494 H         1 UNK         0.0800 
    141 H141        1.7191  -20.8542  -48.0714 H         1 UNK         0.0800 
    142 H142        3.0404  -21.6219  -47.2885 H         1 UNK         0.0800 
    143 H143        1.5279  -23.7389  -47.0516 H         1 UNK         0.0600 
    144 H144        1.8449  -21.5123  -45.3846 H         1 UNK         0.3000 
    145 H145       -0.2304  -22.4846  -42.6361 H         1 UNK         0.0600 
    146 H146        1.9435  -22.0327  -41.4956 H         1 UNK         0.0600 
    147 H147        1.9481  -23.5985  -42.2948 H         1 UNK         0.0600 
    148 H148        2.7983  -22.2443  -43.0220 H         1 UNK         0.0600 
    149 H149        1.3257  -20.1466  -43.0462 H         1 UNK         0.3000 
    150 H150       -1.1686  -18.2022  -44.7342 H         1 UNK         0.0600 
    151 H151       -1.7450  -18.0022  -42.3470 H         1 UNK         0.0600 
    152 H152       -0.6383  -16.7122  -42.7955 H         1 UNK         0.0600 
    153 H153       -0.0518  -18.1105  -41.8886 H         1 UNK         0.0600 
    154 H154        1.5379  -17.7408  -43.8133 H         1 UNK         0.3000 
    155 H155        3.0924  -18.6223  -46.9104 H         1 UNK         0.0600 
    156 H156        2.7709  -15.9063  -45.5443 H         1 UNK         0.0600 
    157 H157        2.2717  -16.2600  -47.1925 H         1 UNK         0.0600 
    158 H158        3.9706  -16.3414  -46.7589 H         1 UNK         0.0600 
    159 H159        4.1385  -17.5932  -44.4514 H         1 UNK         0.3000 
    160 H160        4.7065  -20.7596  -42.8980 H         1 UNK         0.0600 
    161 H161        6.6687  -18.8263  -44.2372 H         1 UNK         0.0600 
    162 H162        6.5293  -20.5426  -44.5993 H         1 UNK         0.0600 
    163 H163        7.0596  -20.0285  -43.0067 H         1 UNK         0.0600 
    164 H164        5.6035  -18.3085  -42.0014 H         1 UNK         0.3000 
    165 H165        4.1262  -18.2199  -39.5652 H         1 UNK         0.0600 
    166 H166        4.8323  -15.7839  -39.7490 H         1 UNK         0.0600 
    167 H167        5.8350  -16.8839  -40.6687 H         1 UNK         0.0600 
    168 H168        4.6357  -15.8962  -41.4952 H         1 UNK         0.0600 
    169 H169        2.1713  -17.3869  -39.0481 H         1 UNK         0.3000 
    170 H170       -0.2682  -16.5348  -39.9070 H         1 UNK         0.0600 
    171 H171        1.0440  -16.2242  -37.8036 H         1 UNK         0.0600 
    172 H172        1.4625  -14.5791  -38.2728 H         1 UNK         0.0600 
    173 H173       -0.2009  -15.0002  -37.8793 H         1 UNK         0.0600 
    174 H174        0.5243  -14.1061  -41.1854 H         1 UNK         0.3000 
    175 H175       -2.6837  -12.9382  -41.6683 H         1 UNK         0.0600 
    176 H176       -0.8859  -11.4386  -39.6889 H         1 UNK         0.0600 
    177 H177       -2.1186  -10.7077  -40.7177 H         1 UNK         0.0600 
    178 H178       -2.5846  -11.8272  -39.4480 H         1 UNK         0.0600 
    179 H179        0.0290  -11.8328  -41.9229 H         1 UNK         0.3000 
    180 H180        0.8958  -11.5753  -43.9590 H         1 UNK         0.0600 
    181 H181        1.0629  -14.5436  -44.6713 H         1 UNK         0.0600 
    182 H182        2.0187  -13.6670  -43.4875 H         1 UNK         0.0600 
    183 H183        2.2512  -13.3502  -45.1998 H         1 UNK         0.0600 
    184 H184       -0.1383  -12.9870  -46.3374 H         1 UNK         0.3000 
    185 H185       -2.2659  -10.7801  -47.3235 H         1 UNK         0.0600 
    186 H186       -1.0110   -8.7128  -47.6896 H         1 UNK         0.0600 
    187 H187        0.3466   -9.5858  -48.3790 H         1 UNK         0.0600 
    188 H188       -1.1995   -9.5379  -49.2268 H         1 UNK         0.0600 
    189 H189       -1.9005  -12.6128  -48.4622 H         1 UNK         0.3000 
    190 H190       -0.4685  -20.7444  -46.8746 H         1 UNK         0.3000 
    191 H191       -2.3864  -21.4995  -48.8061 H         1 UNK         0.0600 
    192 H192       -2.6437  -19.5654  -46.4420 H         1 UNK         0.0600 
    193 H193       -3.7236  -19.6308  -47.8289 H         1 UNK         0.0600 
    194 H194       -2.0433  -19.1630  -48.0472 H         1 UNK         0.0600 
    195 H195       -2.3855  -21.9786  -45.2647 H         1 UNK         0.3000 
    196 H196       -4.9591  -23.1755  -45.0816 H         1 UNK         0.0600 
    197 H197       -4.1526  -23.9163  -42.8380 H         1 UNK         0.0600 
    198 H198       -3.7618  -22.2278  -43.1298 H         1 UNK         0.0600 
    199 H199       -2.5079  -23.4582  -43.2635 H         1 UNK         0.0600 
    200 H200       -1.6942  -24.6265  -45.5079 H         1 UNK         0.3000 
    201 H201       -2.5294  -27.3483  -45.4851 H         1 UNK         0.0600 
    202 H202       -0.1866  -26.6673  -45.0925 H         1 UNK         0.0600 
    203 H203       -0.0603  -26.0239  -46.7283 H         1 UNK         0.0600 
    204 H204       -0.2624  -27.7537  -46.4713 H         1 UNK         0.0600 
    205 H205       -2.0618  -25.0185  -48.1743 H         1 UNK         0.3000 
    206 H206       -2.7644  -26.8159  -50.2911 H         1 UNK         0.0600 
    207 H207       -1.4674  -24.7415  -50.6726 H         1 UNK         0.0600 
    208 H208       -2.9602  -24.6844  -51.5991 H         1 UNK         0.0600 
    209 H209       -2.8196  -23.7537  -50.1170 H         1 UNK         0.0600 
    210 H210       -4.6406  -24.7692  -48.1517 H         1 UNK         0.3000 
    211 H211       -6.7595  -24.3323  -47.7617 H         1 UNK         0.0600 
    212 H212       -7.5712  -26.6879  -49.5491 H         1 UNK         0.0600 
    213 H213       -8.5900  -25.8434  -48.3947 H         1 UNK         0.0600 
    214 H214       -7.2260  -26.7920  -47.8229 H         1 UNK         0.0600 
    215 H215       -5.4548  -22.7765  -49.3383 H         1 UNK         0.3000 
    216 H216       -5.4292  -21.1739  -50.8579 H         1 UNK         0.0600 
    217 H217       -7.4623  -20.1414  -51.6965 H         1 UNK         0.0600 
    218 H218       -7.7687  -20.6530  -50.0504 H         1 UNK         0.0600 
    219 H219       -8.4101  -21.5940  -51.3938 H         1 UNK         0.0600 
    220 H220       -6.8611  -20.9995  -53.3865 H         1 UNK         0.3000 
    221 H221       -6.9167  -21.5558  -55.4876 H         1 UNK         0.0600 
    222 H222       -7.0089  -24.4432  -54.4744 H         1 UNK         0.0600 
    223 H223       -8.3858  -23.3516  -54.6167 H         1 UNK         0.0600 
    224 H224       -7.5387  -23.8918  -56.0571 H         1 UNK         0.0600 
    225 H225       -4.2012  -23.0660  -53.8992 H         1 UNK         0.3000 
    226 H226       -2.8590  -24.1491  -56.1285 H         1 UNK         0.0600 
    227 H227       -2.3014  -24.7661  -53.8278 H         1 UNK         0.0600 
    228 H228       -0.8603  -24.1079  -54.5795 H         1 UNK         0.0600 
    229 H229       -1.7817  -23.1198  -53.4515 H         1 UNK         0.0600 
    230 H230       -3.1961  -20.8185  -55.3021 H         1 UNK         0.3000 
    231 H231       -1.6512  -19.9306  -57.5663 H         1 UNK         0.0600 
    232 H232        0.1357  -20.0511  -55.7584 H         1 UNK         0.0600 
    233 H233       -0.8451  -19.0091  -54.7349 H         1 UNK         0.0600 
    234 H234       -0.1738  -18.3993  -56.2469 H         1 UNK         0.0600 
    235 H235       -1.7295  -17.2175  -57.0238 H         1 UNK         0.3000 
    236 H236       -4.5223  -16.4697  -56.9723 H         1 UNK         0.0600 
    237 H237       -3.5906  -14.1528  -56.9753 H         1 UNK         0.0600 
    238 H238       -1.9703  -14.7850  -56.7083 H         1 UNK         0.0600 
    239 H239       -2.8257  -15.1410  -58.2092 H         1 UNK         0.0600 
    240 H240       -1.9431  -16.7316  -54.6000 H         1 UNK         0.3000 
    241 H241       -1.8080  -16.7533  -52.4269 H         1 UNK         0.0600 
    242 H242       -2.9665  -13.0712  -52.1885 H         1 UNK         0.3800 
    243 H243       -2.6141  -13.9705  -53.6394 H         1 UNK         0.3800 
    244 H244       -3.7693  -17.5582  -51.0629 H         1 UNK         0.0800 
    245 H245       -4.8107  -17.3176  -52.4308 H         1 UNK         0.0800 
    246 H246       -3.4440  -19.7129  -50.3818 H         1 UNK         0.0800 
    247 H247       -3.1759  -21.1393  -51.3448 H         1 UNK         0.0800 
@<TRIPOS>BOND
     1    1    2 1    
     2    1  127 1    
     3    1  128 1    
     4    1  129 1    
     5    2    3 2    
     6    2    4 am   BACKBONE|DICT|INTERRES
     7    4    5 1    
     8    4  130 1    
     9    5    6 1    
    10    5   65 1    
    11    5  131 1    
    12    6    7 1    
    13    6  132 1    
    14    6  133 1    
    15    7    8 1    
    16    8    9 1    
    17    8  134 1    
    18    8  135 1    
    19    9   10 ar   
    20    9   14 ar   
    21   10   11 ar   
    22   10  136 1    
    23   11   12 ar   
    24   11  126 1    
    25   12   13 ar   
    26   12  137 1    
    27   13   14 ar   
    28   13   15 1    
    29   14  138 1    
    30   15   16 1    
    31   15  139 1    
    32   15  140 1    
    33   16   17 1    
    34   17   18 1    
    35   17  141 1    
    36   17  142 1    
    37   18   19 1    
    38   18   67 1    
    39   18  143 1    
    40   19   20 am   BACKBONE|DICT|INTERRES
    41   19  144 1    
    42   20   21 2    
    43   20   22 1    
    44   22   23 1    
    45   22   24 1    
    46   22  145 1    
    47   23  146 1    
    48   23  147 1    
    49   23  148 1    
    50   24   25 am   BACKBONE|DICT|INTERRES
    51   24  149 1    
    52   25   26 2    
    53   25   27 1    
    54   27   28 1    
    55   27   29 1    
    56   27  150 1    
    57   28  151 1    
    58   28  152 1    
    59   28  153 1    
    60   29   30 am   BACKBONE|DICT|INTERRES
    61   29  154 1    
    62   30   31 2    
    63   30   32 1    
    64   32   33 1    
    65   32   34 1    
    66   32  155 1    
    67   33  156 1    
    68   33  157 1    
    69   33  158 1    
    70   34   35 am   BACKBONE|DICT|INTERRES
    71   34  159 1    
    72   35   36 2    
    73   35   37 1    
    74   37   38 1    
    75   37   39 1    
    76   37  160 1    
    77   38  161 1    
    78   38  162 1    
    79   38  163 1    
    80   39   40 am   BACKBONE|DICT|INTERRES
    81   39  164 1    
    82   40   41 2    
    83   40   42 1    
    84   42   43 1    
    85   42   44 1    
    86   42  165 1    
    87   43  166 1    
    88   43  167 1    
    89   43  168 1    
    90   44   45 am   BACKBONE|DICT|INTERRES
    91   44  169 1    
    92   45   46 2    
    93   45   47 1    
    94   47   48 1    
    95   47   49 1    
    96   47  170 1    
    97   48  171 1    
    98   48  172 1    
    99   48  173 1    
   100   49   50 am   BACKBONE|DICT|INTERRES
   101   49  174 1    
   102   50   51 2    
   103   50   52 1    
   104   52   53 1    
   105   52   54 1    
   106   52  175 1    
   107   53  176 1    
   108   53  177 1    
   109   53  178 1    
   110   54   55 am   BACKBONE|DICT|INTERRES
   111   54  179 1    
   112   55   56 2    
   113   55   57 1    
   114   57   58 1    
   115   57   59 1    
   116   57  180 1    
   117   58  181 1    
   118   58  182 1    
   119   58  183 1    
   120   59   60 am   BACKBONE|DICT|INTERRES
   121   59  184 1    
   122   60   61 2    
   123   60   62 1    
   124   62   63 1    
   125   62   64 1    
   126   62  185 1    
   127   63  186 1    
   128   63  187 1    
   129   63  188 1    
   130   64   65 am   BACKBONE|DICT|INTERRES
   131   64  189 1    
   132   65   66 2    
   133   67   68 2    
   134   67   69 am   BACKBONE|DICT|INTERRES
   135   69   70 1    
   136   69  190 1    
   137   70   71 1    
   138   70   72 1    
   139   70  191 1    
   140   71  192 1    
   141   71  193 1    
   142   71  194 1    
   143   72   73 2    
   144   72   74 am   BACKBONE|DICT|INTERRES
   145   74   75 1    
   146   74  195 1    
   147   75   76 1    
   148   75   77 1    
   149   75  196 1    
   150   76  197 1    
   151   76  198 1    
   152   76  199 1    
   153   77   78 2    
   154   77   79 am   BACKBONE|DICT|INTERRES
   155   79   80 1    
   156   79  200 1    
   157   80   81 1    
   158   80   82 1    
   159   80  201 1    
   160   81  202 1    
   161   81  203 1    
   162   81  204 1    
   163   82   83 2    
   164   82   84 am   BACKBONE|DICT|INTERRES
   165   84   85 1    
   166   84  205 1    
   167   85   86 1    
   168   85   87 1    
   169   85  206 1    
   170   86  207 1    
   171   86  208 1    
   172   86  209 1    
   173   87   88 2    
   174   87   89 am   BACKBONE|DICT|INTERRES
   175   89   90 1    
   176   89  210 1    
   177   90   91 1    
   178   90   92 1    
   179   90  211 1    
   180   91  212 1    
   181   91  213 1    
   182   91  214 1    
   183   92   93 2    
   184   92   94 am   BACKBONE|DICT|INTERRES
   185   94   95 1    
   186   94  215 1    
   187   95   96 1    
   188   95   97 1    
   189   95  216 1    
   190   96  217 1    
   191   96  218 1    
   192   96  219 1    
   193   97   98 2    
   194   97   99 am   BACKBONE|DICT|INTERRES
   195   99  100 1    
   196   99  220 1    
   197  100  101 1    
   198  100  102 1    
   199  100  221 1    
   200  101  222 1    
   201  101  223 1    
   202  101  224 1    
   203  102  103 2    
   204  102  104 am   BACKBONE|DICT|INTERRES
   205  104  105 1    
   206  104  225 1    
   207  105  106 1    
   208  105  107 1    
   209  105  226 1    
   210  106  227 1    
   211  106  228 1    
   212  106  229 1    
   213  107  108 2    
   214  107  109 am   BACKBONE|DICT|INTERRES
   215  109  110 1    
   216  109  230 1    
   217  110  111 1    
   218  110  112 1    
   219  110  231 1    
   220  111  232 1    
   221  111  233 1    
   222  111  234 1    
   223  112  113 2    
   224  112  114 am   BACKBONE|DICT|INTERRES
   225  114  115 1    
   226  114  235 1    
   227  115  116 1    
   228  115  117 1    
   229  115  236 1    
   230  116  237 1    
   231  116  238 1    
   232  116  239 1    
   233  117  118 2    
   234  117  119 am   BACKBONE|DICT|INTERRES
   235  119  120 1    
   236  119  240 1    
   237  120  121 1    
   238  120  124 1    
   239  120  241 1    
   240  121  122 am   BACKBONE|DICT|INTERRES
   241  121  123 2    
   242  122  242 1    
   243  122  243 1    
   244  124  125 1    
   245  124  244 1    
   246  124  245 1    
   247  125  126 1    
   248  126  246 1    
   249  126  247 1    
@<TRIPOS>SUBSTRUCTURE
     1 UNK         1 GROUP             0       ****    0 ROOT    
