@<TRIPOS>MOLECULE
3R540
247   249    1
SMALL
USER_CHARGES


@<TRIPOS>ATOM
      1 CA          4.7211  -12.0196  -48.6620 C.3       0 UNK        -0.1800 
      2 C           3.4747  -12.3913  -47.8741 C.2       0 UNK         0.5000 
      3 O           3.1544  -11.7319  -46.8858 O.2       0 UNK        -0.5000 
      4 N           2.7531  -13.4289  -48.3176 N.am      1 UNK        -0.5000 
      5 CA          1.5627  -14.0058  -47.6685 C.3       1 UNK         0.1400 
      6 C6          1.1787  -15.3679  -48.2968 C.3       23 UNK        -0.0398 
      7 S7          2.3950  -16.6453  -47.8417 S.3       23 UNK        -0.2404 
      8 C8          3.3496  -16.8698  -49.3712 C.3       23 UNK        -0.0205 
      9 C9          2.6714  -17.8342  -50.3307 C.ar      23 UNK        -0.0193 
     10 C10         2.2335  -17.3988  -51.5850 C.ar      23 UNK        -0.1150 
     11 C11         1.6655  -18.2974  -52.4939 C.ar      23 UNK        -0.0193 
     12 C12         1.5358  -19.6432  -52.1282 C.ar      23 UNK        -0.1150 
     13 C13         1.9496  -20.0861  -50.8692 C.ar      23 UNK        -0.0193 
     14 C14         2.5230  -19.1784  -49.9770 C.ar      23 UNK        -0.1150 
     15 C15         1.7897  -21.5493  -50.4890 C.3       23 UNK        -0.0205 
     16 S16         0.0790  -21.9212  -49.9990 S.3       23 UNK        -0.2404 
     17 C17         0.0412  -21.4010  -48.2461 C.3       23 UNK        -0.0398 
     18 CA         -0.1576  -22.6069  -47.2950 C.3       11 UNK         0.1400 
     19 N           0.2740  -22.3174  -45.9233 N.am      11 UNK        -0.5000 
     20 C           0.4075  -23.2443  -44.9626 C.2       10 UNK         0.5000 
     21 O           0.2271  -24.4464  -45.1485 O.2       10 UNK        -0.5000 
     22 CA          0.7260  -22.7474  -43.5410 C.3       10 UNK         0.1400 
     23 CB          2.2203  -22.4325  -43.3804 C.3       10 UNK        -0.1800 
     24 N          -0.0826  -21.5854  -43.1716 N.am      10 UNK        -0.5000 
     25 C          -1.4176  -21.6146  -43.0473 C.2       9 UNK         0.5000 
     26 O          -2.0860  -22.6433  -43.1507 O.2       9 UNK        -0.5000 
     27 CA         -2.1318  -20.2701  -42.8175 C.3       9 UNK         0.1400 
     28 CB         -2.1516  -19.9130  -41.3242 C.3       9 UNK        -0.1800 
     29 N          -1.5385  -19.1712  -43.5810 N.am      9 UNK        -0.5000 
     30 C          -1.5050  -19.0964  -44.9199 C.2       8 UNK         0.5000 
     31 O          -2.0153  -19.9322  -45.6640 O.2       8 UNK        -0.5000 
     32 CA         -0.7131  -17.9257  -45.5306 C.3       8 UNK         0.1400 
     33 CB         -1.5284  -16.6260  -45.4813 C.3       8 UNK        -0.1800 
     34 N           0.5738  -17.7321  -44.8632 N.am      8 UNK        -0.5000 
     35 C           1.5616  -18.6391  -44.8535 C.2       7 UNK         0.5000 
     36 O           1.5150  -19.7046  -45.4695 O.2       7 UNK        -0.5000 
     37 CA          2.7724  -18.3353  -43.9537 C.3       7 UNK         0.1400 
     38 CB          3.8210  -17.4866  -44.6858 C.3       7 UNK        -0.1800 
     39 N           2.3702  -17.6632  -42.7181 N.am      7 UNK        -0.5000 
     40 C           1.7444  -18.2739  -41.7024 C.2       6 UNK         0.5000 
     41 O           1.4850  -19.4770  -41.6877 O.2       6 UNK        -0.5000 
     42 CA          1.3008  -17.3844  -40.5254 C.3       6 UNK         0.1400 
     43 CB          2.4606  -17.1703  -39.5416 C.3       6 UNK        -0.1800 
     44 N           0.7883  -16.0839  -40.9618 N.am      6 UNK        -0.5000 
     45 C          -0.3426  -15.9136  -41.6613 C.2       5 UNK         0.5000 
     46 O          -1.0964  -16.8361  -41.9659 O.2       5 UNK        -0.5000 
     47 CA         -0.6661  -14.4846  -42.1403 C.3       5 UNK         0.1400 
     48 CB         -1.5298  -13.7521  -41.1035 C.3       5 UNK        -0.1800 
     49 N           0.5167  -13.6740  -42.4406 N.am      5 UNK        -0.5000 
     50 C           1.4585  -13.9800  -43.3412 C.2       4 UNK         0.5000 
     51 O           1.4392  -15.0051  -44.0250 O.2       4 UNK        -0.5000 
     52 CA          2.6071  -12.9656  -43.4868 C.3       4 UNK         0.1400 
     53 CB          3.8559  -13.5845  -44.1400 C.3       4 UNK        -0.1800 
     54 N           2.1875  -11.7999  -44.2617 N.am      4 UNK        -0.5000 
     55 C           1.4345  -10.7905  -43.8023 C.2       3 UNK         0.5000 
     56 O           1.0029  -10.7368  -42.6494 O.2       3 UNK        -0.5000 
     57 CA          1.1047   -9.6552  -44.7862 C.3       3 UNK         0.1400 
     58 CB          2.2834   -8.6742  -44.8869 C.3       3 UNK        -0.1800 
     59 N           0.8031  -10.1776  -46.1188 N.am      3 UNK        -0.5000 
     60 C          -0.3899  -10.1052  -46.7270 C.2       2 UNK         0.5000 
     61 O          -1.3717   -9.5384  -46.2458 O.2       2 UNK        -0.5000 
     62 CA         -0.5185  -10.7855  -48.1083 C.3       2 UNK         0.1400 
     63 CB         -0.2821   -9.7664  -49.2332 C.3       2 UNK        -0.1800 
     64 N           0.4070  -11.9065  -48.2809 N.am      2 UNK        -0.5000 
     65 C           0.3495  -13.0509  -47.5857 C.2       1 UNK         0.5000 
     66 O          -0.5969  -13.3432  -46.8553 O.2       1 UNK        -0.5000 
     67 C          -1.6043  -23.1487  -47.3475 C.2       11 UNK         0.5000 
     68 O          -1.8736  -24.0797  -48.1078 O.2       11 UNK        -0.5000 
     69 N          -2.5048  -22.5930  -46.5236 N.am      12 UNK        -0.5000 
     70 CA         -3.8858  -23.0559  -46.3621 C.3       12 UNK         0.1400 
     71 CB         -4.6669  -22.0924  -45.4575 C.3       12 UNK        -0.1800 
     72 C          -3.9785  -24.5030  -45.8474 C.2       12 UNK         0.5000 
     73 O          -4.8213  -25.2613  -46.3258 O.2       12 UNK        -0.5000 
     74 N          -3.0933  -24.8687  -44.9131 N.am      13 UNK        -0.5000 
     75 CA         -2.9695  -26.2267  -44.3919 C.3       13 UNK         0.1400 
     76 CB         -2.1847  -26.1943  -43.0709 C.3       13 UNK        -0.1800 
     77 C          -2.3124  -27.1891  -45.3997 C.2       13 UNK         0.5000 
     78 O          -2.8277  -28.2871  -45.6136 O.2       13 UNK        -0.5000 
     79 N          -1.1761  -26.7767  -45.9764 N.am      14 UNK        -0.5000 
     80 CA         -0.3099  -27.6367  -46.7829 C.3       14 UNK         0.1400 
     81 CB          1.1182  -27.0694  -46.7657 C.3       14 UNK        -0.1800 
     82 C          -0.7757  -27.8305  -48.2354 C.2       14 UNK         0.5000 
     83 O          -0.5890  -28.9208  -48.7780 O.2       14 UNK        -0.5000 
     84 N          -1.3223  -26.7775  -48.8555 N.am      15 UNK        -0.5000 
     85 CA         -1.5613  -26.7102  -50.3002 C.3       15 UNK         0.1400 
     86 CB         -0.3843  -25.9650  -50.9582 C.3       15 UNK        -0.1800 
     87 C          -2.9125  -26.0638  -50.6500 C.2       15 UNK         0.5000 
     88 O          -3.0912  -25.6179  -51.7855 O.2       15 UNK        -0.5000 
     89 N          -3.8330  -25.9896  -49.6751 N.am      16 UNK        -0.5000 
     90 CA         -5.1771  -25.4007  -49.7776 C.3       16 UNK         0.1400 
     91 CB         -6.0756  -26.2726  -50.6800 C.3       16 UNK        -0.1800 
     92 C          -5.1704  -23.9184  -50.2156 C.2       16 UNK         0.5000 
     93 O          -6.1177  -23.4631  -50.8582 O.2       16 UNK        -0.5000 
     94 N          -4.0741  -23.2066  -49.9081 N.am      17 UNK        -0.5000 
     95 CA         -3.7622  -21.8320  -50.3156 C.3       17 UNK         0.1400 
     96 CB         -4.6923  -20.8255  -49.6082 C.3       17 UNK        -0.1800 
     97 C          -3.7372  -21.6512  -51.8491 C.2       17 UNK         0.5000 
     98 O          -4.0828  -20.5802  -52.3452 O.2       17 UNK        -0.5000 
     99 N          -3.3818  -22.7228  -52.5761 N.am      18 UNK        -0.5000 
    100 CA        -3.4160  -22.8481  -54.0370 C.3       18 UNK         0.1400 
    101 CB        -2.4110  -21.8782  -54.6949 C.3       18 UNK        -0.1800 
    102 C         -4.8386  -22.7262  -54.6323 C.2       18 UNK         0.5000 
    103 O         -4.9772  -22.3846  -55.8080 O.2       18 UNK        -0.5000 
    104 N         -5.8709  -22.9879  -53.8126 N.am      19 UNK        -0.5000 
    105 CA        -7.3172  -22.9387  -54.0741 C.3       19 UNK         0.1400 
    106 CB        -7.7210  -23.9230  -55.1876 C.3       19 UNK        -0.1800 
    107 C         -7.8805  -21.5280  -54.3454 C.2       19 UNK         0.5000 
    108 O         -8.9472  -21.1922  -53.8309 O.2       19 UNK        -0.5000 
    109 N         -7.1555  -20.7218  -55.1271 N.am      20 UNK        -0.5000 
    110 CA        -7.4992  -19.3522  -55.5154 C.3       20 UNK         0.1400 
    111 CB        -6.8540  -19.0715  -56.8834 C.3       20 UNK        -0.1800 
    112 C         -7.0698  -18.2908  -54.4791 C.2       20 UNK         0.5000 
    113 O         -7.2059  -17.0983  -54.7536 O.2       20 UNK        -0.5000 
    114 N         -6.5173  -18.7312  -53.3383 N.am      21 UNK        -0.5000 
    115 CA        -5.9160  -17.9426  -52.2514 C.3       21 UNK         0.1400 
    116 CB        -6.8976  -16.8985  -51.6797 C.3       21 UNK        -0.1800 
    117 C         -4.5432  -17.3322  -52.6128 C.2       21 UNK         0.5000 
    118 O         -3.9836  -16.5800  -51.8139 O.2       21 UNK        -0.5000 
    119 N         -4.0138  -17.6921  -53.7900 N.am      22 UNK        -0.5000 
    120 CA        -2.6899  -17.3297  -54.3161 C.3       22 UNK         0.1400 
    121 C         -2.4790  -15.8099  -54.6040 C.2       22 UNK         0.5000 
    122 N         -3.5360  -15.0211  -54.7577 N.am      22 UNK        -0.7600 
    123 O         -1.3515  -15.3376  -54.7194 O.2       22 UNK        -0.5000 
    124 C124       -1.5416  -17.9857  -53.4955 C.3       23 UNK        -0.0398 
    125 S125       -0.2160  -18.6296  -54.5711 S.3       23 UNK        -0.2404 
    126 C126        1.2539  -17.8005  -53.8791 C.3       23 UNK        -0.0205 
    127 H127        4.6396  -10.9975  -49.0315 H         1 UNK         0.0600 
    128 H128        4.8744  -12.6806  -49.5153 H         1 UNK         0.0600 
    129 H129        5.5999  -12.0822  -48.0203 H         1 UNK         0.0600 
    130 H130        3.0646  -13.9117  -49.1469 H         1 UNK         0.3000 
    131 H131        1.8325  -14.1904  -46.6273 H         1 UNK         0.0600 
    132 H132        0.2110  -15.7142  -47.9310 H         1 UNK         0.0800 
    133 H133        1.0835  -15.2943  -49.3813 H         1 UNK         0.0800 
    134 H134        3.5351  -15.9043  -49.8427 H         1 UNK         0.0800 
    135 H135        4.3293  -17.2721  -49.1100 H         1 UNK         0.0800 
    136 H136        2.3568  -16.3618  -51.8644 H         1 UNK         0.1150 
    137 H137        1.1112  -20.3554  -52.8212 H         1 UNK         0.1150 
    138 H138        2.8600  -19.5152  -49.0065 H         1 UNK         0.1150 
    139 H139        2.0509  -22.1734  -51.3449 H         1 UNK         0.0800 
    140 H140        2.4786  -21.8275  -49.6899 H         1 UNK         0.0800 
    141 H141       -0.7424  -20.6537  -48.1089 H         1 UNK         0.0800 
    142 H142        0.9764  -20.8921  -48.0101 H         1 UNK         0.0800 
    143 H143        0.4912  -23.4125  -47.6467 H         1 UNK         0.0600 
    144 H144        0.4802  -21.3478  -45.6997 H         1 UNK         0.3000 
    145 H145        0.4800  -23.5539  -42.8469 H         1 UNK         0.0600 
    146 H146        2.4479  -22.1057  -42.3656 H         1 UNK         0.0600 
    147 H147        2.8254  -23.3174  -43.5808 H         1 UNK         0.0600 
    148 H148        2.5494  -21.6525  -44.0653 H         1 UNK         0.0600 
    149 H149        0.4081  -20.7137  -43.0089 H         1 UNK         0.3000 
    150 H150       -3.1651  -20.3821  -43.1504 H         1 UNK         0.0600 
    151 H151       -2.6076  -20.7114  -40.7375 H         1 UNK         0.0600 
    152 H152       -2.7296  -19.0065  -41.1439 H         1 UNK         0.0600 
    153 H153       -1.1465  -19.7514  -40.9346 H         1 UNK         0.0600 
    154 H154       -1.1489  -18.4043  -43.0394 H         1 UNK         0.3000 
    155 H155       -0.5083  -18.1609  -46.5773 H         1 UNK         0.0600 
    156 H156       -2.4003  -16.6920  -46.1328 H         1 UNK         0.0600 
    157 H157       -0.9362  -15.7733  -45.8100 H         1 UNK         0.0600 
    158 H158       -1.8900  -16.4098  -44.4769 H         1 UNK         0.0600 
    159 H159        0.7214  -16.8503  -44.3834 H         1 UNK         0.3000 
    160 H160        3.2391  -19.2870  -43.6917 H         1 UNK         0.0600 
    161 H161        3.4219  -16.5168  -44.9817 H         1 UNK         0.0600 
    162 H162        4.1632  -17.9893  -45.5912 H         1 UNK         0.0600 
    163 H163        4.6960  -17.3122  -44.0598 H         1 UNK         0.0600 
    164 H164        2.4814  -16.6599  -42.6928 H         1 UNK         0.3000 
    165 H165        0.4988  -17.9061  -39.9988 H         1 UNK         0.0600 
    166 H166        2.1360  -16.6073  -38.6663 H         1 UNK         0.0600 
    167 H167        2.8511  -18.1248  -39.1861 H         1 UNK         0.0600 
    168 H168        3.2873  -16.6284  -40.0026 H         1 UNK         0.0600 
    169 H169        1.3482  -15.2724  -40.7463 H         1 UNK         0.3000 
    170 H170       -1.2426  -14.5706  -43.0630 H         1 UNK         0.0600 
    171 H171       -2.4347  -14.3184  -40.8783 H         1 UNK         0.0600 
    172 H172       -0.9930  -13.6029  -40.1658 H         1 UNK         0.0600 
    173 H173       -1.8425  -12.7745  -41.4709 H         1 UNK         0.0600 
    174 H174        0.5813  -12.7737  -41.9806 H         1 UNK         0.3000 
    175 H175        2.8925  -12.6378  -42.4850 H         1 UNK         0.0600 
    176 H176        3.6571  -13.9386  -45.1512 H         1 UNK         0.0600 
    177 H177        4.6694  -12.8611  -44.1964 H         1 UNK         0.0600 
    178 H178        4.2173  -14.4351  -43.5611 H         1 UNK         0.0600 
    179 H179        2.5218  -11.7660  -45.2223 H         1 UNK         0.3000 
    180 H180        0.2479   -9.1123  -44.3821 H         1 UNK         0.0600 
    181 H181        3.1753   -9.1548  -45.2915 H         1 UNK         0.0600 
    182 H182        2.5415   -8.2706  -43.9071 H         1 UNK         0.0600 
    183 H183        2.0371   -7.8306  -45.5318 H         1 UNK         0.0600 
    184 H184        1.5547  -10.6814  -46.5790 H         1 UNK         0.3000 
    185 H185       -1.5381  -11.1663  -48.1978 H         1 UNK         0.0600 
    186 H186       -0.9743   -8.9272  -49.1513 H         1 UNK         0.0600 
    187 H187        0.7301   -9.3611  -49.2032 H         1 UNK         0.0600 
    188 H188       -0.4353  -10.2178  -50.2137 H         1 UNK         0.0600 
    189 H189        1.2177  -11.7423  -48.8593 H         1 UNK         0.3000 
    190 H190       -2.2336  -21.7733  -45.9863 H         1 UNK         0.3000 
    191 H191       -4.3624  -23.0327  -47.3392 H         1 UNK         0.0600 
    192 H192       -4.6165  -21.0695  -45.8308 H         1 UNK         0.0600 
    193 H193       -5.7204  -22.3711  -45.4145 H         1 UNK         0.0600 
    194 H194       -4.2894  -22.0973  -44.4365 H         1 UNK         0.0600 
    195 H195       -2.4662  -24.1681  -44.5327 H         1 UNK         0.3000 
    196 H196       -3.9711  -26.6043  -44.1745 H         1 UNK         0.0600 
    197 H197       -2.0908  -27.1949  -42.6473 H         1 UNK         0.0600 
    198 H198       -2.6883  -25.5726  -42.3304 H         1 UNK         0.0600 
    199 H199       -1.1778  -25.7984  -43.2064 H         1 UNK         0.0600 
    200 H200       -0.7971  -25.8662  -45.7237 H         1 UNK         0.3000 
    201 H201       -0.2766  -28.6236  -46.3157 H         1 UNK         0.0600 
    202 H202        1.5002  -26.9929  -45.7475 H         1 UNK         0.0600 
    203 H203        1.1611  -26.0761  -47.2147 H         1 UNK         0.0600 
    204 H204        1.8023  -27.7112  -47.3222 H         1 UNK         0.0600 
    205 H205       -1.4521  -25.9042  -48.3495 H         1 UNK         0.3000 
    206 H206       -1.6051  -27.7157  -50.7227 H         1 UNK         0.0600 
    207 H207        0.5648  -26.4542  -50.7392 H         1 UNK         0.0600 
    208 H208       -0.4873  -25.9354  -52.0435 H         1 UNK         0.0600 
    209 H209       -0.3191  -24.9356  -50.6043 H         1 UNK         0.0600 
    210 H210       -3.5846  -26.3584  -48.7676 H         1 UNK         0.3000 
    211 H211       -5.6066  -25.4187  -48.7769 H         1 UNK         0.0600 
    212 H212       -5.7526  -26.2456  -51.7213 H         1 UNK         0.0600 
    213 H213       -7.1109  -25.9310  -50.6507 H         1 UNK         0.0600 
    214 H214       -6.0706  -27.3126  -50.3539 H         1 UNK         0.0600 
    215 H215       -3.3376  -23.6815  -49.3938 H         1 UNK         0.3000 
    216 H216       -2.7504  -21.6318  -49.9691 H         1 UNK         0.0600 
    217 H217       -4.3680  -19.8011  -49.7936 H         1 UNK         0.0600 
    218 H218       -4.6848  -20.9688  -48.5284 H         1 UNK         0.0600 
    219 H219       -5.7229  -20.9131  -49.9531 H         1 UNK         0.0600 
    220 H220       -3.1623  -23.5834  -52.0845 H         1 UNK         0.3000 
    221 H221       -3.0854  -23.8641  -54.2562 H         1 UNK         0.0600 
    222 H222       -2.7301  -20.8392  -54.6073 H         1 UNK         0.0600 
    223 H223       -1.4235  -21.9631  -54.2411 H         1 UNK         0.0600 
    224 H224       -2.2979  -22.0934  -55.7579 H         1 UNK         0.0600 
    225 H225       -5.6461  -23.2052  -52.8472 H         1 UNK         0.3000 
    226 H226       -7.7870  -23.2843  -53.1518 H         1 UNK         0.0600 
    227 H227       -7.3812  -24.9337  -54.9615 H         1 UNK         0.0600 
    228 H228       -8.8055  -23.9614  -55.2962 H         1 UNK         0.0600 
    229 H229       -7.3085  -23.6382  -56.1558 H         1 UNK         0.0600 
    230 H230       -6.2979  -21.1086  -55.5143 H         1 UNK         0.3000 
    231 H231       -8.5825  -19.2746  -55.6271 H         1 UNK         0.0600 
    232 H232       -5.7655  -19.1173  -56.8312 H         1 UNK         0.0600 
    233 H233       -7.1251  -18.0822  -57.2542 H         1 UNK         0.0600 
    234 H234       -7.1835  -19.7950  -57.6295 H         1 UNK         0.0600 
    235 H235       -6.4124  -19.7315  -53.2372 H         1 UNK         0.3000 
    236 H236       -5.7196  -18.6571  -51.4526 H         1 UNK         0.0600 
    237 H237       -7.8643  -17.3475  -51.4517 H         1 UNK         0.0600 
    238 H238       -6.5125  -16.4719  -50.7529 H         1 UNK         0.0600 
    239 H239       -7.0631  -16.0706  -52.3691 H         1 UNK         0.0600 
    240 H240       -4.5511  -18.3290  -54.3577 H         1 UNK         0.3000 
    241 H241       -2.6878  -17.7834  -55.3077 H         1 UNK         0.0600 
    242 H242       -3.4007  -14.0416  -54.9525 H         1 UNK         0.3800 
    243 H243       -4.4692  -15.3931  -54.6716 H         1 UNK         0.3800 
    244 H244       -1.9143  -18.8420  -52.9311 H         1 UNK         0.0800 
    245 H245       -1.1434  -17.2977  -52.7478 H         1 UNK         0.0800 
    246 H246        2.0911  -17.9586  -54.5598 H         1 UNK         0.0800 
    247 H247        1.0696  -16.7249  -53.8620 H         1 UNK         0.0800 
@<TRIPOS>BOND
     1    1    2 1    
     2    1  127 1    
     3    1  128 1    
     4    1  129 1    
     5    2    3 2    
     6    2    4 am   BACKBONE|DICT|INTERRES
     7    4    5 1    
     8    4  130 1    
     9    5    6 1    
    10    5   65 1    
    11    5  131 1    
    12    6    7 1    
    13    6  132 1    
    14    6  133 1    
    15    7    8 1    
    16    8    9 1    
    17    8  134 1    
    18    8  135 1    
    19    9   10 ar   
    20    9   14 ar   
    21   10   11 ar   
    22   10  136 1    
    23   11   12 ar   
    24   11  126 1    
    25   12   13 ar   
    26   12  137 1    
    27   13   14 ar   
    28   13   15 1    
    29   14  138 1    
    30   15   16 1    
    31   15  139 1    
    32   15  140 1    
    33   16   17 1    
    34   17   18 1    
    35   17  141 1    
    36   17  142 1    
    37   18   19 1    
    38   18   67 1    
    39   18  143 1    
    40   19   20 am   BACKBONE|DICT|INTERRES
    41   19  144 1    
    42   20   21 2    
    43   20   22 1    
    44   22   23 1    
    45   22   24 1    
    46   22  145 1    
    47   23  146 1    
    48   23  147 1    
    49   23  148 1    
    50   24   25 am   BACKBONE|DICT|INTERRES
    51   24  149 1    
    52   25   26 2    
    53   25   27 1    
    54   27   28 1    
    55   27   29 1    
    56   27  150 1    
    57   28  151 1    
    58   28  152 1    
    59   28  153 1    
    60   29   30 am   BACKBONE|DICT|INTERRES
    61   29  154 1    
    62   30   31 2    
    63   30   32 1    
    64   32   33 1    
    65   32   34 1    
    66   32  155 1    
    67   33  156 1    
    68   33  157 1    
    69   33  158 1    
    70   34   35 am   BACKBONE|DICT|INTERRES
    71   34  159 1    
    72   35   36 2    
    73   35   37 1    
    74   37   38 1    
    75   37   39 1    
    76   37  160 1    
    77   38  161 1    
    78   38  162 1    
    79   38  163 1    
    80   39   40 am   BACKBONE|DICT|INTERRES
    81   39  164 1    
    82   40   41 2    
    83   40   42 1    
    84   42   43 1    
    85   42   44 1    
    86   42  165 1    
    87   43  166 1    
    88   43  167 1    
    89   43  168 1    
    90   44   45 am   BACKBONE|DICT|INTERRES
    91   44  169 1    
    92   45   46 2    
    93   45   47 1    
    94   47   48 1    
    95   47   49 1    
    96   47  170 1    
    97   48  171 1    
    98   48  172 1    
    99   48  173 1    
   100   49   50 am   BACKBONE|DICT|INTERRES
   101   49  174 1    
   102   50   51 2    
   103   50   52 1    
   104   52   53 1    
   105   52   54 1    
   106   52  175 1    
   107   53  176 1    
   108   53  177 1    
   109   53  178 1    
   110   54   55 am   BACKBONE|DICT|INTERRES
   111   54  179 1    
   112   55   56 2    
   113   55   57 1    
   114   57   58 1    
   115   57   59 1    
   116   57  180 1    
   117   58  181 1    
   118   58  182 1    
   119   58  183 1    
   120   59   60 am   BACKBONE|DICT|INTERRES
   121   59  184 1    
   122   60   61 2    
   123   60   62 1    
   124   62   63 1    
   125   62   64 1    
   126   62  185 1    
   127   63  186 1    
   128   63  187 1    
   129   63  188 1    
   130   64   65 am   BACKBONE|DICT|INTERRES
   131   64  189 1    
   132   65   66 2    
   133   67   68 2    
   134   67   69 am   BACKBONE|DICT|INTERRES
   135   69   70 1    
   136   69  190 1    
   137   70   71 1    
   138   70   72 1    
   139   70  191 1    
   140   71  192 1    
   141   71  193 1    
   142   71  194 1    
   143   72   73 2    
   144   72   74 am   BACKBONE|DICT|INTERRES
   145   74   75 1    
   146   74  195 1    
   147   75   76 1    
   148   75   77 1    
   149   75  196 1    
   150   76  197 1    
   151   76  198 1    
   152   76  199 1    
   153   77   78 2    
   154   77   79 am   BACKBONE|DICT|INTERRES
   155   79   80 1    
   156   79  200 1    
   157   80   81 1    
   158   80   82 1    
   159   80  201 1    
   160   81  202 1    
   161   81  203 1    
   162   81  204 1    
   163   82   83 2    
   164   82   84 am   BACKBONE|DICT|INTERRES
   165   84   85 1    
   166   84  205 1    
   167   85   86 1    
   168   85   87 1    
   169   85  206 1    
   170   86  207 1    
   171   86  208 1    
   172   86  209 1    
   173   87   88 2    
   174   87   89 am   BACKBONE|DICT|INTERRES
   175   89   90 1    
   176   89  210 1    
   177   90   91 1    
   178   90   92 1    
   179   90  211 1    
   180   91  212 1    
   181   91  213 1    
   182   91  214 1    
   183   92   93 2    
   184   92   94 am   BACKBONE|DICT|INTERRES
   185   94   95 1    
   186   94  215 1    
   187   95   96 1    
   188   95   97 1    
   189   95  216 1    
   190   96  217 1    
   191   96  218 1    
   192   96  219 1    
   193   97   98 2    
   194   97   99 am   BACKBONE|DICT|INTERRES
   195   99  100 1    
   196   99  220 1    
   197  100  101 1    
   198  100  102 1    
   199  100  221 1    
   200  101  222 1    
   201  101  223 1    
   202  101  224 1    
   203  102  103 2    
   204  102  104 am   BACKBONE|DICT|INTERRES
   205  104  105 1    
   206  104  225 1    
   207  105  106 1    
   208  105  107 1    
   209  105  226 1    
   210  106  227 1    
   211  106  228 1    
   212  106  229 1    
   213  107  108 2    
   214  107  109 am   BACKBONE|DICT|INTERRES
   215  109  110 1    
   216  109  230 1    
   217  110  111 1    
   218  110  112 1    
   219  110  231 1    
   220  111  232 1    
   221  111  233 1    
   222  111  234 1    
   223  112  113 2    
   224  112  114 am   BACKBONE|DICT|INTERRES
   225  114  115 1    
   226  114  235 1    
   227  115  116 1    
   228  115  117 1    
   229  115  236 1    
   230  116  237 1    
   231  116  238 1    
   232  116  239 1    
   233  117  118 2    
   234  117  119 am   BACKBONE|DICT|INTERRES
   235  119  120 1    
   236  119  240 1    
   237  120  121 1    
   238  120  124 1    
   239  120  241 1    
   240  121  122 am   BACKBONE|DICT|INTERRES
   241  121  123 2    
   242  122  242 1    
   243  122  243 1    
   244  124  125 1    
   245  124  244 1    
   246  124  245 1    
   247  125  126 1    
   248  126  246 1    
   249  126  247 1    
@<TRIPOS>SUBSTRUCTURE
     1 UNK         1 GROUP             0       ****    0 ROOT    
