@<TRIPOS>MOLECULE
3R540
247   249    1
SMALL
USER_CHARGES


@<TRIPOS>ATOM
      1 CA          3.3661  -15.4635  -47.9815 C.3       0 UNK        -0.1800 
      2 C           2.2687  -15.0229  -47.0256 C.2       0 UNK         0.5000 
      3 O           2.5337  -14.2784  -46.0807 O.2       0 UNK        -0.5000 
      4 N           1.0253  -15.4565  -47.2714 N.am      1 UNK        -0.5000 
      5 CA         -0.1374  -15.1272  -46.4374 C.3       1 UNK         0.1400 
      6 C6         -1.3375  -16.0680  -46.6909 C.3       23 UNK        -0.0398 
      7 S7         -1.9893  -16.0249  -48.4000 S.3       23 UNK        -0.2404 
      8 C8         -1.9251  -17.7791  -48.8748 C.3       23 UNK        -0.0205 
      9 C9         -0.6616  -18.1143  -49.6510 C.ar      23 UNK        -0.0193 
     10 C10        -0.6926  -18.1104  -51.0486 C.ar      23 UNK        -0.1150 
     11 C11         0.4514  -18.4197  -51.7865 C.ar      23 UNK        -0.0193 
     12 C12         1.6364  -18.7285  -51.1166 C.ar      23 UNK        -0.1150 
     13 C13         1.6844  -18.7340  -49.7200 C.ar      23 UNK        -0.0193 
     14 C14         0.5294  -18.4334  -48.9880 C.ar      23 UNK        -0.1150 
     15 C15         3.0009  -19.0404  -49.0240 C.3       23 UNK        -0.0205 
     16 S16         3.2396  -20.8273  -48.7788 S.3       23 UNK        -0.2404 
     17 C17         2.5205  -21.0509  -47.1221 C.3       23 UNK        -0.0398 
     18 CA          1.6138  -22.2980  -47.0070 C.3       11 UNK         0.1400 
     19 N           1.5809  -22.7963  -45.6320 N.am      11 UNK        -0.5000 
     20 C           1.0884  -23.9803  -45.2476 C.2       10 UNK         0.5000 
     21 O           0.6500  -24.8257  -46.0271 O.2       10 UNK        -0.5000 
     22 CA          1.0443  -24.2364  -43.7292 C.3       10 UNK         0.1400 
     23 CB          2.3637  -24.8570  -43.2475 C.3       10 UNK        -0.1800 
     24 N           0.7757  -23.0139  -42.9656 N.am      10 UNK        -0.5000 
     25 C          -0.3998  -22.3693  -42.9713 C.2       9 UNK         0.5000 
     26 O          -1.3897  -22.7676  -43.5847 O.2       9 UNK        -0.5000 
     27 CA         -0.4613  -21.0311  -42.2107 C.3       9 UNK         0.1400 
     28 CB         -0.7100  -21.2637  -40.7133 C.3       9 UNK        -0.1800 
     29 N           0.7388  -20.2073  -42.3794 N.am      9 UNK        -0.5000 
     30 C           1.1735  -19.7104  -43.5451 C.2       8 UNK         0.5000 
     31 O           0.6296  -19.9611  -44.6200 O.2       8 UNK        -0.5000 
     32 CA          2.4128  -18.7910  -43.5244 C.3       8 UNK         0.1400 
     33 CB          2.3671  -17.7485  -44.6556 C.3       8 UNK        -0.1800 
     34 N           2.5754  -18.0815  -42.2576 N.am      8 UNK        -0.5000 
     35 C           3.1859  -18.5491  -41.1625 C.2       7 UNK         0.5000 
     36 O           3.6620  -19.6807  -41.0749 O.2       7 UNK        -0.5000 
     37 CA          3.2264  -17.6012  -39.9539 C.3       7 UNK         0.1400 
     38 CB          4.3166  -16.5337  -40.1356 C.3       7 UNK        -0.1800 
     39 N           1.9326  -16.9467  -39.7611 N.am      7 UNK        -0.5000 
     40 C           0.9028  -17.4884  -39.0958 C.2       6 UNK         0.5000 
     41 O           0.9521  -18.5812  -38.5309 O.2       6 UNK        -0.5000 
     42 CA         -0.4060  -16.6756  -39.0607 C.3       6 UNK         0.1400 
     43 CB         -0.4008  -15.6970  -37.8765 C.3       6 UNK        -0.1800 
     44 N          -0.6417  -15.9304  -40.2981 N.am      6 UNK        -0.5000 
     45 C          -0.9769  -16.4953  -41.4664 C.2       5 UNK         0.5000 
     46 O          -1.1949  -17.6979  -41.6036 O.2       5 UNK        -0.5000 
     47 CA         -1.0726  -15.5699  -42.6954 C.3       5 UNK         0.1400 
     48 CB         -2.5336  -15.1614  -42.9364 C.3       5 UNK        -0.1800 
     49 N          -0.2385  -14.3617  -42.6206 N.am      5 UNK        -0.5000 
     50 C           1.0958  -14.3518  -42.5022 C.2       4 UNK         0.5000 
     51 O           1.7785  -15.3755  -42.4638 O.2       4 UNK        -0.5000 
     52 CA          1.7713  -12.9805  -42.3737 C.3       4 UNK         0.1400 
     53 CB          3.0346  -13.0495  -41.4901 C.3       4 UNK        -0.1800 
     54 N           2.1066  -12.4575  -43.6961 N.am      4 UNK        -0.5000 
     55 C           2.3606  -11.1650  -43.9465 C.2       3 UNK         0.5000 
     56 O           2.2834  -10.2760  -43.0971 O.2       3 UNK        -0.5000 
     57 CA          2.7565  -10.7922  -45.3837 C.3       3 UNK         0.1400 
     58 CB          4.1781  -11.2764  -45.7137 C.3       3 UNK        -0.1800 
     59 N           1.8067  -11.3440  -46.3455 N.am      3 UNK        -0.5000 
     60 C           0.6906  -10.7185  -46.7490 C.2       2 UNK         0.5000 
     61 O           0.3816   -9.5787  -46.3994 O.2       2 UNK        -0.5000 
     62 CA         -0.2453  -11.4888  -47.7034 C.3       2 UNK         0.1400 
     63 CB          0.0391  -11.1049  -49.1635 C.3       2 UNK        -0.1800 
     64 N          -0.1306  -12.9395  -47.5639 N.am      2 UNK        -0.5000 
     65 C          -0.5324  -13.6352  -46.4912 C.2       1 UNK         0.5000 
     66 O          -1.1427  -13.1354  -45.5464 O.2       1 UNK        -0.5000 
     67 C           0.1860  -22.0292  -47.5221 C.2       11 UNK         0.5000 
     68 O          -0.1606  -22.4671  -48.6169 O.2       11 UNK        -0.5000 
     69 N          -0.6369  -21.3775  -46.6879 N.am      12 UNK        -0.5000 
     70 CA         -2.0546  -21.1254  -46.9344 C.3       12 UNK         0.1400 
     71 CB         -2.6138  -20.2076  -45.8367 C.3       12 UNK        -0.1800 
     72 C          -2.8857  -22.4126  -47.0490 C.2       12 UNK         0.5000 
     73 O          -3.7749  -22.4744  -47.8972 O.2       12 UNK        -0.5000 
     74 N          -2.5638  -23.4243  -46.2314 N.am      13 UNK        -0.5000 
     75 CA         -3.1547  -24.7602  -46.3049 C.3       13 UNK         0.1400 
     76 CB         -2.7393  -25.5846  -45.0775 C.3       13 UNK        -0.1800 
     77 C          -2.7928  -25.4884  -47.6130 C.2       13 UNK         0.5000 
     78 O          -3.6781  -26.0659  -48.2436 O.2       13 UNK        -0.5000 
     79 N          -1.5177  -25.4105  -48.0226 N.am      14 UNK        -0.5000 
     80 CA         -1.0121  -25.9648  -49.2824 C.3       14 UNK         0.1400 
     81 CB          0.5232  -25.9074  -49.2901 C.3       14 UNK        -0.1800 
     82 C          -1.5962  -25.2644  -50.5257 C.2       14 UNK         0.5000 
     83 O          -1.9288  -25.9354  -51.5029 O.2       14 UNK        -0.5000 
     84 N          -1.7465  -23.9356  -50.4497 N.am      15 UNK        -0.5000 
     85 CA         -2.3927  -23.0937  -51.4598 C.3       15 UNK         0.1400 
     86 CB         -2.0200  -21.6277  -51.1830 C.3       15 UNK        -0.1800 
     87 C          -3.9280  -23.2525  -51.4993 C.2       15 UNK         0.5000 
     88 O          -4.5591  -22.7751  -52.4416 O.2       15 UNK        -0.5000 
     89 N          -4.5035  -23.8761  -50.4596 N.am      16 UNK        -0.5000 
     90 CA         -5.9344  -24.0492  -50.1943 C.3       16 UNK         0.1400 
     91 CB         -6.5573  -25.0464  -51.1910 C.3       16 UNK        -0.1800 
     92 C          -6.6754  -22.6976  -50.1127 C.2       16 UNK         0.5000 
     93 O          -7.7217  -22.5183  -50.7370 O.2       16 UNK        -0.5000 
     94 N          -6.0811  -21.7702  -49.3462 N.am      17 UNK        -0.5000 
     95 CA         -6.4820  -20.3736  -49.1387 C.3       17 UNK         0.1400 
     96 CB         -7.8816  -20.2797  -48.4952 C.3       17 UNK        -0.1800 
     97 C          -6.3307  -19.4901  -50.3976 C.2       17 UNK         0.5000 
     98 O          -7.0036  -18.4631  -50.5041 O.2       17 UNK        -0.5000 
     99 N          -5.4223  -19.8924  -51.2994 N.am      18 UNK        -0.5000 
    100 CA        -5.0953  -19.2913  -52.5974 C.3       18 UNK         0.1400 
    101 CB        -4.6651  -17.8165  -52.4470 C.3       18 UNK        -0.1800 
    102 C         -6.2147  -19.4687  -53.6439 C.2       18 UNK         0.5000 
    103 O         -7.2761  -20.0215  -53.3462 O.2       18 UNK        -0.5000 
    104 N         -5.9376  -19.0305  -54.8797 N.am      19 UNK        -0.5000 
    105 CA        -6.7773  -19.0658  -56.0861 C.3       19 UNK         0.1400 
    106 CB        -8.1196  -18.3384  -55.8793 C.3       19 UNK        -0.1800 
    107 C         -6.9788  -20.4773  -56.6697 C.2       19 UNK         0.5000 
    108 O         -6.9003  -20.6408  -57.8879 O.2       19 UNK        -0.5000 
    109 N         -7.1921  -21.4759  -55.8035 N.am      20 UNK        -0.5000 
    110 CA        -7.1785  -22.9019  -56.1345 C.3       20 UNK         0.1400 
    111 CB        -7.6800  -23.6997  -54.9233 C.3       20 UNK        -0.1800 
    112 C         -5.7751  -23.3734  -56.5635 C.2       20 UNK         0.5000 
    113 O         -5.6511  -24.1606  -57.5025 O.2       20 UNK        -0.5000 
    114 N         -4.7493  -22.8323  -55.8999 N.am      21 UNK        -0.5000 
    115 CA        -3.3480  -22.8924  -56.2823 C.3       21 UNK         0.1400 
    116 CB        -2.6729  -24.1109  -55.6321 C.3       21 UNK        -0.1800 
    117 C         -2.7141  -21.5732  -55.8229 C.2       21 UNK         0.5000 
    118 O         -2.9757  -21.1551  -54.6960 O.2       21 UNK        -0.5000 
    119 N         -1.9240  -20.9503  -56.7062 N.am      22 UNK        -0.5000 
    120 CA        -1.2432  -19.6481  -56.5576 C.3       22 UNK         0.1400 
    121 C         -2.1403  -18.4249  -56.1761 C.2       22 UNK         0.5000 
    122 N         -1.5667  -17.2343  -56.0587 N.am      22 UNK        -0.7600 
    123 O         -3.3587  -18.5126  -56.0426 O.2       22 UNK        -0.5000 
    124 C124        0.0997  -19.7434  -55.7707 C.3       23 UNK        -0.0398 
    125 S125       -0.0211  -20.0397  -53.9710 S.3       23 UNK        -0.2404 
    126 C126        0.4128  -18.4045  -53.3052 C.3       23 UNK        -0.0205 
    127 H127        3.9294  -14.5978  -48.3296 H         1 UNK         0.0600 
    128 H128        2.9603  -15.9766  -48.8535 H         1 UNK         0.0600 
    129 H129        4.0547  -16.1382  -47.4732 H         1 UNK         0.0600 
    130 H130        0.8396  -16.0375  -48.0773 H         1 UNK         0.3000 
    131 H131        0.1782  -15.2957  -45.4083 H         1 UNK         0.0600 
    132 H132       -1.0401  -17.0844  -46.4323 H         1 UNK         0.0800 
    133 H133       -2.1572  -15.8287  -46.0116 H         1 UNK         0.0800 
    134 H134       -2.0056  -18.4040  -47.9899 H         1 UNK         0.0800 
    135 H135       -2.8040  -18.0087  -49.4788 H         1 UNK         0.0800 
    136 H136       -1.6088  -17.8681  -51.5672 H         1 UNK         0.1150 
    137 H137        2.5250  -18.9652  -51.6848 H         1 UNK         0.1150 
    138 H138        0.5573  -18.4437  -47.9076 H         1 UNK         0.1150 
    139 H139        3.8266  -18.6630  -49.6293 H         1 UNK         0.0800 
    140 H140        3.0684  -18.5111  -48.0730 H         1 UNK         0.0800 
    141 H141        1.9837  -20.1526  -46.8213 H         1 UNK         0.0800 
    142 H142        3.3636  -21.1347  -46.4348 H         1 UNK         0.0800 
    143 H143        2.0417  -23.0945  -47.6199 H         1 UNK         0.0600 
    144 H144        1.8650  -22.1482  -44.9137 H         1 UNK         0.3000 
    145 H145        0.2399  -24.9486  -43.5337 H         1 UNK         0.0600 
    146 H146        2.3182  -25.1053  -42.1870 H         1 UNK         0.0600 
    147 H147        2.5801  -25.7799  -43.7873 H         1 UNK         0.0600 
    148 H148        3.2073  -24.1823  -43.3990 H         1 UNK         0.0600 
    149 H149        1.5402  -22.6237  -42.4339 H         1 UNK         0.3000 
    150 H150       -1.3056  -20.4654  -42.6102 H         1 UNK         0.0600 
    151 H151       -1.6069  -21.8637  -40.5543 H         1 UNK         0.0600 
    152 H152       -0.8552  -20.3185  -40.1893 H         1 UNK         0.0600 
    153 H153        0.1240  -21.7841  -40.2409 H         1 UNK         0.0600 
    154 H154        1.2407  -19.9572  -41.5401 H         1 UNK         0.3000 
    155 H155        3.2854  -19.4259  -43.6893 H         1 UNK         0.0600 
    156 H156        1.4661  -17.1387  -44.5947 H         1 UNK         0.0600 
    157 H157        2.3780  -18.2182  -45.6377 H         1 UNK         0.0600 
    158 H158        3.2251  -17.0773  -44.6117 H         1 UNK         0.0600 
    159 H159        2.2221  -17.1267  -42.2448 H         1 UNK         0.3000 
    160 H160        3.4730  -18.1883  -39.0666 H         1 UNK         0.0600 
    161 H161        4.1431  -15.9235  -41.0225 H         1 UNK         0.0600 
    162 H162        5.2987  -16.9956  -40.2436 H         1 UNK         0.0600 
    163 H163        4.3635  -15.8671  -39.2743 H         1 UNK         0.0600 
    164 H164        1.7912  -16.0738  -40.2490 H         1 UNK         0.3000 
    165 H165       -1.2303  -17.3780  -38.9188 H         1 UNK         0.0600 
    166 H166       -1.3500  -15.1663  -37.7993 H         1 UNK         0.0600 
    167 H167       -0.2479  -16.2256  -36.9346 H         1 UNK         0.0600 
    168 H168        0.3932  -14.9548  -37.9689 H         1 UNK         0.0600 
    169 H169       -0.5075  -14.9309  -40.2656 H         1 UNK         0.3000 
    170 H170       -0.7376  -16.1595  -43.5491 H         1 UNK         0.0600 
    171 H171       -3.1744  -16.0390  -43.0334 H         1 UNK         0.0600 
    172 H172       -2.9228  -14.5601  -42.1140 H         1 UNK         0.0600 
    173 H173       -2.6407  -14.5824  -43.8529 H         1 UNK         0.0600 
    174 H174       -0.7276  -13.4795  -42.6808 H         1 UNK         0.3000 
    175 H175        1.0572  -12.3079  -41.8935 H         1 UNK         0.0600 
    176 H176        3.8272  -13.6253  -41.9692 H         1 UNK         0.0600 
    177 H177        3.4285  -12.0556  -41.2783 H         1 UNK         0.0600 
    178 H178        2.8185  -13.5199  -40.5300 H         1 UNK         0.0600 
    179 H179        2.1960  -13.1410  -44.4435 H         1 UNK         0.3000 
    180 H180        2.7592   -9.7025  -45.4597 H         1 UNK         0.0600 
    181 H181        4.2726  -12.3596  -45.6393 H         1 UNK         0.0600 
    182 H182        4.9045  -10.8391  -45.0278 H         1 UNK         0.0600 
    183 H183        4.4680  -10.9846  -46.7231 H         1 UNK         0.0600 
    184 H184        1.9645  -12.3028  -46.6286 H         1 UNK         0.3000 
    185 H185       -1.2718  -11.2013  -47.4661 H         1 UNK         0.0600 
    186 H186       -0.0653  -10.0292  -49.3116 H         1 UNK         0.0600 
    187 H187        1.0509  -11.3809  -49.4629 H         1 UNK         0.0600 
    188 H188       -0.6586  -11.5944  -49.8433 H         1 UNK         0.0600 
    189 H189        0.3531  -13.4327  -48.2999 H         1 UNK         0.3000 
    190 H190       -0.2551  -21.0079  -45.8197 H         1 UNK         0.3000 
    191 H191       -2.1307  -20.6148  -47.8942 H         1 UNK         0.0600 
    192 H192       -2.0285  -19.2932  -45.7438 H         1 UNK         0.0600 
    193 H193       -3.6422  -19.9187  -46.0571 H         1 UNK         0.0600 
    194 H194       -2.6125  -20.6979  -44.8632 H         1 UNK         0.0600 
    195 H195       -1.8758  -23.2638  -45.5036 H         1 UNK         0.3000 
    196 H196       -4.2404  -24.6446  -46.2789 H         1 UNK         0.0600 
    197 H197       -3.2129  -26.5670  -45.0906 H         1 UNK         0.0600 
    198 H198       -3.0379  -25.0915  -44.1522 H         1 UNK         0.0600 
    199 H199       -1.6619  -25.7418  -45.0394 H         1 UNK         0.0600 
    200 H200       -0.8393  -24.9481  -47.4261 H         1 UNK         0.3000 
    201 H201       -1.3094  -27.0146  -49.3258 H         1 UNK         0.0600 
    202 H202        0.9421  -26.4629  -48.4509 H         1 UNK         0.0600 
    203 H203        0.8901  -24.8828  -49.2280 H         1 UNK         0.0600 
    204 H204        0.9255  -26.3453  -50.2044 H         1 UNK         0.0600 
    205 H205       -1.3566  -23.4504  -49.6442 H         1 UNK         0.3000 
    206 H206       -2.0004  -23.3668  -52.4406 H         1 UNK         0.0600 
    207 H207       -0.9386  -21.4904  -51.1571 H         1 UNK         0.0600 
    208 H208       -2.4034  -20.9715  -51.9639 H         1 UNK         0.0600 
    209 H209       -2.4237  -21.2803  -50.2320 H         1 UNK         0.0600 
    210 H210       -3.8911  -24.2035  -49.7243 H         1 UNK         0.3000 
    211 H211       -6.0086  -24.4932  -49.2005 H         1 UNK         0.0600 
    212 H212       -6.4885  -24.6902  -52.2170 H         1 UNK         0.0600 
    213 H213       -7.6114  -25.2173  -50.9704 H         1 UNK         0.0600 
    214 H214       -6.0544  -26.0122  -51.1411 H         1 UNK         0.0600 
    215 H215       -5.2235  -22.0452  -48.8668 H         1 UNK         0.3000 
    216 H216       -5.7698  -19.9738  -48.4154 H         1 UNK         0.0600 
    217 H217       -8.0969  -19.2593  -48.1762 H         1 UNK         0.0600 
    218 H218       -7.9543  -20.9156  -47.6129 H         1 UNK         0.0600 
    219 H219       -8.6684  -20.5749  -49.1896 H         1 UNK         0.0600 
    220 H220       -5.0064  -20.8004  -51.1471 H         1 UNK         0.3000 
    221 H221       -4.2342  -19.8476  -52.9607 H         1 UNK         0.0600 
    222 H222       -5.5169  -17.1608  -52.2647 H         1 UNK         0.0600 
    223 H223       -3.9639  -17.6887  -51.6238 H         1 UNK         0.0600 
    224 H224       -4.1690  -17.4604  -53.3505 H         1 UNK         0.0600 
    225 H225       -4.9919  -18.6985  -55.0614 H         1 UNK         0.3000 
    226 H226       -6.2183  -18.5017  -56.8344 H         1 UNK         0.0600 
    227 H227       -7.9660  -17.3261  -55.5055 H         1 UNK         0.0600 
    228 H228       -8.6641  -18.2586  -56.8209 H         1 UNK         0.0600 
    229 H229       -8.7673  -18.8621  -55.1760 H         1 UNK         0.0600 
    230 H230       -7.2743  -21.2268  -54.8213 H         1 UNK         0.3000 
    231 H231       -7.8616  -23.0704  -56.9694 H         1 UNK         0.0600 
    232 H232       -7.0813  -23.4856  -54.0381 H         1 UNK         0.0600 
    233 H233       -7.6313  -24.7735  -55.1083 H         1 UNK         0.0600 
    234 H234       -8.7162  -23.4536  -54.6911 H         1 UNK         0.0600 
    235 H235       -4.9334  -22.2039  -55.1270 H         1 UNK         0.3000 
    236 H236       -3.2663  -22.9691  -57.3687 H         1 UNK         0.0600 
    237 H237       -3.1029  -25.0419  -56.0016 H         1 UNK         0.0600 
    238 H238       -1.6053  -24.1317  -55.8539 H         1 UNK         0.0600 
    239 H239       -2.7865  -24.0999  -54.5482 H         1 UNK         0.0600 
    240 H240       -1.8050  -21.3814  -57.6114 H         1 UNK         0.3000 
    241 H241       -0.9597  -19.4187  -57.5854 H         1 UNK         0.0600 
    242 H242       -2.1475  -16.4398  -55.8424 H         1 UNK         0.3800 
    243 H243       -0.5816  -17.0956  -56.2151 H         1 UNK         0.3800 
    244 H244        0.6917  -20.5597  -56.1862 H         1 UNK         0.0800 
    245 H245        0.7025  -18.8519  -55.9460 H         1 UNK         0.0800 
    246 H246       -0.3127  -17.6660  -53.6465 H         1 UNK         0.0800 
    247 H247        1.3824  -18.0943  -53.6976 H         1 UNK         0.0800 
@<TRIPOS>BOND
     1    1    2 1    
     2    1  127 1    
     3    1  128 1    
     4    1  129 1    
     5    2    3 2    
     6    2    4 am   BACKBONE|DICT|INTERRES
     7    4    5 1    
     8    4  130 1    
     9    5    6 1    
    10    5   65 1    
    11    5  131 1    
    12    6    7 1    
    13    6  132 1    
    14    6  133 1    
    15    7    8 1    
    16    8    9 1    
    17    8  134 1    
    18    8  135 1    
    19    9   10 ar   
    20    9   14 ar   
    21   10   11 ar   
    22   10  136 1    
    23   11   12 ar   
    24   11  126 1    
    25   12   13 ar   
    26   12  137 1    
    27   13   14 ar   
    28   13   15 1    
    29   14  138 1    
    30   15   16 1    
    31   15  139 1    
    32   15  140 1    
    33   16   17 1    
    34   17   18 1    
    35   17  141 1    
    36   17  142 1    
    37   18   19 1    
    38   18   67 1    
    39   18  143 1    
    40   19   20 am   BACKBONE|DICT|INTERRES
    41   19  144 1    
    42   20   21 2    
    43   20   22 1    
    44   22   23 1    
    45   22   24 1    
    46   22  145 1    
    47   23  146 1    
    48   23  147 1    
    49   23  148 1    
    50   24   25 am   BACKBONE|DICT|INTERRES
    51   24  149 1    
    52   25   26 2    
    53   25   27 1    
    54   27   28 1    
    55   27   29 1    
    56   27  150 1    
    57   28  151 1    
    58   28  152 1    
    59   28  153 1    
    60   29   30 am   BACKBONE|DICT|INTERRES
    61   29  154 1    
    62   30   31 2    
    63   30   32 1    
    64   32   33 1    
    65   32   34 1    
    66   32  155 1    
    67   33  156 1    
    68   33  157 1    
    69   33  158 1    
    70   34   35 am   BACKBONE|DICT|INTERRES
    71   34  159 1    
    72   35   36 2    
    73   35   37 1    
    74   37   38 1    
    75   37   39 1    
    76   37  160 1    
    77   38  161 1    
    78   38  162 1    
    79   38  163 1    
    80   39   40 am   BACKBONE|DICT|INTERRES
    81   39  164 1    
    82   40   41 2    
    83   40   42 1    
    84   42   43 1    
    85   42   44 1    
    86   42  165 1    
    87   43  166 1    
    88   43  167 1    
    89   43  168 1    
    90   44   45 am   BACKBONE|DICT|INTERRES
    91   44  169 1    
    92   45   46 2    
    93   45   47 1    
    94   47   48 1    
    95   47   49 1    
    96   47  170 1    
    97   48  171 1    
    98   48  172 1    
    99   48  173 1    
   100   49   50 am   BACKBONE|DICT|INTERRES
   101   49  174 1    
   102   50   51 2    
   103   50   52 1    
   104   52   53 1    
   105   52   54 1    
   106   52  175 1    
   107   53  176 1    
   108   53  177 1    
   109   53  178 1    
   110   54   55 am   BACKBONE|DICT|INTERRES
   111   54  179 1    
   112   55   56 2    
   113   55   57 1    
   114   57   58 1    
   115   57   59 1    
   116   57  180 1    
   117   58  181 1    
   118   58  182 1    
   119   58  183 1    
   120   59   60 am   BACKBONE|DICT|INTERRES
   121   59  184 1    
   122   60   61 2    
   123   60   62 1    
   124   62   63 1    
   125   62   64 1    
   126   62  185 1    
   127   63  186 1    
   128   63  187 1    
   129   63  188 1    
   130   64   65 am   BACKBONE|DICT|INTERRES
   131   64  189 1    
   132   65   66 2    
   133   67   68 2    
   134   67   69 am   BACKBONE|DICT|INTERRES
   135   69   70 1    
   136   69  190 1    
   137   70   71 1    
   138   70   72 1    
   139   70  191 1    
   140   71  192 1    
   141   71  193 1    
   142   71  194 1    
   143   72   73 2    
   144   72   74 am   BACKBONE|DICT|INTERRES
   145   74   75 1    
   146   74  195 1    
   147   75   76 1    
   148   75   77 1    
   149   75  196 1    
   150   76  197 1    
   151   76  198 1    
   152   76  199 1    
   153   77   78 2    
   154   77   79 am   BACKBONE|DICT|INTERRES
   155   79   80 1    
   156   79  200 1    
   157   80   81 1    
   158   80   82 1    
   159   80  201 1    
   160   81  202 1    
   161   81  203 1    
   162   81  204 1    
   163   82   83 2    
   164   82   84 am   BACKBONE|DICT|INTERRES
   165   84   85 1    
   166   84  205 1    
   167   85   86 1    
   168   85   87 1    
   169   85  206 1    
   170   86  207 1    
   171   86  208 1    
   172   86  209 1    
   173   87   88 2    
   174   87   89 am   BACKBONE|DICT|INTERRES
   175   89   90 1    
   176   89  210 1    
   177   90   91 1    
   178   90   92 1    
   179   90  211 1    
   180   91  212 1    
   181   91  213 1    
   182   91  214 1    
   183   92   93 2    
   184   92   94 am   BACKBONE|DICT|INTERRES
   185   94   95 1    
   186   94  215 1    
   187   95   96 1    
   188   95   97 1    
   189   95  216 1    
   190   96  217 1    
   191   96  218 1    
   192   96  219 1    
   193   97   98 2    
   194   97   99 am   BACKBONE|DICT|INTERRES
   195   99  100 1    
   196   99  220 1    
   197  100  101 1    
   198  100  102 1    
   199  100  221 1    
   200  101  222 1    
   201  101  223 1    
   202  101  224 1    
   203  102  103 2    
   204  102  104 am   BACKBONE|DICT|INTERRES
   205  104  105 1    
   206  104  225 1    
   207  105  106 1    
   208  105  107 1    
   209  105  226 1    
   210  106  227 1    
   211  106  228 1    
   212  106  229 1    
   213  107  108 2    
   214  107  109 am   BACKBONE|DICT|INTERRES
   215  109  110 1    
   216  109  230 1    
   217  110  111 1    
   218  110  112 1    
   219  110  231 1    
   220  111  232 1    
   221  111  233 1    
   222  111  234 1    
   223  112  113 2    
   224  112  114 am   BACKBONE|DICT|INTERRES
   225  114  115 1    
   226  114  235 1    
   227  115  116 1    
   228  115  117 1    
   229  115  236 1    
   230  116  237 1    
   231  116  238 1    
   232  116  239 1    
   233  117  118 2    
   234  117  119 am   BACKBONE|DICT|INTERRES
   235  119  120 1    
   236  119  240 1    
   237  120  121 1    
   238  120  124 1    
   239  120  241 1    
   240  121  122 am   BACKBONE|DICT|INTERRES
   241  121  123 2    
   242  122  242 1    
   243  122  243 1    
   244  124  125 1    
   245  124  244 1    
   246  124  245 1    
   247  125  126 1    
   248  126  246 1    
   249  126  247 1    
@<TRIPOS>SUBSTRUCTURE
     1 UNK         1 GROUP             0       ****    0 ROOT    
