@<TRIPOS>MOLECULE
3R540
247   249    1
SMALL
USER_CHARGES


@<TRIPOS>ATOM
      1 CA          6.1840  -10.8528  -52.6454 C.3       0 UNK        -0.1800 
      2 C           4.7861  -11.4540  -52.6501 C.2       0 UNK         0.5000 
      3 O           3.9869  -11.1357  -53.5308 O.2       0 UNK        -0.5000 
      4 N           4.4848  -12.3068  -51.6610 N.am      1 UNK        -0.5000 
      5 CA          3.2209  -13.0233  -51.4347 C.3       1 UNK         0.1400 
      6 C6          2.8241  -13.9623  -52.6084 C.3       23 UNK        -0.0398 
      7 S7          1.3684  -15.0109  -52.2752 S.3       23 UNK        -0.2404 
      8 C8          2.0722  -16.3183  -51.2219 C.3       23 UNK        -0.0205 
      9 C9          1.0216  -16.8474  -50.2589 C.ar      23 UNK        -0.0193 
     10 C10         0.5971  -16.0465  -49.1954 C.ar      23 UNK        -0.1150 
     11 C11        -0.3957  -16.4899  -48.3185 C.ar      23 UNK        -0.0193 
     12 C12        -0.9523  -17.7569  -48.5077 C.ar      23 UNK        -0.1150 
     13 C13        -0.5139  -18.5840  -49.5465 C.ar      23 UNK        -0.0193 
     14 C14         0.4707  -18.1217  -50.4243 C.ar      23 UNK        -0.1150 
     15 C15        -1.1119  -19.9711  -49.7171 C.3       23 UNK        -0.0205 
     16 S16        -0.1511  -21.2292  -48.8222 S.3       23 UNK        -0.2404 
     17 C17        -1.4216  -22.5093  -48.5390 C.3       23 UNK        -0.0398 
     18 CA         -0.8908  -23.6971  -47.6974 C.3       11 UNK         0.1400 
     19 N          -0.3912  -23.2948  -46.3758 N.am      11 UNK        -0.5000 
     20 C           0.2449  -24.1095  -45.5204 C.2       10 UNK         0.5000 
     21 O           0.5377  -25.2747  -45.7803 O.2       10 UNK        -0.5000 
     22 CA          0.5496  -23.5602  -44.1168 C.3       10 UNK         0.1400 
     23 CB          1.8674  -22.7703  -44.0968 C.3       10 UNK        -0.1800 
     24 N          -0.5470  -22.7350  -43.6115 N.am      10 UNK        -0.5000 
     25 C          -1.7275  -23.2229  -43.2031 C.2       9 UNK         0.5000 
     26 O          -1.9893  -24.4248  -43.1633 O.2       9 UNK        -0.5000 
     27 CA         -2.8113  -22.1977  -42.8174 C.3       9 UNK         0.1400 
     28 CB         -2.6432  -21.7557  -41.3566 C.3       9 UNK        -0.1800 
     29 N          -2.8029  -21.0190  -43.6840 N.am      9 UNK        -0.5000 
     30 C          -3.1038  -21.0423  -44.9918 C.2       8 UNK         0.5000 
     31 O          -3.4918  -22.0506  -45.5807 O.2       8 UNK        -0.5000 
     32 CA         -2.8635  -19.7432  -45.7874 C.3       8 UNK         0.1400 
     33 CB         -4.1259  -18.8705  -45.7951 C.3       8 UNK        -0.1800 
     34 N          -1.7423  -18.9523  -45.2740 N.am      8 UNK        -0.5000 
     35 C          -0.4816  -19.3910  -45.1491 C.2       7 UNK         0.5000 
     36 O          -0.1133  -20.4912  -45.5530 O.2       7 UNK        -0.5000 
     37 CA          0.5216  -18.5024  -44.3866 C.3       7 UNK         0.1400 
     38 CB          1.6063  -17.9625  -45.3310 C.3       7 UNK        -0.1800 
     39 N          -0.0724  -17.3855  -43.6446 N.am      7 UNK        -0.5000 
     40 C          -0.9581  -17.4686  -42.6430 C.2       6 UNK         0.5000 
     41 O          -1.4419  -18.5351  -42.2594 O.2       6 UNK        -0.5000 
     42 CA         -1.4240  -16.1521  -41.9820 C.3       6 UNK         0.1400 
     43 CB         -0.7348  -15.9549  -40.6184 C.3       6 UNK        -0.1800 
     44 N          -1.3153  -14.9350  -42.8086 N.am      6 UNK        -0.5000 
     45 C          -0.2108  -14.3230  -43.2581 C.2       5 UNK         0.5000 
     46 O           0.9310  -14.7659  -43.1052 O.2       5 UNK        -0.5000 
     47 CA         -0.4146  -13.0048  -44.0200 C.3       5 UNK         0.1400 
     48 CB         -0.7836  -11.8577  -43.0616 C.3       5 UNK        -0.1800 
     49 N           0.8281  -12.6950  -44.7170 N.am      5 UNK        -0.5000 
     50 C           0.9652  -11.8943  -45.7761 C.2       4 UNK         0.5000 
     51 O           0.0377  -11.2513  -46.2718 O.2       4 UNK        -0.5000 
     52 CA          2.3800  -11.8350  -46.3829 C.3       4 UNK         0.1400 
     53 CB          2.7841  -13.1978  -46.9723 C.3       4 UNK        -0.1800 
     54 N           2.4835  -10.8168  -47.4288 N.am      4 UNK        -0.5000 
     55 C           2.7058   -9.5147  -47.1977 C.2       3 UNK         0.5000 
     56 O           2.8676   -9.0472  -46.0691 O.2       3 UNK        -0.5000 
     57 CA          2.8019   -8.5691  -48.4140 C.3       3 UNK         0.1400 
     58 CB          4.2525   -8.1001  -48.6135 C.3       3 UNK        -0.1800 
     59 N           2.3422   -9.1786  -49.6612 N.am      3 UNK        -0.5000 
     60 C           1.0678   -9.2337  -50.0697 C.2       2 UNK         0.5000 
     61 O           0.1313   -8.7183  -49.4595 O.2       2 UNK        -0.5000 
     62 CA          0.7940  -10.0013  -51.3808 C.3       2 UNK         0.1400 
     63 CB          0.6730   -9.0262  -52.5612 C.3       2 UNK        -0.1800 
     64 N           1.8107  -11.0092  -51.7019 N.am      2 UNK        -0.5000 
     65 C           2.0802  -12.0930  -50.9643 C.2       1 UNK         0.5000 
     66 O           1.5048  -12.3385  -49.9060 O.2       1 UNK        -0.5000 
     67 C          -1.9535  -24.8115  -47.5818 C.2       11 UNK         0.5000 
     68 O          -1.8930  -25.7865  -48.3306 O.2       11 UNK        -0.5000 
     69 N          -2.8736  -24.6828  -46.6147 N.am      12 UNK        -0.5000 
     70 CA         -3.8648  -25.7041  -46.2758 C.3       12 UNK         0.1400 
     71 CB         -4.8987  -25.1238  -45.3004 C.3       12 UNK        -0.1800 
     72 C          -3.2342  -26.9948  -45.7232 C.2       12 UNK         0.5000 
     73 O          -3.6220  -28.0797  -46.1561 O.2       12 UNK        -0.5000 
     74 N          -2.2474  -26.8663  -44.8238 N.am      13 UNK        -0.5000 
     75 CA         -1.4873  -27.9893  -44.2619 C.3       13 UNK         0.1400 
     76 CB         -0.5837  -27.4871  -43.1263 C.3       13 UNK        -0.1800 
     77 C          -0.6621  -28.7529  -45.3174 C.2       13 UNK         0.5000 
     78 O          -0.5769  -29.9796  -45.2542 O.2       13 UNK        -0.5000 
     79 N          -0.1072  -28.0183  -46.2904 N.am      14 UNK        -0.5000 
     80 CA          0.5997  -28.5480  -47.4588 C.3       14 UNK         0.1400 
     81 CB          1.4535  -27.4233  -48.0671 C.3       14 UNK        -0.1800 
     82 C          -0.3361  -29.1468  -48.5306 C.2       14 UNK         0.5000 
     83 O           0.1589  -29.7537  -49.4813 O.2       14 UNK        -0.5000 
     84 N          -1.6547  -28.9547  -48.3731 N.am      15 UNK        -0.5000 
     85 CA         -2.7354  -29.3530  -49.2789 C.3       15 UNK         0.1400 
     86 CB         -2.8205  -30.8881  -49.4074 C.3       15 UNK        -0.1800 
     87 C          -2.6805  -28.6309  -50.6413 C.2       15 UNK         0.5000 
     88 O          -3.1142  -29.1840  -51.6541 O.2       15 UNK        -0.5000 
     89 N          -2.1893  -27.3841  -50.6454 N.am      16 UNK        -0.5000 
     90 CA         -2.1115  -26.5012  -51.8088 C.3       16 UNK         0.1400 
     91 CB         -0.9562  -25.5044  -51.6053 C.3       16 UNK        -0.1800 
     92 C          -3.4669  -25.8075  -52.0474 C.2       16 UNK         0.5000 
     93 O          -3.5703  -24.5835  -51.9476 O.2       16 UNK        -0.5000 
     94 N          -4.5005  -26.6272  -52.2922 N.am      17 UNK        -0.5000 
     95 CA         -5.8980  -26.2790  -52.5906 C.3       17 UNK         0.1400 
     96 CB         -5.9789  -25.5638  -53.9551 C.3       17 UNK        -0.1800 
     97 C          -6.6309  -25.4792  -51.4883 C.2       17 UNK         0.5000 
     98 O          -7.7266  -24.9759  -51.7411 O.2       17 UNK        -0.5000 
     99 N          -6.0142  -25.3580  -50.3016 N.am      18 UNK        -0.5000 
    100 CA        -6.3874  -24.4637  -49.1989 C.3       18 UNK         0.1400 
    101 CB        -7.6834  -24.9396  -48.5118 C.3       18 UNK        -0.1800 
    102 C         -6.4233  -22.9816  -49.6328 C.2       18 UNK         0.5000 
    103 O         -7.3197  -22.2359  -49.2327 O.2       18 UNK        -0.5000 
    104 N         -5.4523  -22.5996  -50.4755 N.am      19 UNK        -0.5000 
    105 CA        -5.2814  -21.2565  -51.0240 C.3       19 UNK         0.1400 
    106 CB        -4.1578  -21.3026  -52.0731 C.3       19 UNK        -0.1800 
    107 C         -4.9695  -20.1921  -49.9547 C.2       19 UNK         0.5000 
    108 O         -4.5268  -20.5186  -48.8518 O.2       19 UNK        -0.5000 
    109 N         -5.1597  -18.9271  -50.3373 N.am      20 UNK        -0.5000 
    110 CA        -4.8399  -17.7429  -49.5488 C.3       20 UNK         0.1400 
    111 CB        -6.0289  -17.3735  -48.6419 C.3       20 UNK        -0.1800 
    112 C         -4.4490  -16.6276  -50.5283 C.2       20 UNK         0.5000 
    113 O         -5.1262  -15.6018  -50.6106 O.2       20 UNK        -0.5000 
    114 N         -3.3803  -16.8753  -51.3000 N.am      21 UNK        -0.5000 
    115 CA        -2.8984  -16.0154  -52.3896 C.3       21 UNK         0.1400 
    116 CB        -1.7799  -16.7449  -53.1470 C.3       21 UNK        -0.1800 
    117 C         -2.4557  -14.6007  -51.9568 C.2       21 UNK         0.5000 
    118 O         -2.4130  -13.6994  -52.7953 O.2       21 UNK        -0.5000 
    119 N         -2.1901  -14.4197  -50.6581 N.am      22 UNK        -0.5000 
    120 CA        -2.0616  -13.1176  -49.9897 C.3       22 UNK         0.1400 
    121 C         -3.3547  -12.2456  -49.9888 C.2       22 UNK         0.5000 
    122 N         -4.5420  -12.7955  -50.2179 N.am      22 UNK        -0.7600 
    123 O         -3.2754  -11.0370  -49.7886 O.2       22 UNK        -0.5000 
    124 C124       -1.4893  -13.2578  -48.5544 C.3       23 UNK        -0.0398 
    125 S125       -2.2692  -14.5732  -47.5463 S.3       23 UNK        -0.2404 
    126 C126       -0.8388  -15.6243  -47.1457 C.3       23 UNK        -0.0205 
    127 H127        6.7034  -11.1053  -53.5699 H         1 UNK         0.0600 
    128 H128        6.7808  -11.2181  -51.8092 H         1 UNK         0.0600 
    129 H129        6.1247   -9.7668  -52.5720 H         1 UNK         0.0600 
    130 H130        5.1961  -12.4938  -50.9675 H         1 UNK         0.3000 
    131 H131        3.4356  -13.6656  -50.5797 H         1 UNK         0.0600 
    132 H132        2.6075  -13.3813  -53.5054 H         1 UNK         0.0800 
    133 H133        3.6632  -14.6094  -52.8672 H         1 UNK         0.0800 
    134 H134        2.9158  -15.9369  -50.6466 H         1 UNK         0.0800 
    135 H135        2.4638  -17.1169  -51.8536 H         1 UNK         0.0800 
    136 H136        1.0392  -15.0704  -49.0673 H         1 UNK         0.1150 
    137 H137       -1.7184  -18.1060  -47.8340 H         1 UNK         0.1150 
    138 H138        0.8035  -18.7524  -51.2366 H         1 UNK         0.1150 
    139 H139       -2.1314  -19.9639  -49.3418 H         1 UNK         0.0800 
    140 H140       -1.1692  -20.2378  -50.7733 H         1 UNK         0.0800 
    141 H141       -1.7736  -22.8547  -49.5128 H         1 UNK         0.0800 
    142 H142       -2.2819  -22.0509  -48.0498 H         1 UNK         0.0800 
    143 H143       -0.0443  -24.1274  -48.2370 H         1 UNK         0.0600 
    144 H144       -0.5197  -22.3217  -46.1138 H         1 UNK         0.3000 
    145 H145        0.6680  -24.4115  -43.4436 H         1 UNK         0.0600 
    146 H146        2.0777  -22.3774  -43.1021 H         1 UNK         0.0600 
    147 H147        2.7037  -23.4123  -44.3757 H         1 UNK         0.0600 
    148 H148        1.8583  -21.9334  -44.7941 H         1 UNK         0.0600 
    149 H149       -0.4363  -21.7352  -43.7010 H         1 UNK         0.3000 
    150 H150       -3.7829  -22.6859  -42.9178 H         1 UNK         0.0600 
    151 H151       -2.6675  -22.6137  -40.6835 H         1 UNK         0.0600 
    152 H152       -3.4451  -21.0820  -41.0542 H         1 UNK         0.0600 
    153 H153       -1.6955  -21.2392  -41.1984 H         1 UNK         0.0600 
    154 H154       -2.4673  -20.1549  -43.2730 H         1 UNK         0.3000 
    155 H155       -2.6314  -20.0260  -46.8149 H         1 UNK         0.0600 
    156 H156       -3.9842  -17.9752  -46.4003 H         1 UNK         0.0600 
    157 H157       -4.9707  -19.4178  -46.2155 H         1 UNK         0.0600 
    158 H158       -4.4049  -18.5556  -44.7889 H         1 UNK         0.0600 
    159 H159       -1.9669  -18.0521  -44.8793 H         1 UNK         0.3000 
    160 H160        1.0094  -19.1490  -43.6545 H         1 UNK         0.0600 
    161 H161        2.3847  -17.4371  -44.7775 H         1 UNK         0.0600 
    162 H162        1.1977  -17.2727  -46.0672 H         1 UNK         0.0600 
    163 H163        2.0893  -18.7734  -45.8782 H         1 UNK         0.0600 
    164 H164        0.3257  -16.4682  -43.8144 H         1 UNK         0.3000 
    165 H165       -2.4907  -16.2776  -41.7898 H         1 UNK         0.0600 
    166 H166       -1.1136  -15.0685  -40.1095 H         1 UNK         0.0600 
    167 H167       -0.9171  -16.8076  -39.9631 H         1 UNK         0.0600 
    168 H168        0.3457  -15.8489  -40.7186 H         1 UNK         0.0600 
    169 H169       -2.2029  -14.5015  -43.0236 H         1 UNK         0.3000 
    170 H170       -1.2117  -13.1491  -44.7525 H         1 UNK         0.0600 
    171 H171       -1.7074  -12.0739  -42.5239 H         1 UNK         0.0600 
    172 H172       -0.0023  -11.6895  -42.3193 H         1 UNK         0.0600 
    173 H173       -0.9375  -10.9234  -43.6017 H         1 UNK         0.0600 
    174 H174        1.6189  -13.2288  -44.3754 H         1 UNK         0.3000 
    175 H175        3.0812  -11.5918  -45.5816 H         1 UNK         0.0600 
    176 H176        2.0477  -13.5581  -47.6881 H         1 UNK         0.0600 
    177 H177        3.7471  -13.1420  -47.4802 H         1 UNK         0.0600 
    178 H178        2.8745  -13.9553  -46.1930 H         1 UNK         0.0600 
    179 H179        2.2578  -11.1211  -48.3681 H         1 UNK         0.3000 
    180 H180        2.1886   -7.6923  -48.1958 H         1 UNK         0.0600 
    181 H181        4.9196   -8.9354  -48.8307 H         1 UNK         0.0600 
    182 H182        4.6304   -7.6022  -47.7196 H         1 UNK         0.0600 
    183 H183        4.3273   -7.3877  -49.4354 H         1 UNK         0.0600 
    184 H184        3.0437   -9.6247  -50.2331 H         1 UNK         0.3000 
    185 H185       -0.1616  -10.5156  -51.2626 H         1 UNK         0.0600 
    186 H186       -0.0932   -8.2735  -52.3706 H         1 UNK         0.0600 
    187 H187        1.6114   -8.5018  -52.7463 H         1 UNK         0.0600 
    188 H188        0.3937   -9.5483  -53.4766 H         1 UNK         0.0600 
    189 H189        2.3691  -10.8605  -52.5382 H         1 UNK         0.3000 
    190 H190       -2.9044  -23.8217  -46.0754 H         1 UNK         0.3000 
    191 H191       -4.3863  -25.9786  -47.1938 H         1 UNK         0.0600 
    192 H192       -4.4372  -24.8056  -44.3655 H         1 UNK         0.0600 
    193 H193       -5.6632  -25.8623  -45.0559 H         1 UNK         0.0600 
    194 H194       -5.4060  -24.2609  -45.7323 H         1 UNK         0.0600 
    195 H195       -2.0179  -25.9416  -44.4734 H         1 UNK         0.3000 
    196 H196       -2.2055  -28.6922  -43.8349 H         1 UNK         0.0600 
    197 H197       -0.0459  -28.3142  -42.6613 H         1 UNK         0.0600 
    198 H198       -1.1654  -26.9975  -42.3452 H         1 UNK         0.0600 
    199 H199        0.1590  -26.7763  -43.4879 H         1 UNK         0.0600 
    200 H200       -0.1541  -27.0052  -46.2177 H         1 UNK         0.3000 
    201 H201        1.2686  -29.3445  -47.1272 H         1 UNK         0.0600 
    202 H202        2.1594  -27.0253  -47.3379 H         1 UNK         0.0600 
    203 H203        0.8348  -26.5972  -48.4196 H         1 UNK         0.0600 
    204 H204        2.0345  -27.7843  -48.9166 H         1 UNK         0.0600 
    205 H205       -1.9551  -28.4378  -47.5561 H         1 UNK         0.3000 
    206 H206       -3.6583  -29.0166  -48.8048 H         1 UNK         0.0600 
    207 H207       -2.8583  -31.3634  -48.4271 H         1 UNK         0.0600 
    208 H208       -3.7213  -31.1855  -49.9454 H         1 UNK         0.0600 
    209 H209       -1.9682  -31.2997  -49.9483 H         1 UNK         0.0600 
    210 H210       -1.9312  -26.9623  -49.7553 H         1 UNK         0.3000 
    211 H211       -1.8842  -27.0940  -52.6972 H         1 UNK         0.0600 
    212 H212       -1.1220  -24.8613  -50.7419 H         1 UNK         0.0600 
    213 H213       -0.8402  -24.8589  -52.4766 H         1 UNK         0.0600 
    214 H214       -0.0097  -26.0244  -51.4564 H         1 UNK         0.0600 
    215 H215       -4.2932  -27.6211  -52.2910 H         1 UNK         0.3000 
    216 H216       -6.4325  -27.2257  -52.6793 H         1 UNK         0.0600 
    217 H217       -7.0144  -25.4269  -54.2688 H         1 UNK         0.0600 
    218 H218       -5.4815  -26.1420  -54.7338 H         1 UNK         0.0600 
    219 H219       -5.5150  -24.5774  -53.9213 H         1 UNK         0.0600 
    220 H220       -5.1146  -25.8076  -50.2144 H         1 UNK         0.3000 
    221 H221       -5.5849  -24.5268  -48.4654 H         1 UNK         0.0600 
    222 H222       -8.5482  -24.8515  -49.1699 H         1 UNK         0.0600 
    223 H223       -7.6033  -25.9807  -48.1993 H         1 UNK         0.0600 
    224 H224       -7.8904  -24.3490  -47.6187 H         1 UNK         0.0600 
    225 H225       -4.7793  -23.2911  -50.7866 H         1 UNK         0.3000 
    226 H226       -6.2141  -20.9789  -51.5191 H         1 UNK         0.0600 
    227 H227       -3.9993  -20.3273  -52.5347 H         1 UNK         0.0600 
    228 H228       -3.2109  -21.6162  -51.6315 H         1 UNK         0.0600 
    229 H229       -4.3973  -22.0023  -52.8743 H         1 UNK         0.0600 
    230 H230       -5.5048  -18.7417  -51.2695 H         1 UNK         0.3000 
    231 H231       -3.9697  -17.9399  -48.9200 H         1 UNK         0.0600 
    232 H232       -6.2706  -18.1856  -47.9566 H         1 UNK         0.0600 
    233 H233       -6.9248  -17.1518  -49.2229 H         1 UNK         0.0600 
    234 H234       -5.7992  -16.4948  -48.0379 H         1 UNK         0.0600 
    235 H235       -2.8783  -17.7402  -51.1657 H         1 UNK         0.3000 
    236 H236       -3.7318  -15.8789  -53.0817 H         1 UNK         0.0600 
    237 H237       -2.1337  -17.6871  -53.5656 H         1 UNK         0.0600 
    238 H238       -1.4077  -16.1405  -53.9752 H         1 UNK         0.0600 
    239 H239       -0.9343  -16.9627  -52.4977 H         1 UNK         0.0600 
    240 H240       -2.2317  -15.2185  -50.0429 H         1 UNK         0.3000 
    241 H241       -1.3305  -12.5490  -50.5668 H         1 UNK         0.0600 
    242 H242       -4.6435  -13.7953  -50.3727 H         1 UNK         0.3800 
    243 H243       -5.3623  -12.2111  -50.2184 H         1 UNK         0.3800 
    244 H244       -1.5731  -12.3157  -48.0113 H         1 UNK         0.0800 
    245 H245       -0.4200  -13.4423  -48.6140 H         1 UNK         0.0800 
    246 H246       -0.0122  -15.0047  -46.7944 H         1 UNK         0.0800 
    247 H247       -1.1111  -16.2622  -46.3049 H         1 UNK         0.0800 
@<TRIPOS>BOND
     1    1    2 1    
     2    1  127 1    
     3    1  128 1    
     4    1  129 1    
     5    2    3 2    
     6    2    4 am   BACKBONE|DICT|INTERRES
     7    4    5 1    
     8    4  130 1    
     9    5    6 1    
    10    5   65 1    
    11    5  131 1    
    12    6    7 1    
    13    6  132 1    
    14    6  133 1    
    15    7    8 1    
    16    8    9 1    
    17    8  134 1    
    18    8  135 1    
    19    9   10 ar   
    20    9   14 ar   
    21   10   11 ar   
    22   10  136 1    
    23   11   12 ar   
    24   11  126 1    
    25   12   13 ar   
    26   12  137 1    
    27   13   14 ar   
    28   13   15 1    
    29   14  138 1    
    30   15   16 1    
    31   15  139 1    
    32   15  140 1    
    33   16   17 1    
    34   17   18 1    
    35   17  141 1    
    36   17  142 1    
    37   18   19 1    
    38   18   67 1    
    39   18  143 1    
    40   19   20 am   BACKBONE|DICT|INTERRES
    41   19  144 1    
    42   20   21 2    
    43   20   22 1    
    44   22   23 1    
    45   22   24 1    
    46   22  145 1    
    47   23  146 1    
    48   23  147 1    
    49   23  148 1    
    50   24   25 am   BACKBONE|DICT|INTERRES
    51   24  149 1    
    52   25   26 2    
    53   25   27 1    
    54   27   28 1    
    55   27   29 1    
    56   27  150 1    
    57   28  151 1    
    58   28  152 1    
    59   28  153 1    
    60   29   30 am   BACKBONE|DICT|INTERRES
    61   29  154 1    
    62   30   31 2    
    63   30   32 1    
    64   32   33 1    
    65   32   34 1    
    66   32  155 1    
    67   33  156 1    
    68   33  157 1    
    69   33  158 1    
    70   34   35 am   BACKBONE|DICT|INTERRES
    71   34  159 1    
    72   35   36 2    
    73   35   37 1    
    74   37   38 1    
    75   37   39 1    
    76   37  160 1    
    77   38  161 1    
    78   38  162 1    
    79   38  163 1    
    80   39   40 am   BACKBONE|DICT|INTERRES
    81   39  164 1    
    82   40   41 2    
    83   40   42 1    
    84   42   43 1    
    85   42   44 1    
    86   42  165 1    
    87   43  166 1    
    88   43  167 1    
    89   43  168 1    
    90   44   45 am   BACKBONE|DICT|INTERRES
    91   44  169 1    
    92   45   46 2    
    93   45   47 1    
    94   47   48 1    
    95   47   49 1    
    96   47  170 1    
    97   48  171 1    
    98   48  172 1    
    99   48  173 1    
   100   49   50 am   BACKBONE|DICT|INTERRES
   101   49  174 1    
   102   50   51 2    
   103   50   52 1    
   104   52   53 1    
   105   52   54 1    
   106   52  175 1    
   107   53  176 1    
   108   53  177 1    
   109   53  178 1    
   110   54   55 am   BACKBONE|DICT|INTERRES
   111   54  179 1    
   112   55   56 2    
   113   55   57 1    
   114   57   58 1    
   115   57   59 1    
   116   57  180 1    
   117   58  181 1    
   118   58  182 1    
   119   58  183 1    
   120   59   60 am   BACKBONE|DICT|INTERRES
   121   59  184 1    
   122   60   61 2    
   123   60   62 1    
   124   62   63 1    
   125   62   64 1    
   126   62  185 1    
   127   63  186 1    
   128   63  187 1    
   129   63  188 1    
   130   64   65 am   BACKBONE|DICT|INTERRES
   131   64  189 1    
   132   65   66 2    
   133   67   68 2    
   134   67   69 am   BACKBONE|DICT|INTERRES
   135   69   70 1    
   136   69  190 1    
   137   70   71 1    
   138   70   72 1    
   139   70  191 1    
   140   71  192 1    
   141   71  193 1    
   142   71  194 1    
   143   72   73 2    
   144   72   74 am   BACKBONE|DICT|INTERRES
   145   74   75 1    
   146   74  195 1    
   147   75   76 1    
   148   75   77 1    
   149   75  196 1    
   150   76  197 1    
   151   76  198 1    
   152   76  199 1    
   153   77   78 2    
   154   77   79 am   BACKBONE|DICT|INTERRES
   155   79   80 1    
   156   79  200 1    
   157   80   81 1    
   158   80   82 1    
   159   80  201 1    
   160   81  202 1    
   161   81  203 1    
   162   81  204 1    
   163   82   83 2    
   164   82   84 am   BACKBONE|DICT|INTERRES
   165   84   85 1    
   166   84  205 1    
   167   85   86 1    
   168   85   87 1    
   169   85  206 1    
   170   86  207 1    
   171   86  208 1    
   172   86  209 1    
   173   87   88 2    
   174   87   89 am   BACKBONE|DICT|INTERRES
   175   89   90 1    
   176   89  210 1    
   177   90   91 1    
   178   90   92 1    
   179   90  211 1    
   180   91  212 1    
   181   91  213 1    
   182   91  214 1    
   183   92   93 2    
   184   92   94 am   BACKBONE|DICT|INTERRES
   185   94   95 1    
   186   94  215 1    
   187   95   96 1    
   188   95   97 1    
   189   95  216 1    
   190   96  217 1    
   191   96  218 1    
   192   96  219 1    
   193   97   98 2    
   194   97   99 am   BACKBONE|DICT|INTERRES
   195   99  100 1    
   196   99  220 1    
   197  100  101 1    
   198  100  102 1    
   199  100  221 1    
   200  101  222 1    
   201  101  223 1    
   202  101  224 1    
   203  102  103 2    
   204  102  104 am   BACKBONE|DICT|INTERRES
   205  104  105 1    
   206  104  225 1    
   207  105  106 1    
   208  105  107 1    
   209  105  226 1    
   210  106  227 1    
   211  106  228 1    
   212  106  229 1    
   213  107  108 2    
   214  107  109 am   BACKBONE|DICT|INTERRES
   215  109  110 1    
   216  109  230 1    
   217  110  111 1    
   218  110  112 1    
   219  110  231 1    
   220  111  232 1    
   221  111  233 1    
   222  111  234 1    
   223  112  113 2    
   224  112  114 am   BACKBONE|DICT|INTERRES
   225  114  115 1    
   226  114  235 1    
   227  115  116 1    
   228  115  117 1    
   229  115  236 1    
   230  116  237 1    
   231  116  238 1    
   232  116  239 1    
   233  117  118 2    
   234  117  119 am   BACKBONE|DICT|INTERRES
   235  119  120 1    
   236  119  240 1    
   237  120  121 1    
   238  120  124 1    
   239  120  241 1    
   240  121  122 am   BACKBONE|DICT|INTERRES
   241  121  123 2    
   242  122  242 1    
   243  122  243 1    
   244  124  125 1    
   245  124  244 1    
   246  124  245 1    
   247  125  126 1    
   248  126  246 1    
   249  126  247 1    
@<TRIPOS>SUBSTRUCTURE
     1 UNK         1 GROUP             0       ****    0 ROOT    
