@<TRIPOS>MOLECULE
3R540
247   249    1
SMALL
USER_CHARGES


@<TRIPOS>ATOM
      1 CA         -7.1831  -19.2086  -43.8201 C.3       0 UNK        -0.1800 
      2 C          -6.7498  -17.8567  -44.3672 C.2       0 UNK         0.5000 
      3 O          -7.5799  -17.1218  -44.9011 O.2       0 UNK        -0.5000 
      4 N          -5.4582  -17.5370  -44.2409 N.am      1 UNK        -0.5000 
      5 CA         -4.8516  -16.2701  -44.6527 C.3       1 UNK         0.1400 
      6 C6         -3.9837  -16.4215  -45.9264 C.3       23 UNK        -0.0398 
      7 S7         -4.9789  -16.8037  -47.4091 S.3       23 UNK        -0.2404 
      8 C8         -4.4556  -15.4976  -48.5662 C.3       23 UNK        -0.0205 
      9 C9         -3.2649  -15.9171  -49.4203 C.ar      23 UNK        -0.0193 
     10 C10        -3.3926  -15.9769  -50.8097 C.ar      23 UNK        -0.1150 
     11 C11        -2.3106  -16.3330  -51.6196 C.ar      23 UNK        -0.0193 
     12 C12        -1.0832  -16.6394  -51.0156 C.ar      23 UNK        -0.1150 
     13 C13        -0.9375  -16.5898  -49.6232 C.ar      23 UNK        -0.0193 
     14 C14        -2.0326  -16.2232  -48.8374 C.ar      23 UNK        -0.1150 
     15 C15         0.3942  -16.8866  -48.9362 C.3       23 UNK        -0.0205 
     16 S16         1.3829  -18.2168  -49.6971 S.3       23 UNK        -0.2404 
     17 C17         0.2664  -19.6648  -49.6195 C.3       23 UNK        -0.0398 
     18 CA          0.2633  -20.4841  -48.2976 C.3       11 UNK         0.1400 
     19 N           1.5576  -20.5385  -47.6208 N.am      11 UNK        -0.5000 
     20 C           2.5839  -21.2823  -48.0579 C.2       10 UNK         0.5000 
     21 O           2.5020  -22.0542  -49.0142 O.2       10 UNK        -0.5000 
     22 CA          3.9232  -21.1668  -47.3153 C.3       10 UNK         0.1400 
     23 CB          4.7012  -19.9282  -47.7836 C.3       10 UNK        -0.1800 
     24 N           3.7159  -21.1008  -45.8717 N.am      10 UNK        -0.5000 
     25 C           4.2222  -21.9675  -44.9854 C.2       9 UNK         0.5000 
     26 O           4.9952  -22.8813  -45.2768 O.2       9 UNK        -0.5000 
     27 CA          3.7755  -21.8003  -43.5215 C.3       9 UNK         0.1400 
     28 CB          4.6986  -20.8184  -42.7859 C.3       9 UNK        -0.1800 
     29 N           2.3951  -21.3368  -43.3968 N.am      9 UNK        -0.5000 
     30 C           1.3026  -22.0116  -43.7736 C.2       8 UNK         0.5000 
     31 O           1.3352  -23.1551  -44.2287 O.2       8 UNK        -0.5000 
     32 CA         -0.0563  -21.2923  -43.6567 C.3       8 UNK         0.1400 
     33 CB         -0.7959  -21.6900  -42.3661 C.3       8 UNK        -0.1800 
     34 N           0.0001  -19.8321  -43.8151 N.am      8 UNK        -0.5000 
     35 C           0.5538  -18.9095  -43.0185 C.2       7 UNK         0.5000 
     36 O           1.1491  -19.1674  -41.9709 O.2       7 UNK        -0.5000 
     37 CA          0.4813  -17.4550  -43.5181 C.3       7 UNK         0.1400 
     38 CB          0.0550  -16.5146  -42.3797 C.3       7 UNK        -0.1800 
     39 N           1.7502  -16.9740  -44.0677 N.am      7 UNK        -0.5000 
     40 C           2.4990  -17.5562  -45.0173 C.2       6 UNK         0.5000 
     41 O           2.2385  -18.6398  -45.5422 O.2       6 UNK        -0.5000 
     42 CA          3.7602  -16.8005  -45.4727 C.3       6 UNK         0.1400 
     43 CB          3.5218  -16.1371  -46.8389 C.3       6 UNK        -0.1800 
     44 N           4.1982  -15.7859  -44.5104 N.am      6 UNK        -0.5000 
     45 C           4.9377  -16.0563  -43.4241 C.2       5 UNK         0.5000 
     46 O           5.3250  -17.1887  -43.1361 O.2       5 UNK        -0.5000 
     47 CA          5.3305  -14.8820  -42.5045 C.3       5 UNK         0.1400 
     48 CB          6.7965  -14.4857  -42.7397 C.3       5 UNK        -0.1800 
     49 N           4.4931  -13.6930  -42.6639 N.am      5 UNK        -0.5000 
     50 C           3.2266  -13.5843  -42.2439 C.2       4 UNK         0.5000 
     51 O           2.6232  -14.4899  -41.6677 O.2       4 UNK        -0.5000 
     52 CA          2.4935  -12.2555  -42.5330 C.3       4 UNK         0.1400 
     53 CB          3.3827  -11.1674  -43.1766 C.3       4 UNK        -0.1800 
     54 N           1.2902  -12.4598  -43.3442 N.am      4 UNK        -0.5000 
     55 C           1.2014  -13.0898  -44.5227 C.2       3 UNK         0.5000 
     56 O           2.1673  -13.6094  -45.0837 O.2       3 UNK        -0.5000 
     57 CA         -0.2003  -13.1539  -45.1734 C.3       3 UNK         0.1400 
     58 CB         -0.2159  -14.0199  -46.4471 C.3       3 UNK        -0.1800 
     59 N          -1.2464  -13.6486  -44.2727 N.am      3 UNK        -0.5000 
     60 C          -1.8021  -12.9945  -43.2430 C.2       2 UNK         0.5000 
     61 O          -1.4661  -11.8594  -42.9011 O.2       2 UNK        -0.5000 
     62 CA         -2.9226  -13.7386  -42.4908 C.3       2 UNK         0.1400 
     63 CB         -3.7875  -12.7991  -41.6307 C.3       2 UNK        -0.1800 
     64 N          -3.7818  -14.4386  -43.4475 N.am      2 UNK        -0.5000 
     65 C          -3.9853  -15.7596  -43.4900 C.2       1 UNK         0.5000 
     66 O          -3.4890  -16.5628  -42.6966 O.2       1 UNK        -0.5000 
     67 C          -0.8569  -20.0411  -47.3445 C.2       11 UNK         0.5000 
     68 O          -0.6445  -19.1931  -46.4767 O.2       11 UNK        -0.5000 
     69 N          -2.0462  -20.6172  -47.5468 N.am      12 UNK        -0.5000 
     70 CA         -3.2975  -20.2619  -46.8942 C.3       12 UNK         0.1400 
     71 CB         -3.3457  -20.7825  -45.4474 C.3       12 UNK        -0.1800 
     72 C          -4.4497  -20.8384  -47.7223 C.2       12 UNK         0.5000 
     73 O          -4.2793  -21.8798  -48.3654 O.2       12 UNK        -0.5000 
     74 N          -5.5983  -20.1542  -47.6890 N.am      13 UNK        -0.5000 
     75 CA         -6.8150  -20.5317  -48.4088 C.3       13 UNK         0.1400 
     76 CB         -7.7977  -19.3518  -48.3920 C.3       13 UNK        -0.1800 
     77 C          -7.4748  -21.8000  -47.8428 C.2       13 UNK         0.5000 
     78 O          -7.9441  -22.6341  -48.6157 O.2       13 UNK        -0.5000 
     79 N          -7.4573  -21.9455  -46.5097 N.am      14 UNK        -0.5000 
     80 CA         -8.0087  -23.0991  -45.7896 C.3       14 UNK         0.1400 
     81 CB         -8.0677  -22.7797  -44.2880 C.3       14 UNK        -0.1800 
     82 C          -7.2173  -24.3981  -46.0332 C.2       14 UNK         0.5000 
     83 O          -7.7990  -25.4828  -46.0065 O.2       14 UNK        -0.5000 
     84 N          -5.9105  -24.2568  -46.2894 N.am      15 UNK        -0.5000 
     85 CA         -5.0068  -25.3470  -46.6550 C.3       15 UNK         0.1400 
     86 CB         -3.5771  -24.9369  -46.2615 C.3       15 UNK        -0.1800 
     87 C          -5.0651  -25.6905  -48.1574 C.2       15 UNK         0.5000 
     88 O          -4.5014  -26.7079  -48.5593 O.2       15 UNK        -0.5000 
     89 N          -5.6857  -24.8094  -48.9603 N.am      16 UNK        -0.5000 
     90 CA         -5.7226  -24.7787  -50.4301 C.3       16 UNK         0.1400 
     91 CB         -6.3831  -26.0465  -51.0069 C.3       16 UNK        -0.1800 
     92 C          -4.3519  -24.4862  -51.0808 C.2       16 UNK         0.5000 
     93 O          -4.2325  -24.5237  -52.3058 O.2       16 UNK        -0.5000 
     94 N          -3.3467  -24.1573  -50.2597 N.am      17 UNK        -0.5000 
     95 CA         -1.9792  -23.8524  -50.6690 C.3       17 UNK         0.1400 
     96 CB         -1.0606  -23.9617  -49.4444 C.3       17 UNK        -0.1800 
     97 C          -1.8559  -22.4784  -51.3489 C.2       17 UNK         0.5000 
     98 O          -0.9301  -22.2771  -52.1317 O.2       17 UNK        -0.5000 
     99 N          -2.8094  -21.5728  -51.0833 N.am      18 UNK        -0.5000 
    100 CA        -2.9591  -20.2947  -51.7840 C.3       18 UNK         0.1400 
    101 CB        -4.1022  -19.4936  -51.1447 C.3       18 UNK        -0.1800 
    102 C         -3.1872  -20.4647  -53.2970 C.2       18 UNK         0.5000 
    103 O         -2.5774  -19.7440  -54.0855 O.2       18 UNK        -0.5000 
    104 N         -4.0163  -21.4465  -53.6787 N.am      19 UNK        -0.5000 
    105 CA        -4.2966  -21.7790  -55.0770 C.3       19 UNK         0.1400 
    106 CB        -5.4834  -22.7517  -55.1458 C.3       19 UNK        -0.1800 
    107 C         -3.0699  -22.3583  -55.8055 C.2       19 UNK         0.5000 
    108 O         -2.8795  -22.0797  -56.9895 O.2       19 UNK        -0.5000 
    109 N         -2.2469  -23.1272  -55.0797 N.am      20 UNK        -0.5000 
    110 CA        -0.9826  -23.6697  -55.5732 C.3       20 UNK         0.1400 
    111 CB        -0.5090  -24.7964  -54.6415 C.3       20 UNK        -0.1800 
    112 C          0.0978  -22.5819  -55.7192 C.2       20 UNK         0.5000 
    113 O          0.8104  -22.5680  -56.7234 O.2       20 UNK        -0.5000 
    114 N          0.1970  -21.6947  -54.7200 N.am      21 UNK        -0.5000 
    115 CA         1.1767  -20.6119  -54.6617 C.3       21 UNK         0.1400 
    116 CB         1.2309  -20.0458  -53.2345 C.3       21 UNK        -0.1800 
    117 C          0.9058  -19.4924  -55.6801 C.2       21 UNK         0.5000 
    118 O          1.8186  -19.1141  -56.4165 O.2       21 UNK        -0.5000 
    119 N         -0.3277  -18.9734  -55.6924 N.am      22 UNK        -0.5000 
    120 CA        -0.7281  -17.8223  -56.5198 C.3       22 UNK         0.1400 
    121 C         -1.2876  -18.2100  -57.9185 C.2       22 UNK         0.5000 
    122 N         -1.5280  -19.4802  -58.2180 N.am      22 UNK        -0.7600 
    123 O         -1.4959  -17.3387  -58.7586 O.2       22 UNK        -0.5000 
    124 C124       -1.7052  -16.8778  -55.7726 C.3       23 UNK        -0.0398 
    125 S125       -1.0467  -16.2920  -54.1694 S.3       23 UNK        -0.2404 
    126 C126       -2.5401  -16.4182  -53.1285 C.3       23 UNK        -0.0205 
    127 H127       -7.7563  -19.0749  -42.9028 H         1 UNK         0.0600 
    128 H128       -6.3305  -19.8518  -43.6009 H         1 UNK         0.0600 
    129 H129       -7.8182  -19.7152  -44.5458 H         1 UNK         0.0600 
    130 H130       -4.8395  -18.1316  -43.7051 H         1 UNK         0.3000 
    131 H131       -5.6264  -15.5220  -44.8350 H         1 UNK         0.0600 
    132 H132       -3.4260  -15.5021  -46.1084 H         1 UNK         0.0800 
    133 H133       -3.2324  -17.2006  -45.7902 H         1 UNK         0.0800 
    134 H134       -4.2212  -14.5757  -48.0329 H         1 UNK         0.0800 
    135 H135       -5.3091  -15.2608  -49.2031 H         1 UNK         0.0800 
    136 H136       -4.3449  -15.7474  -51.2673 H         1 UNK         0.1150 
    137 H137       -0.2377  -16.9237  -51.6242 H         1 UNK         0.1150 
    138 H138       -1.9199  -16.1762  -47.7655 H         1 UNK         0.1150 
    139 H139        0.9893  -15.9729  -48.9417 H         1 UNK         0.0800 
    140 H140        0.2378  -17.1375  -47.8864 H         1 UNK         0.0800 
    141 H141       -0.7403  -19.3531  -49.8944 H         1 UNK         0.0800 
    142 H142        0.5813  -20.3303  -50.4225 H         1 UNK         0.0800 
    143 H143        0.0181  -21.5119  -48.5632 H         1 UNK         0.0600 
    144 H144        1.6771  -19.8817  -46.8526 H         1 UNK         0.3000 
    145 H145        4.5111  -22.0490  -47.5769 H         1 UNK         0.0600 
    146 H146        4.1431  -19.0124  -47.5984 H         1 UNK         0.0600 
    147 H147        5.6609  -19.8472  -47.2732 H         1 UNK         0.0600 
    148 H148        4.9019  -19.9766  -48.8545 H         1 UNK         0.0600 
    149 H149        3.0938  -20.3688  -45.5429 H         1 UNK         0.3000 
    150 H150        3.8491  -22.7751  -43.0351 H         1 UNK         0.0600 
    151 H151        5.7387  -21.1425  -42.8397 H         1 UNK         0.0600 
    152 H152        4.4350  -20.7422  -41.7309 H         1 UNK         0.0600 
    153 H153        4.6426  -19.8187  -43.2180 H         1 UNK         0.0600 
    154 H154        2.2508  -20.4236  -42.9789 H         1 UNK         0.3000 
    155 H155       -0.6525  -21.6507  -44.4965 H         1 UNK         0.0600 
    156 H156       -1.7844  -21.2327  -42.3223 H         1 UNK         0.0600 
    157 H157       -0.2468  -21.3921  -41.4726 H         1 UNK         0.0600 
    158 H158       -0.9352  -22.7705  -42.3162 H         1 UNK         0.0600 
    159 H159       -0.3375  -19.5029  -44.7191 H         1 UNK         0.3000 
    160 H160       -0.2660  -17.3903  -44.3115 H         1 UNK         0.0600 
    161 H161        0.7649  -16.5382  -41.5519 H         1 UNK         0.0600 
    162 H162       -0.9187  -16.7985  -41.9806 H         1 UNK         0.0600 
    163 H163       -0.0134  -15.4830  -42.7174 H         1 UNK         0.0600 
    164 H164        2.0943  -16.1064  -43.6811 H         1 UNK         0.3000 
    165 H165        4.5560  -17.5383  -45.5951 H         1 UNK         0.0600 
    166 H166        2.6993  -15.4237  -46.8081 H         1 UNK         0.0600 
    167 H167        4.4116  -15.6111  -47.1846 H         1 UNK         0.0600 
    168 H168        3.2685  -16.8778  -47.5968 H         1 UNK         0.0600 
    169 H169        3.8657  -14.8408  -44.6684 H         1 UNK         0.3000 
    170 H170        5.2345  -15.2312  -41.4742 H         1 UNK         0.0600 
    171 H171        7.4608  -15.3389  -42.5956 H         1 UNK         0.0600 
    172 H172        6.9550  -14.1141  -43.7529 H         1 UNK         0.0600 
    173 H173        7.1128  -13.7093  -42.0427 H         1 UNK         0.0600 
    174 H174        4.9068  -12.9113  -43.1510 H         1 UNK         0.3000 
    175 H175        2.1560  -11.8790  -41.5665 H         1 UNK         0.0600 
    176 H176        3.7474  -11.4621  -44.1614 H         1 UNK         0.0600 
    177 H177        2.8270  -10.2377  -43.2996 H         1 UNK         0.0600 
    178 H178        4.2464  -10.9391  -42.5508 H         1 UNK         0.0600 
    179 H179        0.4249  -12.0916  -42.9590 H         1 UNK         0.3000 
    180 H180       -0.4562  -12.1331  -45.4639 H         1 UNK         0.0600 
    181 H181        0.0156  -15.0631  -46.2273 H         1 UNK         0.0600 
    182 H182        0.5166  -13.6672  -47.1742 H         1 UNK         0.0600 
    183 H183       -1.1903  -13.9836  -46.9339 H         1 UNK         0.0600 
    184 H184       -1.5719  -14.5845  -44.4555 H         1 UNK         0.3000 
    185 H185       -2.4293  -14.4477  -41.8229 H         1 UNK         0.0600 
    186 H186       -3.1867  -12.2941  -40.8733 H         1 UNK         0.0600 
    187 H187       -4.2713  -12.0311  -42.2353 H         1 UNK         0.0600 
    188 H188       -4.5668  -13.3532  -41.1072 H         1 UNK         0.0600 
    189 H189       -4.2128  -13.8527  -44.1500 H         1 UNK         0.3000 
    190 H190       -2.1652  -21.3054  -48.2773 H         1 UNK         0.3000 
    191 H191       -3.3862  -19.1772  -46.8965 H         1 UNK         0.0600 
    192 H192       -4.3333  -20.6399  -45.0082 H         1 UNK         0.0600 
    193 H193       -2.6405  -20.2468  -44.8140 H         1 UNK         0.0600 
    194 H194       -3.1113  -21.8460  -45.3931 H         1 UNK         0.0600 
    195 H195       -5.6339  -19.2783  -47.1855 H         1 UNK         0.3000 
    196 H196       -6.5499  -20.7380  -49.4470 H         1 UNK         0.0600 
    197 H197       -8.7169  -19.5996  -48.9244 H         1 UNK         0.0600 
    198 H198       -7.3675  -18.4762  -48.8790 H         1 UNK         0.0600 
    199 H199       -8.0718  -19.0671  -47.3752 H         1 UNK         0.0600 
    200 H200       -7.0421  -21.2157  -45.9522 H         1 UNK         0.3000 
    201 H201       -9.0284  -23.2655  -46.1436 H         1 UNK         0.0600 
    202 H202       -8.7295  -21.9368  -44.0899 H         1 UNK         0.0600 
    203 H203       -7.0826  -22.5395  -43.8862 H         1 UNK         0.0600 
    204 H204       -8.4540  -23.6290  -43.7226 H         1 UNK         0.0600 
    205 H205       -5.5208  -23.3264  -46.2954 H         1 UNK         0.3000 
    206 H206       -5.2753  -26.2458  -46.0958 H         1 UNK         0.0600 
    207 H207       -3.5054  -24.7327  -45.1931 H         1 UNK         0.0600 
    208 H208       -2.8644  -25.7316  -46.4866 H         1 UNK         0.0600 
    209 H209       -3.2506  -24.0438  -46.7955 H         1 UNK         0.0600 
    210 H210       -6.1361  -24.0196  -48.5172 H         1 UNK         0.3000 
    211 H211       -6.3597  -23.9323  -50.6901 H         1 UNK         0.0600 
    212 H212       -5.7615  -26.9310  -50.8667 H         1 UNK         0.0600 
    213 H213       -6.5578  -25.9412  -52.0783 H         1 UNK         0.0600 
    214 H214       -7.3490  -26.2354  -50.5387 H         1 UNK         0.0600 
    215 H215       -3.5545  -24.0878  -49.2744 H         1 UNK         0.3000 
    216 H216       -1.6625  -24.6013  -51.3979 H         1 UNK         0.0600 
    217 H217       -1.4047  -23.3348  -48.6226 H         1 UNK         0.0600 
    218 H218       -0.0378  -23.6710  -49.6895 H         1 UNK         0.0600 
    219 H219       -1.0237  -24.9881  -49.0786 H         1 UNK         0.0600 
    220 H220       -3.5301  -21.8187  -50.4156 H         1 UNK         0.3000 
    221 H221       -2.0366  -19.7250  -51.6706 H         1 UNK         0.0600 
    222 H222       -5.0238  -20.0731  -51.1027 H         1 UNK         0.0600 
    223 H223       -3.8467  -19.1818  -50.1321 H         1 UNK         0.0600 
    224 H224       -4.3188  -18.5888  -51.7119 H         1 UNK         0.0600 
    225 H225       -4.4435  -22.0332  -52.9770 H         1 UNK         0.3000 
    226 H226       -4.5820  -20.8588  -55.5915 H         1 UNK         0.0600 
    227 H227       -6.3693  -22.3289  -54.6717 H         1 UNK         0.0600 
    228 H228       -5.7440  -22.9737  -56.1814 H         1 UNK         0.0600 
    229 H229       -5.2592  -23.6993  -54.6555 H         1 UNK         0.0600 
    230 H230       -2.4777  -23.3029  -54.1127 H         1 UNK         0.3000 
    231 H231       -1.1579  -24.1026  -56.5606 H         1 UNK         0.0600 
    232 H232        0.4073  -25.2520  -55.0187 H         1 UNK         0.0600 
    233 H233       -1.2570  -25.5857  -54.5648 H         1 UNK         0.0600 
    234 H234       -0.3016  -24.4324  -53.6352 H         1 UNK         0.0600 
    235 H235       -0.3912  -21.8136  -53.9000 H         1 UNK         0.3000 
    236 H236        2.1579  -21.0343  -54.8884 H         1 UNK         0.0600 
    237 H237        0.2600  -19.6676  -52.9119 H         1 UNK         0.0600 
    238 H238        1.5471  -20.8113  -52.5260 H         1 UNK         0.0600 
    239 H239        1.9434  -19.2231  -53.1626 H         1 UNK         0.0600 
    240 H240       -1.0392  -19.3359  -55.0619 H         1 UNK         0.3000 
    241 H241        0.1638  -17.2284  -56.7285 H         1 UNK         0.0600 
    242 H242       -1.3973  -20.2092  -57.5329 H         1 UNK         0.3800 
    243 H243       -1.8884  -19.7150  -59.1292 H         1 UNK         0.3800 
    244 H244       -1.9242  -15.9971  -56.3787 H         1 UNK         0.0800 
    245 H245       -2.6595  -17.3839  -55.6188 H         1 UNK         0.0800 
    246 H246       -3.2273  -15.6293  -53.4382 H         1 UNK         0.0800 
    247 H247       -3.0457  -17.3592  -53.3328 H         1 UNK         0.0800 
@<TRIPOS>BOND
     1    1    2 1    
     2    1  127 1    
     3    1  128 1    
     4    1  129 1    
     5    2    3 2    
     6    2    4 am   BACKBONE|DICT|INTERRES
     7    4    5 1    
     8    4  130 1    
     9    5    6 1    
    10    5   65 1    
    11    5  131 1    
    12    6    7 1    
    13    6  132 1    
    14    6  133 1    
    15    7    8 1    
    16    8    9 1    
    17    8  134 1    
    18    8  135 1    
    19    9   10 ar   
    20    9   14 ar   
    21   10   11 ar   
    22   10  136 1    
    23   11   12 ar   
    24   11  126 1    
    25   12   13 ar   
    26   12  137 1    
    27   13   14 ar   
    28   13   15 1    
    29   14  138 1    
    30   15   16 1    
    31   15  139 1    
    32   15  140 1    
    33   16   17 1    
    34   17   18 1    
    35   17  141 1    
    36   17  142 1    
    37   18   19 1    
    38   18   67 1    
    39   18  143 1    
    40   19   20 am   BACKBONE|DICT|INTERRES
    41   19  144 1    
    42   20   21 2    
    43   20   22 1    
    44   22   23 1    
    45   22   24 1    
    46   22  145 1    
    47   23  146 1    
    48   23  147 1    
    49   23  148 1    
    50   24   25 am   BACKBONE|DICT|INTERRES
    51   24  149 1    
    52   25   26 2    
    53   25   27 1    
    54   27   28 1    
    55   27   29 1    
    56   27  150 1    
    57   28  151 1    
    58   28  152 1    
    59   28  153 1    
    60   29   30 am   BACKBONE|DICT|INTERRES
    61   29  154 1    
    62   30   31 2    
    63   30   32 1    
    64   32   33 1    
    65   32   34 1    
    66   32  155 1    
    67   33  156 1    
    68   33  157 1    
    69   33  158 1    
    70   34   35 am   BACKBONE|DICT|INTERRES
    71   34  159 1    
    72   35   36 2    
    73   35   37 1    
    74   37   38 1    
    75   37   39 1    
    76   37  160 1    
    77   38  161 1    
    78   38  162 1    
    79   38  163 1    
    80   39   40 am   BACKBONE|DICT|INTERRES
    81   39  164 1    
    82   40   41 2    
    83   40   42 1    
    84   42   43 1    
    85   42   44 1    
    86   42  165 1    
    87   43  166 1    
    88   43  167 1    
    89   43  168 1    
    90   44   45 am   BACKBONE|DICT|INTERRES
    91   44  169 1    
    92   45   46 2    
    93   45   47 1    
    94   47   48 1    
    95   47   49 1    
    96   47  170 1    
    97   48  171 1    
    98   48  172 1    
    99   48  173 1    
   100   49   50 am   BACKBONE|DICT|INTERRES
   101   49  174 1    
   102   50   51 2    
   103   50   52 1    
   104   52   53 1    
   105   52   54 1    
   106   52  175 1    
   107   53  176 1    
   108   53  177 1    
   109   53  178 1    
   110   54   55 am   BACKBONE|DICT|INTERRES
   111   54  179 1    
   112   55   56 2    
   113   55   57 1    
   114   57   58 1    
   115   57   59 1    
   116   57  180 1    
   117   58  181 1    
   118   58  182 1    
   119   58  183 1    
   120   59   60 am   BACKBONE|DICT|INTERRES
   121   59  184 1    
   122   60   61 2    
   123   60   62 1    
   124   62   63 1    
   125   62   64 1    
   126   62  185 1    
   127   63  186 1    
   128   63  187 1    
   129   63  188 1    
   130   64   65 am   BACKBONE|DICT|INTERRES
   131   64  189 1    
   132   65   66 2    
   133   67   68 2    
   134   67   69 am   BACKBONE|DICT|INTERRES
   135   69   70 1    
   136   69  190 1    
   137   70   71 1    
   138   70   72 1    
   139   70  191 1    
   140   71  192 1    
   141   71  193 1    
   142   71  194 1    
   143   72   73 2    
   144   72   74 am   BACKBONE|DICT|INTERRES
   145   74   75 1    
   146   74  195 1    
   147   75   76 1    
   148   75   77 1    
   149   75  196 1    
   150   76  197 1    
   151   76  198 1    
   152   76  199 1    
   153   77   78 2    
   154   77   79 am   BACKBONE|DICT|INTERRES
   155   79   80 1    
   156   79  200 1    
   157   80   81 1    
   158   80   82 1    
   159   80  201 1    
   160   81  202 1    
   161   81  203 1    
   162   81  204 1    
   163   82   83 2    
   164   82   84 am   BACKBONE|DICT|INTERRES
   165   84   85 1    
   166   84  205 1    
   167   85   86 1    
   168   85   87 1    
   169   85  206 1    
   170   86  207 1    
   171   86  208 1    
   172   86  209 1    
   173   87   88 2    
   174   87   89 am   BACKBONE|DICT|INTERRES
   175   89   90 1    
   176   89  210 1    
   177   90   91 1    
   178   90   92 1    
   179   90  211 1    
   180   91  212 1    
   181   91  213 1    
   182   91  214 1    
   183   92   93 2    
   184   92   94 am   BACKBONE|DICT|INTERRES
   185   94   95 1    
   186   94  215 1    
   187   95   96 1    
   188   95   97 1    
   189   95  216 1    
   190   96  217 1    
   191   96  218 1    
   192   96  219 1    
   193   97   98 2    
   194   97   99 am   BACKBONE|DICT|INTERRES
   195   99  100 1    
   196   99  220 1    
   197  100  101 1    
   198  100  102 1    
   199  100  221 1    
   200  101  222 1    
   201  101  223 1    
   202  101  224 1    
   203  102  103 2    
   204  102  104 am   BACKBONE|DICT|INTERRES
   205  104  105 1    
   206  104  225 1    
   207  105  106 1    
   208  105  107 1    
   209  105  226 1    
   210  106  227 1    
   211  106  228 1    
   212  106  229 1    
   213  107  108 2    
   214  107  109 am   BACKBONE|DICT|INTERRES
   215  109  110 1    
   216  109  230 1    
   217  110  111 1    
   218  110  112 1    
   219  110  231 1    
   220  111  232 1    
   221  111  233 1    
   222  111  234 1    
   223  112  113 2    
   224  112  114 am   BACKBONE|DICT|INTERRES
   225  114  115 1    
   226  114  235 1    
   227  115  116 1    
   228  115  117 1    
   229  115  236 1    
   230  116  237 1    
   231  116  238 1    
   232  116  239 1    
   233  117  118 2    
   234  117  119 am   BACKBONE|DICT|INTERRES
   235  119  120 1    
   236  119  240 1    
   237  120  121 1    
   238  120  124 1    
   239  120  241 1    
   240  121  122 am   BACKBONE|DICT|INTERRES
   241  121  123 2    
   242  122  242 1    
   243  122  243 1    
   244  124  125 1    
   245  124  244 1    
   246  124  245 1    
   247  125  126 1    
   248  126  246 1    
   249  126  247 1    
@<TRIPOS>SUBSTRUCTURE
     1 UNK         1 GROUP             0       ****    0 ROOT    
