@<TRIPOS>MOLECULE
3R540
247   249    1
SMALL
USER_CHARGES


@<TRIPOS>ATOM
      1 CA         -2.3343   -8.4449  -51.1410 C.3       0 UNK        -0.1800 
      2 C          -0.9465   -9.0601  -51.0315 C.2       0 UNK         0.5000 
      3 O           0.0463   -8.3878  -51.3108 O.2       0 UNK        -0.5000 
      4 N          -0.8744  -10.3343  -50.6266 N.am      1 UNK        -0.5000 
      5 CA          0.3713  -11.0885  -50.4342 C.3       1 UNK         0.1400 
      6 C6          0.1230  -12.6183  -50.4079 C.3       23 UNK        -0.0398 
      7 S7         -1.0807  -13.1502  -49.1361 S.3       23 UNK        -0.2404 
      8 C8         -2.3473  -13.9814  -50.1468 C.3       23 UNK        -0.0205 
      9 C9         -1.8608  -15.3164  -50.6934 C.ar      23 UNK        -0.0193 
     10 C10        -1.7321  -15.5199  -52.0717 C.ar      23 UNK        -0.1150 
     11 C11        -1.3232  -16.7612  -52.5715 C.ar      23 UNK        -0.0193 
     12 C12        -1.0395  -17.7999  -51.6775 C.ar      23 UNK        -0.1150 
     13 C13        -1.1394  -17.6004  -50.3000 C.ar      23 UNK        -0.0193 
     14 C14        -1.5608  -16.3606  -49.8145 C.ar      23 UNK        -0.1150 
     15 C15        -0.7653  -18.7068  -49.3302 C.3       23 UNK        -0.0205 
     16 S16        -2.2368  -19.5820  -48.7134 S.3       23 UNK        -0.2404 
     17 C17        -1.6553  -20.1093  -47.0711 C.3       23 UNK        -0.0398 
     18 CA         -1.1983  -21.5892  -47.0306 C.3       11 UNK         0.1400 
     19 N          -0.1167  -21.7960  -46.0614 N.am      11 UNK        -0.5000 
     20 C           0.5418  -22.9440  -45.8506 C.2       10 UNK         0.5000 
     21 O           0.3519  -23.9671  -46.5035 O.2       10 UNK        -0.5000 
     22 CA          1.5347  -22.9765  -44.6728 C.3       10 UNK         0.1400 
     23 CB          2.9046  -22.4166  -45.0828 C.3       10 UNK        -0.1800 
     24 N           1.0302  -22.2606  -43.4994 N.am      10 UNK        -0.5000 
     25 C          -0.0531  -22.6347  -42.8025 C.2       9 UNK         0.5000 
     26 O          -0.6872  -23.6652  -43.0325 O.2       9 UNK        -0.5000 
     27 CA         -0.5458  -21.6701  -41.7072 C.3       9 UNK         0.1400 
     28 CB          0.2506  -21.8585  -40.4078 C.3       9 UNK        -0.1800 
     29 N          -0.4891  -20.2680  -42.1273 N.am      9 UNK        -0.5000 
     30 C          -1.2110  -19.7513  -43.1327 C.2       8 UNK         0.5000 
     31 O          -2.0492  -20.3919  -43.7666 O.2       8 UNK        -0.5000 
     32 CA         -0.9066  -18.2977  -43.5411 C.3       8 UNK         0.1400 
     33 CB         -1.6392  -17.3026  -42.6302 C.3       8 UNK        -0.1800 
     34 N           0.5263  -18.0033  -43.5394 N.am      8 UNK        -0.5000 
     35 C           1.4289  -18.5845  -44.3406 C.2       7 UNK         0.5000 
     36 O           1.1369  -19.3931  -45.2178 O.2       7 UNK        -0.5000 
     37 CA          2.9091  -18.2577  -44.0833 C.3       7 UNK         0.1400 
     38 CB          3.3268  -16.9558  -44.7817 C.3       7 UNK        -0.1800 
     39 N           3.2061  -18.1739  -42.6542 N.am      7 UNK        -0.5000 
     40 C           3.2276  -19.2284  -41.8277 C.2       6 UNK         0.5000 
     41 O           3.0416  -20.3883  -42.1969 O.2       6 UNK        -0.5000 
     42 CA          3.4591  -18.9286  -40.3349 C.3       6 UNK         0.1400 
     43 CB          4.9601  -18.8061  -40.0339 C.3       6 UNK        -0.1800 
     44 N           2.7746  -17.7111  -39.8931 N.am      6 UNK        -0.5000 
     45 C           1.4430  -17.5883  -39.7982 C.2       5 UNK         0.5000 
     46 O           0.6558  -18.5023  -40.0427 O.2       5 UNK        -0.5000 
     47 CA          0.8986  -16.1964  -39.4161 C.3       5 UNK         0.1400 
     48 CB          0.8832  -16.0237  -37.8901 C.3       5 UNK        -0.1800 
     49 N           1.6329  -15.0801  -40.0259 N.am      5 UNK        -0.5000 
     50 C           1.7863  -14.9032  -41.3450 C.2       4 UNK         0.5000 
     51 O           1.3524  -15.6945  -42.1838 O.2       4 UNK        -0.5000 
     52 CA          2.6014  -13.6758  -41.7976 C.3       4 UNK         0.1400 
     53 CB          4.0835  -13.8486  -41.4252 C.3       4 UNK        -0.1800 
     54 N           2.5115  -13.4898  -43.2467 N.am      4 UNK        -0.5000 
     55 C           1.4507  -12.9941  -43.8947 C.2       3 UNK         0.5000 
     56 O           0.4753  -12.4839  -43.3375 O.2       3 UNK        -0.5000 
     57 CA          1.4741  -13.1342  -45.4292 C.3       3 UNK         0.1400 
     58 CB          0.5926  -14.3140  -45.8744 C.3       3 UNK        -0.1800 
     59 N           1.0249  -11.9239  -46.1155 N.am      3 UNK        -0.5000 
     60 C           1.6416  -10.7345  -46.0756 C.2       2 UNK         0.5000 
     61 O           2.6833  -10.5260  -45.4500 O.2       2 UNK        -0.5000 
     62 CA          0.9842   -9.6030  -46.8981 C.3       2 UNK         0.1400 
     63 CB          1.8988   -8.3733  -47.0799 C.3       2 UNK        -0.1800 
     64 N           0.4716  -10.0640  -48.1950 N.am      2 UNK        -0.5000 
     65 C           1.1713  -10.6304  -49.1932 C.2       1 UNK         0.5000 
     66 O           2.3901  -10.8085  -49.1677 O.2       1 UNK        -0.5000 
     67 C          -2.3947  -22.5243  -46.7645 C.2       11 UNK         0.5000 
     68 O          -2.8845  -23.1735  -47.6916 O.2       11 UNK        -0.5000 
     69 N          -2.8157  -22.5953  -45.4929 N.am      12 UNK        -0.5000 
     70 CA         -3.8843  -23.4643  -45.0012 C.3       12 UNK         0.1400 
     71 CB         -4.1848  -23.1358  -43.5316 C.3       12 UNK        -0.1800 
     72 C          -3.5763  -24.9596  -45.1850 C.2       12 UNK         0.5000 
     73 O          -4.4680  -25.7185  -45.5652 O.2       12 UNK        -0.5000 
     74 N          -2.3166  -25.3466  -44.9443 N.am      13 UNK        -0.5000 
     75 CA         -1.8109  -26.6964  -45.1889 C.3       13 UNK         0.1400 
     76 CB         -0.4424  -26.8599  -44.5100 C.3       13 UNK        -0.1800 
     77 C          -1.7248  -27.0341  -46.6904 C.2       13 UNK         0.5000 
     78 O          -2.0345  -28.1633  -47.0725 O.2       13 UNK        -0.5000 
     79 N          -1.3066  -26.0573  -47.5079 N.am      14 UNK        -0.5000 
     80 CA         -1.1516  -26.1835  -48.9554 C.3       14 UNK         0.1400 
     81 CB         -0.3701  -24.9810  -49.5102 C.3       14 UNK        -0.1800 
     82 C          -2.4888  -26.3517  -49.6943 C.2       14 UNK         0.5000 
     83 O          -2.6206  -27.2939  -50.4776 O.2       14 UNK        -0.5000 
     84 N          -3.4478  -25.4472  -49.4465 N.am      15 UNK        -0.5000 
     85 CA         -4.7439  -25.4532  -50.1330 C.3       15 UNK         0.1400 
     86 CB         -4.5836  -24.9567  -51.5838 C.3       15 UNK        -0.1800 
     87 C          -5.8443  -24.6350  -49.4389 C.2       15 UNK         0.5000 
     88 O          -7.0172  -24.8866  -49.7142 O.2       15 UNK        -0.5000 
     89 N          -5.4814  -23.6352  -48.6212 N.am      16 UNK        -0.5000 
     90 CA         -6.3456  -22.6646  -47.9244 C.3       16 UNK         0.1400 
     91 CB         -7.3426  -23.3693  -46.9831 C.3       16 UNK        -0.1800 
     92 C          -7.0704  -21.6488  -48.8347 C.2       16 UNK         0.5000 
     93 O          -7.3561  -20.5395  -48.3845 O.2       16 UNK        -0.5000 
     94 N          -7.3272  -22.0150  -50.0962 N.am      17 UNK        -0.5000 
     95 CA         -7.9586  -21.1851  -51.1264 C.3       17 UNK         0.1400 
     96 CB         -8.4538  -22.1062  -52.2528 C.3       17 UNK        -0.1800 
     97 C          -7.0416  -20.0809  -51.6956 C.2       17 UNK         0.5000 
     98 O          -7.5135  -19.2549  -52.4784 O.2       17 UNK        -0.5000 
     99 N          -5.7547  -20.0987  -51.3181 N.am      18 UNK        -0.5000 
    100 CA        -4.6677  -19.1886  -51.6940 C.3       18 UNK         0.1400 
    101 CB        -4.9757  -17.7272  -51.3168 C.3       18 UNK        -0.1800 
    102 C         -4.2363  -19.3306  -53.1607 C.2       18 UNK         0.5000 
    103 O         -3.0919  -19.7007  -53.4177 O.2       18 UNK        -0.5000 
    104 N         -5.1577  -19.1009  -54.1038 N.am      19 UNK        -0.5000 
    105 CA        -4.9249  -19.2082  -55.5480 C.3       19 UNK         0.1400 
    106 CB        -6.2106  -18.8330  -56.2989 C.3       19 UNK        -0.1800 
    107 C         -4.4278  -20.6015  -55.9787 C.2       19 UNK         0.5000 
    108 O         -3.5353  -20.7020  -56.8202 O.2       19 UNK        -0.5000 
    109 N         -4.9704  -21.6449  -55.3390 N.am      20 UNK        -0.5000 
    110 CA        -4.5656  -23.0380  -55.5205 C.3       20 UNK         0.1400 
    111 CB        -5.6892  -23.9452  -54.9998 C.3       20 UNK        -0.1800 
    112 C         -3.2192  -23.3873  -54.8510 C.2       20 UNK         0.5000 
    113 O         -2.6134  -24.3894  -55.2320 O.2       20 UNK        -0.5000 
    114 N         -2.7676  -22.5757  -53.8815 N.am      21 UNK        -0.5000 
    115 CA        -1.4520  -22.7118  -53.2532 C.3       21 UNK         0.1400 
    116 CB        -1.4667  -22.1213  -51.8315 C.3       21 UNK        -0.1800 
    117 C         -0.3559  -22.0703  -54.1244 C.2       21 UNK         0.5000 
    118 O          0.7205  -22.6549  -54.2556 O.2       21 UNK        -0.5000 
    119 N         -0.6510  -20.9094  -54.7305 N.am      22 UNK        -0.5000 
    120 CA         0.2095  -20.2806  -55.7500 C.3       22 UNK         0.1400 
    121 C          0.2107  -21.0477  -57.1022 C.2       22 UNK         0.5000 
    122 N         -0.9289  -21.5207  -57.5902 N.am      22 UNK        -0.7600 
    123 O          1.2608  -21.2185  -57.7156 O.2       22 UNK        -0.5000 
    124 C124       -0.1147  -18.7819  -55.9795 C.3       23 UNK        -0.0398 
    125 S125        0.3636  -17.7494  -54.5532 S.3       23 UNK        -0.2404 
    126 C126       -1.2233  -16.9914  -54.0745 C.3       23 UNK        -0.0205 
    127 H127       -2.4140   -7.5795  -50.4830 H         1 UNK         0.0600 
    128 H128       -3.1154   -9.1542  -50.8661 H         1 UNK         0.0600 
    129 H129       -2.5190   -8.1154  -52.1634 H         1 UNK         0.0600 
    130 H130       -1.7230  -10.8376  -50.4094 H         1 UNK         0.3000 
    131 H131        1.0089  -10.8854  -51.2976 H         1 UNK         0.0600 
    132 H132        1.0573  -13.1590  -50.2457 H         1 UNK         0.0800 
    133 H133       -0.2251  -12.9377  -51.3907 H         1 UNK         0.0800 
    134 H134       -3.2286  -14.1572  -49.5285 H         1 UNK         0.0800 
    135 H135       -2.6668  -13.3181  -50.9520 H         1 UNK         0.0800 
    136 H136       -1.9663  -14.7167  -52.7561 H         1 UNK         0.1150 
    137 H137       -0.7315  -18.7634  -52.0583 H         1 UNK         0.1150 
    138 H138       -1.6506  -16.2052  -48.7483 H         1 UNK         0.1150 
    139 H139       -0.0955  -19.4261  -49.8040 H         1 UNK         0.0800 
    140 H140       -0.2025  -18.2626  -48.5084 H         1 UNK         0.0800 
    141 H141       -2.4484  -19.9074  -46.3492 H         1 UNK         0.0800 
    142 H142       -0.8419  -19.4519  -46.7728 H         1 UNK         0.0800 
    143 H143       -0.7831  -21.8547  -48.0051 H         1 UNK         0.0600 
    144 H144        0.1681  -20.9811  -45.5248 H         1 UNK         0.3000 
    145 H145        1.6733  -24.0214  -44.3878 H         1 UNK         0.0600 
    146 H146        3.3213  -22.9835  -45.9161 H         1 UNK         0.0600 
    147 H147        2.8426  -21.3752  -45.3958 H         1 UNK         0.0600 
    148 H148        3.6168  -22.4759  -44.2596 H         1 UNK         0.0600 
    149 H149        1.5304  -21.4242  -43.2195 H         1 UNK         0.3000 
    150 H150       -1.5901  -21.9123  -41.5000 H         1 UNK         0.0600 
    151 H151        0.1969  -22.8921  -40.0641 H         1 UNK         0.0600 
    152 H152       -0.1441  -21.2293  -39.6098 H         1 UNK         0.0600 
    153 H153        1.3037  -21.6103  -40.5383 H         1 UNK         0.0600 
    154 H154        0.1353  -19.6593  -41.6081 H         1 UNK         0.3000 
    155 H155       -1.2728  -18.1546  -44.5595 H         1 UNK         0.0600 
    156 H156       -1.3179  -17.3936  -41.5929 H         1 UNK         0.0600 
    157 H157       -1.4605  -16.2745  -42.9462 H         1 UNK         0.0600 
    158 H158       -2.7165  -17.4704  -42.6565 H         1 UNK         0.0600 
    159 H159        0.8455  -17.2898  -42.8871 H         1 UNK         0.3000 
    160 H160        3.5038  -19.0691  -44.5083 H         1 UNK         0.0600 
    161 H161        2.8142  -16.0922  -44.3632 H         1 UNK         0.0600 
    162 H162        3.0956  -16.9918  -45.8471 H         1 UNK         0.0600 
    163 H163        4.3993  -16.7861  -44.6866 H         1 UNK         0.0600 
    164 H164        3.3038  -17.2493  -42.2631 H         1 UNK         0.3000 
    165 H165        3.0641  -19.7702  -39.7617 H         1 UNK         0.0600 
    166 H166        5.1382  -18.6697  -38.9670 H         1 UNK         0.0600 
    167 H167        5.4935  -19.7076  -40.3386 H         1 UNK         0.0600 
    168 H168        5.4110  -17.9639  -40.5603 H         1 UNK         0.0600 
    169 H169        3.3510  -16.9122  -39.6741 H         1 UNK         0.3000 
    170 H170       -0.1319  -16.1420  -39.7725 H         1 UNK         0.0600 
    171 H171        0.3271  -16.8310  -37.4114 H         1 UNK         0.0600 
    172 H172        1.8911  -16.0272  -37.4734 H         1 UNK         0.0600 
    173 H173        0.4040  -15.0874  -37.6036 H         1 UNK         0.0600 
    174 H174        2.0247  -14.3998  -39.3908 H         1 UNK         0.3000 
    175 H175        2.2056  -12.7903  -41.2961 H         1 UNK         0.0600 
    176 H176        4.5136  -14.7412  -41.8819 H         1 UNK         0.0600 
    177 H177        4.6726  -12.9906  -41.7500 H         1 UNK         0.0600 
    178 H178        4.2149  -13.9360  -40.3460 H         1 UNK         0.0600 
    179 H179        3.2595  -13.8964  -43.7877 H         1 UNK         0.3000 
    180 H180        2.4994  -13.3343  -45.7476 H         1 UNK         0.0600 
    181 H181       -0.4635  -14.1205  -45.6820 H         1 UNK         0.0600 
    182 H182        0.8533  -15.2296  -45.3430 H         1 UNK         0.0600 
    183 H183        0.7086  -14.5136  -46.9398 H         1 UNK         0.0600 
    184 H184        0.1740  -12.0042  -46.6525 H         1 UNK         0.3000 
    185 H185        0.1151   -9.2804  -46.3230 H         1 UNK         0.0600 
    186 H186        2.1742   -7.9451  -46.1155 H         1 UNK         0.0600 
    187 H187        2.8226   -8.6275  -47.6002 H         1 UNK         0.0600 
    188 H188        1.3978   -7.5910  -47.6500 H         1 UNK         0.0600 
    189 H189       -0.5257   -9.9730  -48.3279 H         1 UNK         0.3000 
    190 H190       -2.3809  -21.9845  -44.8063 H         1 UNK         0.3000 
    191 H191       -4.7799  -23.2420  -45.5771 H         1 UNK         0.0600 
    192 H192       -3.3261  -23.3287  -42.8892 H         1 UNK         0.0600 
    193 H193       -5.0143  -23.7385  -43.1597 H         1 UNK         0.0600 
    194 H194       -4.4633  -22.0887  -43.4109 H         1 UNK         0.0600 
    195 H195       -1.6583  -24.6673  -44.5779 H         1 UNK         0.3000 
    196 H196       -2.5021  -27.4048  -44.7276 H         1 UNK         0.0600 
    197 H197       -0.0607  -27.8731  -44.6413 H         1 UNK         0.0600 
    198 H198       -0.5095  -26.6729  -43.4380 H         1 UNK         0.0600 
    199 H199        0.2982  -26.1745  -44.9221 H         1 UNK         0.0600 
    200 H200       -0.9949  -25.1815  -47.0979 H         1 UNK         0.3000 
    201 H201       -0.5563  -27.0790  -49.1459 H         1 UNK         0.0600 
    202 H202        0.6310  -24.9315  -49.0822 H         1 UNK         0.0600 
    203 H203       -0.8712  -24.0373  -49.2960 H         1 UNK         0.0600 
    204 H204       -0.2564  -25.0529  -50.5927 H         1 UNK         0.0600 
    205 H205       -3.2673  -24.7141  -48.7670 H         1 UNK         0.3000 
    206 H206       -5.1063  -26.4833  -50.1591 H         1 UNK         0.0600 
    207 H207       -5.5331  -25.0253  -52.1143 H         1 UNK         0.0600 
    208 H208       -4.2578  -23.9169  -51.6192 H         1 UNK         0.0600 
    209 H209       -3.8645  -25.5515  -52.1465 H         1 UNK         0.0600 
    210 H210       -4.4894  -23.4807  -48.4591 H         1 UNK         0.3000 
    211 H211       -5.6703  -22.0705  -47.3080 H         1 UNK         0.0600 
    212 H212       -8.1269  -23.8877  -47.5353 H         1 UNK         0.0600 
    213 H213       -7.8326  -22.6477  -46.3284 H         1 UNK         0.0600 
    214 H214       -6.8457  -24.1019  -46.3476 H         1 UNK         0.0600 
    215 H215       -7.1327  -22.9792  -50.3412 H         1 UNK         0.3000 
    216 H216       -8.8246  -20.6882  -50.6846 H         1 UNK         0.0600 
    217 H217       -7.6303  -22.6429  -52.7231 H         1 UNK         0.0600 
    218 H218       -8.9650  -21.5388  -53.0317 H         1 UNK         0.0600 
    219 H219       -9.1614  -22.8445  -51.8750 H         1 UNK         0.0600 
    220 H220       -5.4865  -20.8406  -50.6884 H         1 UNK         0.3000 
    221 H221       -3.8090  -19.4971  -51.0992 H         1 UNK         0.0600 
    222 H222       -5.8321  -17.3275  -51.8593 H         1 UNK         0.0600 
    223 H223       -5.1790  -17.6337  -50.2500 H         1 UNK         0.0600 
    224 H224       -4.1253  -17.0842  -51.5401 H         1 UNK         0.0600 
    225 H225       -6.0975  -18.8712  -53.7949 H         1 UNK         0.3000 
    226 H226       -4.1493  -18.4866  -55.8122 H         1 UNK         0.0600 
    227 H227       -6.5172  -17.8125  -56.0685 H         1 UNK         0.0600 
    228 H228       -6.0647  -18.8922  -57.3783 H         1 UNK         0.0600 
    229 H229       -7.0363  -19.4972  -56.0407 H         1 UNK         0.0600 
    230 H230       -5.6909  -21.4640  -54.6565 H         1 UNK         0.3000 
    231 H231       -4.4494  -23.2267  -56.5900 H         1 UNK         0.0600 
    232 H232       -5.4146  -24.9985  -55.0721 H         1 UNK         0.0600 
    233 H233       -6.6040  -23.8080  -55.5767 H         1 UNK         0.0600 
    234 H234       -5.9185  -23.7331  -53.9572 H         1 UNK         0.0600 
    235 H235       -3.2732  -21.7240  -53.6745 H         1 UNK         0.3000 
    236 H236       -1.2190  -23.7745  -53.1551 H         1 UNK         0.0600 
    237 H237       -2.2368  -22.5849  -51.2153 H         1 UNK         0.0600 
    238 H238       -0.5111  -22.2922  -51.3347 H         1 UNK         0.0600 
    239 H239       -1.6388  -21.0464  -51.8293 H         1 UNK         0.0600 
    240 H240       -1.5382  -20.4623  -54.5300 H         1 UNK         0.3000 
    241 H241        1.2356  -20.3291  -55.3787 H         1 UNK         0.0600 
    242 H242       -1.8227  -21.3055  -57.1547 H         1 UNK         0.3800 
    243 H243       -0.9167  -22.0211  -58.4643 H         1 UNK         0.3800 
    244 H244        0.4377  -18.3972  -56.8390 H         1 UNK         0.0800 
    245 H245       -1.1707  -18.6519  -56.2208 H         1 UNK         0.0800 
    246 H246       -2.0552  -17.6199  -54.3839 H         1 UNK         0.0800 
    247 H247       -1.3335  -16.0525  -54.6188 H         1 UNK         0.0800 
@<TRIPOS>BOND
     1    1    2 1    
     2    1  127 1    
     3    1  128 1    
     4    1  129 1    
     5    2    3 2    
     6    2    4 am   BACKBONE|DICT|INTERRES
     7    4    5 1    
     8    4  130 1    
     9    5    6 1    
    10    5   65 1    
    11    5  131 1    
    12    6    7 1    
    13    6  132 1    
    14    6  133 1    
    15    7    8 1    
    16    8    9 1    
    17    8  134 1    
    18    8  135 1    
    19    9   10 ar   
    20    9   14 ar   
    21   10   11 ar   
    22   10  136 1    
    23   11   12 ar   
    24   11  126 1    
    25   12   13 ar   
    26   12  137 1    
    27   13   14 ar   
    28   13   15 1    
    29   14  138 1    
    30   15   16 1    
    31   15  139 1    
    32   15  140 1    
    33   16   17 1    
    34   17   18 1    
    35   17  141 1    
    36   17  142 1    
    37   18   19 1    
    38   18   67 1    
    39   18  143 1    
    40   19   20 am   BACKBONE|DICT|INTERRES
    41   19  144 1    
    42   20   21 2    
    43   20   22 1    
    44   22   23 1    
    45   22   24 1    
    46   22  145 1    
    47   23  146 1    
    48   23  147 1    
    49   23  148 1    
    50   24   25 am   BACKBONE|DICT|INTERRES
    51   24  149 1    
    52   25   26 2    
    53   25   27 1    
    54   27   28 1    
    55   27   29 1    
    56   27  150 1    
    57   28  151 1    
    58   28  152 1    
    59   28  153 1    
    60   29   30 am   BACKBONE|DICT|INTERRES
    61   29  154 1    
    62   30   31 2    
    63   30   32 1    
    64   32   33 1    
    65   32   34 1    
    66   32  155 1    
    67   33  156 1    
    68   33  157 1    
    69   33  158 1    
    70   34   35 am   BACKBONE|DICT|INTERRES
    71   34  159 1    
    72   35   36 2    
    73   35   37 1    
    74   37   38 1    
    75   37   39 1    
    76   37  160 1    
    77   38  161 1    
    78   38  162 1    
    79   38  163 1    
    80   39   40 am   BACKBONE|DICT|INTERRES
    81   39  164 1    
    82   40   41 2    
    83   40   42 1    
    84   42   43 1    
    85   42   44 1    
    86   42  165 1    
    87   43  166 1    
    88   43  167 1    
    89   43  168 1    
    90   44   45 am   BACKBONE|DICT|INTERRES
    91   44  169 1    
    92   45   46 2    
    93   45   47 1    
    94   47   48 1    
    95   47   49 1    
    96   47  170 1    
    97   48  171 1    
    98   48  172 1    
    99   48  173 1    
   100   49   50 am   BACKBONE|DICT|INTERRES
   101   49  174 1    
   102   50   51 2    
   103   50   52 1    
   104   52   53 1    
   105   52   54 1    
   106   52  175 1    
   107   53  176 1    
   108   53  177 1    
   109   53  178 1    
   110   54   55 am   BACKBONE|DICT|INTERRES
   111   54  179 1    
   112   55   56 2    
   113   55   57 1    
   114   57   58 1    
   115   57   59 1    
   116   57  180 1    
   117   58  181 1    
   118   58  182 1    
   119   58  183 1    
   120   59   60 am   BACKBONE|DICT|INTERRES
   121   59  184 1    
   122   60   61 2    
   123   60   62 1    
   124   62   63 1    
   125   62   64 1    
   126   62  185 1    
   127   63  186 1    
   128   63  187 1    
   129   63  188 1    
   130   64   65 am   BACKBONE|DICT|INTERRES
   131   64  189 1    
   132   65   66 2    
   133   67   68 2    
   134   67   69 am   BACKBONE|DICT|INTERRES
   135   69   70 1    
   136   69  190 1    
   137   70   71 1    
   138   70   72 1    
   139   70  191 1    
   140   71  192 1    
   141   71  193 1    
   142   71  194 1    
   143   72   73 2    
   144   72   74 am   BACKBONE|DICT|INTERRES
   145   74   75 1    
   146   74  195 1    
   147   75   76 1    
   148   75   77 1    
   149   75  196 1    
   150   76  197 1    
   151   76  198 1    
   152   76  199 1    
   153   77   78 2    
   154   77   79 am   BACKBONE|DICT|INTERRES
   155   79   80 1    
   156   79  200 1    
   157   80   81 1    
   158   80   82 1    
   159   80  201 1    
   160   81  202 1    
   161   81  203 1    
   162   81  204 1    
   163   82   83 2    
   164   82   84 am   BACKBONE|DICT|INTERRES
   165   84   85 1    
   166   84  205 1    
   167   85   86 1    
   168   85   87 1    
   169   85  206 1    
   170   86  207 1    
   171   86  208 1    
   172   86  209 1    
   173   87   88 2    
   174   87   89 am   BACKBONE|DICT|INTERRES
   175   89   90 1    
   176   89  210 1    
   177   90   91 1    
   178   90   92 1    
   179   90  211 1    
   180   91  212 1    
   181   91  213 1    
   182   91  214 1    
   183   92   93 2    
   184   92   94 am   BACKBONE|DICT|INTERRES
   185   94   95 1    
   186   94  215 1    
   187   95   96 1    
   188   95   97 1    
   189   95  216 1    
   190   96  217 1    
   191   96  218 1    
   192   96  219 1    
   193   97   98 2    
   194   97   99 am   BACKBONE|DICT|INTERRES
   195   99  100 1    
   196   99  220 1    
   197  100  101 1    
   198  100  102 1    
   199  100  221 1    
   200  101  222 1    
   201  101  223 1    
   202  101  224 1    
   203  102  103 2    
   204  102  104 am   BACKBONE|DICT|INTERRES
   205  104  105 1    
   206  104  225 1    
   207  105  106 1    
   208  105  107 1    
   209  105  226 1    
   210  106  227 1    
   211  106  228 1    
   212  106  229 1    
   213  107  108 2    
   214  107  109 am   BACKBONE|DICT|INTERRES
   215  109  110 1    
   216  109  230 1    
   217  110  111 1    
   218  110  112 1    
   219  110  231 1    
   220  111  232 1    
   221  111  233 1    
   222  111  234 1    
   223  112  113 2    
   224  112  114 am   BACKBONE|DICT|INTERRES
   225  114  115 1    
   226  114  235 1    
   227  115  116 1    
   228  115  117 1    
   229  115  236 1    
   230  116  237 1    
   231  116  238 1    
   232  116  239 1    
   233  117  118 2    
   234  117  119 am   BACKBONE|DICT|INTERRES
   235  119  120 1    
   236  119  240 1    
   237  120  121 1    
   238  120  124 1    
   239  120  241 1    
   240  121  122 am   BACKBONE|DICT|INTERRES
   241  121  123 2    
   242  122  242 1    
   243  122  243 1    
   244  124  125 1    
   245  124  244 1    
   246  124  245 1    
   247  125  126 1    
   248  126  246 1    
   249  126  247 1    
@<TRIPOS>SUBSTRUCTURE
     1 UNK         1 GROUP             0       ****    0 ROOT    
