@<TRIPOS>MOLECULE
3R540
247   249    1
SMALL
USER_CHARGES


@<TRIPOS>ATOM
      1 CA         -0.8104  -15.2216  -48.9459 C.3       0 UNK        -0.1800 
      2 C           0.5775  -14.6142  -49.0829 C.2       0 UNK         0.5000 
      3 O           0.7299  -13.3945  -49.0074 O.2       0 UNK        -0.5000 
      4 N           1.5965  -15.4612  -49.2653 N.am      1 UNK        -0.5000 
      5 CA          3.0047  -15.0868  -49.4491 C.3       1 UNK         0.1400 
      6 C6          3.7698  -16.1306  -50.3046 C.3       23 UNK        -0.0398 
      7 S7          3.1750  -16.1982  -52.0305 S.3       23 UNK        -0.2404 
      8 C8          2.6006  -17.9181  -52.1865 C.3       23 UNK        -0.0205 
      9 C9          1.1887  -18.0938  -51.6514 C.ar      23 UNK        -0.0193 
     10 C10         0.0925  -17.8305  -52.4760 C.ar      23 UNK        -0.1150 
     11 C11        -1.2091  -18.0072  -52.0022 C.ar      23 UNK        -0.0193 
     12 C12        -1.4073  -18.4326  -50.6871 C.ar      23 UNK        -0.1150 
     13 C13        -0.3238  -18.7143  -49.8500 C.ar      23 UNK        -0.0193 
     14 C14         0.9765  -18.5410  -50.3451 C.ar      23 UNK        -0.1150 
     15 C15        -0.6257  -19.2166  -48.4379 C.3       23 UNK        -0.0205 
     16 S16         0.7833  -19.2635  -47.2827 S.3       23 UNK        -0.2404 
     17 C17         1.6500  -20.7924  -47.7840 C.3       23 UNK        -0.0398 
     18 CA          1.3514  -22.0160  -46.8814 C.3       11 UNK         0.1400 
     19 N           1.5176  -21.7049  -45.4594 N.am      11 UNK        -0.5000 
     20 C           1.7636  -22.6033  -44.4995 C.2       10 UNK         0.5000 
     21 O           1.8692  -23.8123  -44.7078 O.2       10 UNK        -0.5000 
     22 CA          1.9094  -22.0623  -43.0644 C.3       10 UNK         0.1400 
     23 CB          3.3881  -21.7984  -42.7410 C.3       10 UNK        -0.1800 
     24 N           1.1377  -20.8457  -42.7846 N.am      10 UNK        -0.5000 
     25 C          -0.1999  -20.7636  -42.8007 C.2       9 UNK         0.5000 
     26 O          -0.9288  -21.6728  -43.1951 O.2       9 UNK        -0.5000 
     27 CA         -0.8198  -19.4613  -42.2556 C.3       9 UNK         0.1400 
     28 CB         -0.1353  -18.9986  -40.9566 C.3       9 UNK        -0.1800 
     29 N          -0.8081  -18.3753  -43.2388 N.am      9 UNK        -0.5000 
     30 C          -1.6053  -18.3328  -44.3185 C.2       8 UNK         0.5000 
     31 O          -2.4143  -19.2183  -44.5939 O.2       8 UNK        -0.5000 
     32 CA         -1.5170  -17.0920  -45.2269 C.3       8 UNK         0.1400 
     33 CB         -2.8307  -16.8129  -45.9828 C.3       8 UNK        -0.1800 
     34 N          -1.1434  -15.8984  -44.4761 N.am      8 UNK        -0.5000 
     35 C          -0.2348  -14.9988  -44.8633 C.2       7 UNK         0.5000 
     36 O           0.4551  -15.1273  -45.8743 O.2       7 UNK        -0.5000 
     37 CA         -0.0089  -13.7598  -43.9750 C.3       7 UNK         0.1400 
     38 CB         -0.4830  -12.4745  -44.6791 C.3       7 UNK        -0.1800 
     39 N          -0.5402  -13.8543  -42.6102 N.am      7 UNK        -0.5000 
     40 C          -1.8139  -13.8812  -42.1897 C.2       6 UNK         0.5000 
     41 O          -2.7838  -13.8428  -42.9457 O.2       6 UNK        -0.5000 
     42 CA         -2.0538  -14.0293  -40.6727 C.3       6 UNK         0.1400 
     43 CB         -2.6094  -15.4275  -40.3600 C.3       6 UNK        -0.1800 
     44 N          -0.8436  -13.8187  -39.8759 N.am      6 UNK        -0.5000 
     45 C          -0.3094  -12.6221  -39.5953 C.2       5 UNK         0.5000 
     46 O          -0.8312  -11.5507  -39.9053 O.2       5 UNK        -0.5000 
     47 CA          1.0518  -12.6242  -38.8704 C.3       5 UNK         0.1400 
     48 CB          0.8541  -12.4563  -37.3561 C.3       5 UNK        -0.1800 
     49 N           1.8533  -13.8291  -39.1172 N.am      5 UNK        -0.5000 
     50 C           2.3513  -14.1936  -40.3073 C.2       4 UNK         0.5000 
     51 O           2.1796  -13.5379  -41.3373 O.2       4 UNK        -0.5000 
     52 CA          3.1809  -15.4957  -40.3356 C.3       4 UNK         0.1400 
     53 CB          2.5201  -16.6327  -39.5249 C.3       4 UNK        -0.1800 
     54 N           3.5026  -15.9430  -41.6963 N.am      4 UNK        -0.5000 
     55 C           2.6554  -16.3836  -42.6358 C.2       3 UNK         0.5000 
     56 O           1.4374  -16.5050  -42.4808 O.2       3 UNK        -0.5000 
     57 CA          3.2864  -16.7366  -43.9929 C.3       3 UNK         0.1400 
     58 CB          2.6428  -17.9843  -44.6124 C.3       3 UNK        -0.1800 
     59 N           3.1400  -15.6202  -44.9192 N.am      3 UNK        -0.5000 
     60 C           3.9269  -14.5390  -44.9446 C.2       2 UNK         0.5000 
     61 O           4.9023  -14.3948  -44.2042 O.2       2 UNK        -0.5000 
     62 CA          3.5556  -13.4446  -45.9708 C.3       2 UNK         0.1400 
     63 CB          4.6956  -12.4314  -46.2024 C.3       2 UNK        -0.1800 
     64 N           3.0726  -13.9668  -47.2562 N.am      2 UNK        -0.5000 
     65 C           3.7112  -14.7890  -48.1023 C.2       1 UNK         0.5000 
     66 O           4.8126  -15.2870  -47.8621 O.2       1 UNK        -0.5000 
     67 C          -0.0161  -22.6448  -47.2226 C.2       11 UNK         0.5000 
     68 O          -0.1562  -23.1773  -48.3242 O.2       11 UNK        -0.5000 
     69 N          -0.9972  -22.5834  -46.3065 N.am      12 UNK        -0.5000 
     70 CA         -2.3835  -23.0183  -46.5177 C.3       12 UNK         0.1400 
     71 CB         -3.1946  -22.7925  -45.2345 C.3       12 UNK        -0.1800 
     72 C          -2.5441  -24.4763  -46.9857 C.2       12 UNK         0.5000 
     73 O          -3.4601  -24.7591  -47.7579 O.2       12 UNK        -0.5000 
     74 N          -1.6451  -25.3627  -46.5387 N.am      13 UNK        -0.5000 
     75 CA         -1.6138  -26.7751  -46.9213 C.3       13 UNK         0.1400 
     76 CB         -0.6361  -27.5212  -46.0008 C.3       13 UNK        -0.1800 
     77 C          -1.2415  -27.0003  -48.4003 C.2       13 UNK         0.5000 
     78 O          -1.7347  -27.9506  -49.0084 O.2       13 UNK        -0.5000 
     79 N          -0.3890  -26.1262  -48.9512 N.am      14 UNK        -0.5000 
     80 CA          0.0412  -26.1577  -50.3492 C.3       14 UNK         0.1400 
     81 CB          1.4807  -25.6276  -50.4438 C.3       14 UNK        -0.1800 
     82 C          -0.8971  -25.3285  -51.2411 C.2       14 UNK         0.5000 
     83 O          -1.2115  -25.7455  -52.3555 O.2       14 UNK        -0.5000 
     84 N          -1.3347  -24.1745  -50.7230 N.am      15 UNK        -0.5000 
     85 CA         -2.1686  -23.1906  -51.4119 C.3       15 UNK         0.1400 
     86 CB         -1.9522  -21.8381  -50.7235 C.3       15 UNK        -0.1800 
     87 C          -3.6699  -23.5400  -51.4437 C.2       15 UNK         0.5000 
     88 O          -4.4486  -22.7607  -51.9962 O.2       15 UNK        -0.5000 
     89 N          -4.0539  -24.6637  -50.8191 N.am      16 UNK        -0.5000 
     90 CA         -5.4167  -25.1897  -50.6808 C.3       16 UNK         0.1400 
     91 CB         -5.9650  -25.6454  -52.0488 C.3       16 UNK        -0.1800 
     92 C          -6.3451  -24.2045  -49.9419 C.2       16 UNK         0.5000 
     93 O          -7.4244  -23.8706  -50.4320 O.2       16 UNK        -0.5000 
     94 N          -5.8692  -23.7378  -48.7784 N.am      17 UNK        -0.5000 
     95 CA         -6.4713  -22.7156  -47.9151 C.3       17 UNK         0.1400 
     96 CB         -7.8157  -23.1988  -47.3318 C.3       17 UNK        -0.1800 
     97 C          -6.5591  -21.3335  -48.5977 C.2       17 UNK         0.5000 
     98 O          -7.5184  -20.5942  -48.3721 O.2       17 UNK        -0.5000 
     99 N          -5.5379  -21.0209  -49.4112 N.am      18 UNK        -0.5000 
    100 CA        -5.3820  -19.8164  -50.2310 C.3       18 UNK         0.1400 
    101 CB        -5.2311  -18.5565  -49.3532 C.3       18 UNK        -0.1800 
    102 C         -6.4964  -19.7055  -51.2889 C.2       18 UNK         0.5000 
    103 O         -7.3028  -18.7748  -51.2615 O.2       18 UNK        -0.5000 
    104 N         -6.5182  -20.6817  -52.2049 N.am      19 UNK        -0.5000 
    105 CA        -7.5232  -20.8505  -53.2594 C.3       19 UNK         0.1400 
    106 CB        -7.4334  -22.2965  -53.7763 C.3       19 UNK        -0.1800 
    107 C         -7.4261  -19.8479  -54.4321 C.2       19 UNK         0.5000 
    108 O         -8.1356  -20.0220  -55.4241 O.2       19 UNK        -0.5000 
    109 N         -6.5289  -18.8555  -54.3410 N.am      20 UNK        -0.5000 
    110 CA        -6.1420  -17.8511  -55.3443 C.3       20 UNK         0.1400 
    111 CB        -7.3429  -17.0332  -55.8562 C.3       20 UNK        -0.1800 
    112 C         -5.3188  -18.4509  -56.4990 C.2       20 UNK         0.5000 
    113 O         -4.2577  -17.9204  -56.8298 O.2       20 UNK        -0.5000 
    114 N         -5.7617  -19.5973  -57.0279 N.am      21 UNK        -0.5000 
    115 CA        -4.9917  -20.5030  -57.8795 C.3       21 UNK         0.1400 
    116 CB        -5.9707  -21.3370  -58.7245 C.3       21 UNK        -0.1800 
    117 C         -4.0616  -21.3727  -57.0052 C.2       21 UNK         0.5000 
    118 O         -4.1979  -22.5965  -56.9678 O.2       21 UNK        -0.5000 
    119 N         -3.1681  -20.7029  -56.2695 N.am      22 UNK        -0.5000 
    120 CA        -2.2971  -21.2800  -55.2337 C.3       22 UNK         0.1400 
    121 C         -1.0896  -22.1035  -55.7702 C.2       22 UNK         0.5000 
    122 N         -0.8018  -22.1034  -57.0661 N.am      22 UNK        -0.7600 
    123 O         -0.4019  -22.7598  -54.9939 O.2       22 UNK        -0.5000 
    124 C124       -1.8193  -20.1924  -54.2380 C.3       23 UNK        -0.0398 
    125 S125       -3.2003  -19.3172  -53.4225 S.3       23 UNK        -0.2404 
    126 C126       -2.4005  -17.7609  -52.9164 C.3       23 UNK        -0.0205 
    127 H127       -1.2558  -15.3773  -49.9284 H         1 UNK         0.0600 
    128 H128       -1.4600  -14.5615  -48.3712 H         1 UNK         0.0600 
    129 H129       -0.7655  -16.1785  -48.4270 H         1 UNK         0.0600 
    130 H130        1.4005  -16.4509  -49.3114 H         1 UNK         0.3000 
    131 H131        3.0338  -14.1455  -50.0023 H         1 UNK         0.0600 
    132 H132        4.8302  -15.8785  -50.3611 H         1 UNK         0.0800 
    133 H133        3.7201  -17.1169  -49.8416 H         1 UNK         0.0800 
    134 H134        2.6230  -18.1964  -53.2412 H         1 UNK         0.0800 
    135 H135        3.2942  -18.5948  -51.6853 H         1 UNK         0.0800 
    136 H136        0.2556  -17.4974  -53.4913 H         1 UNK         0.1150 
    137 H137       -2.4146  -18.5689  -50.3220 H         1 UNK         0.1150 
    138 H138        1.8359  -18.7550  -49.7287 H         1 UNK         0.1150 
    139 H139       -1.3873  -18.5718  -48.0008 H         1 UNK         0.0800 
    140 H140       -1.0723  -20.2078  -48.4961 H         1 UNK         0.0800 
    141 H141        2.7186  -20.5781  -47.7425 H         1 UNK         0.0800 
    142 H142        1.4436  -21.0164  -48.8324 H         1 UNK         0.0800 
    143 H143        2.0909  -22.7783  -47.1364 H         1 UNK         0.0600 
    144 H144        1.4245  -20.7322  -45.2053 H         1 UNK         0.3000 
    145 H145        1.5488  -22.8411  -42.3892 H         1 UNK         0.0600 
    146 H146        3.5184  -21.4961  -41.7017 H         1 UNK         0.0600 
    147 H147        3.9871  -22.6975  -42.8927 H         1 UNK         0.0600 
    148 H148        3.8070  -21.0162  -43.3749 H         1 UNK         0.0600 
    149 H149        1.6582  -20.0551  -42.4365 H         1 UNK         0.3000 
    150 H150       -1.8607  -19.6818  -42.0088 H         1 UNK         0.0600 
    151 H151       -0.1442  -19.7915  -40.2076 H         1 UNK         0.0600 
    152 H152       -0.6499  -18.1429  -40.5227 H         1 UNK         0.0600 
    153 H153        0.9036  -18.7131  -41.1171 H         1 UNK         0.0600 
    154 H154       -0.1472  -17.6207  -43.0770 H         1 UNK         0.3000 
    155 H155       -0.7471  -17.3136  -45.9637 H         1 UNK         0.0600 
    156 H156       -3.6490  -16.6024  -45.2934 H         1 UNK         0.0600 
    157 H157       -2.7280  -15.9563  -46.6485 H         1 UNK         0.0600 
    158 H158       -3.1283  -17.6636  -46.5963 H         1 UNK         0.0600 
    159 H159       -1.6735  -15.7080  -43.6371 H         1 UNK         0.3000 
    160 H160        1.0709  -13.6805  -43.8497 H         1 UNK         0.0600 
    161 H161       -1.5551  -12.4891  -44.8757 H         1 UNK         0.0600 
    162 H162        0.0192  -12.3495  -45.6395 H         1 UNK         0.0600 
    163 H163       -0.2615  -11.5919  -44.0792 H         1 UNK         0.0600 
    164 H164        0.1839  -13.9151  -41.9036 H         1 UNK         0.3000 
    165 H165       -2.8019  -13.2888  -40.3818 H         1 UNK         0.0600 
    166 H166       -2.8030  -15.5483  -39.2940 H         1 UNK         0.0600 
    167 H167       -3.5519  -15.6002  -40.8813 H         1 UNK         0.0600 
    168 H168       -1.9173  -16.2103  -40.6689 H         1 UNK         0.0600 
    169 H169       -0.3491  -14.6452  -39.5742 H         1 UNK         0.3000 
    170 H170        1.6176  -11.7657  -39.2384 H         1 UNK         0.0600 
    171 H171        0.3141  -13.3001  -36.9246 H         1 UNK         0.0600 
    172 H172        1.8103  -12.3688  -36.8401 H         1 UNK         0.0600 
    173 H173        0.2835  -11.5535  -37.1341 H         1 UNK         0.0600 
    174 H174        2.0428  -14.4103  -38.3134 H         1 UNK         0.3000 
    175 H175        4.1375  -15.2622  -39.8663 H         1 UNK         0.0600 
    176 H176        3.0381  -17.5801  -39.6747 H         1 UNK         0.0600 
    177 H177        1.4761  -16.7739  -39.8044 H         1 UNK         0.0600 
    178 H178        2.5450  -16.4237  -38.4553 H         1 UNK         0.0600 
    179 H179        4.4663  -15.8076  -41.9702 H         1 UNK         0.3000 
    180 H180        4.3475  -16.9508  -43.8478 H         1 UNK         0.0600 
    181 H181        3.1269  -18.2475  -45.5530 H         1 UNK         0.0600 
    182 H182        1.5825  -17.8321  -44.8125 H         1 UNK         0.0600 
    183 H183        2.7384  -18.8409  -43.9473 H         1 UNK         0.0600 
    184 H184        2.3170  -15.6275  -45.5148 H         1 UNK         0.3000 
    185 H185        2.7187  -12.8977  -45.5356 H         1 UNK         0.0600 
    186 H186        5.5894  -12.9134  -46.5999 H         1 UNK         0.0600 
    187 H187        4.3946  -11.6527  -46.9032 H         1 UNK         0.0600 
    188 H188        4.9763  -11.9366  -45.2719 H         1 UNK         0.0600 
    189 H189        2.1536  -13.6471  -47.5452 H         1 UNK         0.3000 
    190 H190       -0.8000  -22.1520  -45.4114 H         1 UNK         0.3000 
    191 H191       -2.8041  -22.3823  -47.2986 H         1 UNK         0.0600 
    192 H192       -3.2186  -21.7376  -44.9635 H         1 UNK         0.0600 
    193 H193       -4.2278  -23.1197  -45.3529 H         1 UNK         0.0600 
    194 H194       -2.7737  -23.3445  -44.3934 H         1 UNK         0.0600 
    195 H195       -0.9218  -25.0403  -45.9119 H         1 UNK         0.3000 
    196 H196       -2.6122  -27.1895  -46.7661 H         1 UNK         0.0600 
    197 H197       -0.6019  -28.5836  -46.2457 H         1 UNK         0.0600 
    198 H198       -0.9374  -27.4393  -44.9563 H         1 UNK         0.0600 
    199 H199        0.3784  -27.1303  -46.0896 H         1 UNK         0.0600 
    200 H200       -0.0802  -25.3348  -48.4012 H         1 UNK         0.3000 
    201 H201        0.0363  -27.1867  -50.7154 H         1 UNK         0.0600 
    202 H202        2.1638  -26.2379  -49.8530 H         1 UNK         0.0600 
    203 H203        1.5584  -24.5991  -50.0887 H         1 UNK         0.0600 
    204 H204        1.8362  -25.6467  -51.4748 H         1 UNK         0.0600 
    205 H205       -0.9875  -23.8960  -49.8083 H         1 UNK         0.3000 
    206 H206       -1.8310  -23.1081  -52.4468 H         1 UNK         0.0600 
    207 H207       -0.8966  -21.5653  -50.7127 H         1 UNK         0.0600 
    208 H208       -2.4814  -21.0457  -51.2464 H         1 UNK         0.0600 
    209 H209       -2.3099  -21.8512  -49.6943 H         1 UNK         0.0600 
    210 H210       -3.3347  -25.1901  -50.3433 H         1 UNK         0.3000 
    211 H211       -5.3441  -26.0737  -50.0456 H         1 UNK         0.0600 
    212 H212       -6.0497  -24.8166  -52.7510 H         1 UNK         0.0600 
    213 H213       -6.9550  -26.0910  -51.9457 H         1 UNK         0.0600 
    214 H214       -5.3165  -26.3966  -52.4992 H         1 UNK         0.0600 
    215 H215       -4.9753  -24.1094  -48.4580 H         1 UNK         0.3000 
    216 H216       -5.7846  -22.5874  -47.0786 H         1 UNK         0.0600 
    217 H217       -8.1835  -22.5063  -46.5739 H         1 UNK         0.0600 
    218 H218       -7.7107  -24.1734  -46.8552 H         1 UNK         0.0600 
    219 H219       -8.5863  -23.2808  -48.0987 H         1 UNK         0.0600 
    220 H220       -4.8463  -21.7388  -49.5656 H         1 UNK         0.3000 
    221 H221       -4.4490  -19.9373  -50.7789 H         1 UNK         0.0600 
    222 H222       -6.1370  -18.3392  -48.7871 H         1 UNK         0.0600 
    223 H223       -4.4115  -18.6676  -48.6434 H         1 UNK         0.0600 
    224 H224       -5.0132  -17.6819  -49.9671 H         1 UNK         0.0600 
    225 H225       -5.8092  -21.4103  -52.1524 H         1 UNK         0.3000 
    226 H226       -8.5090  -20.7135  -52.8108 H         1 UNK         0.0600 
    227 H227       -7.6048  -23.0089  -52.9707 H         1 UNK         0.0600 
    228 H228       -8.1840  -22.4976  -54.5416 H         1 UNK         0.0600 
    229 H229       -6.4544  -22.5070  -54.2095 H         1 UNK         0.0600 
    230 H230       -5.9749  -18.8378  -53.4969 H         1 UNK         0.3000 
    231 H231       -5.4818  -17.1596  -54.8182 H         1 UNK         0.0600 
    232 H232       -8.0253  -17.6330  -56.4584 H         1 UNK         0.0600 
    233 H233       -7.0057  -16.2055  -56.4811 H         1 UNK         0.0600 
    234 H234       -7.9101  -16.6064  -55.0290 H         1 UNK         0.0600 
    235 H235       -6.6390  -19.9566  -56.6636 H         1 UNK         0.3000 
    236 H236       -4.3659  -19.9222  -58.5601 H         1 UNK         0.0600 
    237 H237       -6.5904  -20.6974  -59.3532 H         1 UNK         0.0600 
    238 H238       -5.4344  -22.0197  -59.3847 H         1 UNK         0.0600 
    239 H239       -6.6349  -21.9351  -58.0990 H         1 UNK         0.0600 
    240 H240       -3.1524  -19.6934  -56.3505 H         1 UNK         0.3000 
    241 H241       -2.9038  -21.9897  -54.6671 H         1 UNK         0.0600 
    242 H242       -1.3614  -21.5740  -57.7150 H         1 UNK         0.3800 
    243 H243       -0.0199  -22.6440  -57.4013 H         1 UNK         0.3800 
    244 H244       -1.1981  -20.6310  -53.4550 H         1 UNK         0.0800 
    245 H245       -1.1922  -19.4638  -54.7544 H         1 UNK         0.0800 
    246 H246       -2.1002  -17.2058  -53.8064 H         1 UNK         0.0800 
    247 H247       -3.1311  -17.1382  -52.3984 H         1 UNK         0.0800 
@<TRIPOS>BOND
     1    1    2 1    
     2    1  127 1    
     3    1  128 1    
     4    1  129 1    
     5    2    3 2    
     6    2    4 am   BACKBONE|DICT|INTERRES
     7    4    5 1    
     8    4  130 1    
     9    5    6 1    
    10    5   65 1    
    11    5  131 1    
    12    6    7 1    
    13    6  132 1    
    14    6  133 1    
    15    7    8 1    
    16    8    9 1    
    17    8  134 1    
    18    8  135 1    
    19    9   10 ar   
    20    9   14 ar   
    21   10   11 ar   
    22   10  136 1    
    23   11   12 ar   
    24   11  126 1    
    25   12   13 ar   
    26   12  137 1    
    27   13   14 ar   
    28   13   15 1    
    29   14  138 1    
    30   15   16 1    
    31   15  139 1    
    32   15  140 1    
    33   16   17 1    
    34   17   18 1    
    35   17  141 1    
    36   17  142 1    
    37   18   19 1    
    38   18   67 1    
    39   18  143 1    
    40   19   20 am   BACKBONE|DICT|INTERRES
    41   19  144 1    
    42   20   21 2    
    43   20   22 1    
    44   22   23 1    
    45   22   24 1    
    46   22  145 1    
    47   23  146 1    
    48   23  147 1    
    49   23  148 1    
    50   24   25 am   BACKBONE|DICT|INTERRES
    51   24  149 1    
    52   25   26 2    
    53   25   27 1    
    54   27   28 1    
    55   27   29 1    
    56   27  150 1    
    57   28  151 1    
    58   28  152 1    
    59   28  153 1    
    60   29   30 am   BACKBONE|DICT|INTERRES
    61   29  154 1    
    62   30   31 2    
    63   30   32 1    
    64   32   33 1    
    65   32   34 1    
    66   32  155 1    
    67   33  156 1    
    68   33  157 1    
    69   33  158 1    
    70   34   35 am   BACKBONE|DICT|INTERRES
    71   34  159 1    
    72   35   36 2    
    73   35   37 1    
    74   37   38 1    
    75   37   39 1    
    76   37  160 1    
    77   38  161 1    
    78   38  162 1    
    79   38  163 1    
    80   39   40 am   BACKBONE|DICT|INTERRES
    81   39  164 1    
    82   40   41 2    
    83   40   42 1    
    84   42   43 1    
    85   42   44 1    
    86   42  165 1    
    87   43  166 1    
    88   43  167 1    
    89   43  168 1    
    90   44   45 am   BACKBONE|DICT|INTERRES
    91   44  169 1    
    92   45   46 2    
    93   45   47 1    
    94   47   48 1    
    95   47   49 1    
    96   47  170 1    
    97   48  171 1    
    98   48  172 1    
    99   48  173 1    
   100   49   50 am   BACKBONE|DICT|INTERRES
   101   49  174 1    
   102   50   51 2    
   103   50   52 1    
   104   52   53 1    
   105   52   54 1    
   106   52  175 1    
   107   53  176 1    
   108   53  177 1    
   109   53  178 1    
   110   54   55 am   BACKBONE|DICT|INTERRES
   111   54  179 1    
   112   55   56 2    
   113   55   57 1    
   114   57   58 1    
   115   57   59 1    
   116   57  180 1    
   117   58  181 1    
   118   58  182 1    
   119   58  183 1    
   120   59   60 am   BACKBONE|DICT|INTERRES
   121   59  184 1    
   122   60   61 2    
   123   60   62 1    
   124   62   63 1    
   125   62   64 1    
   126   62  185 1    
   127   63  186 1    
   128   63  187 1    
   129   63  188 1    
   130   64   65 am   BACKBONE|DICT|INTERRES
   131   64  189 1    
   132   65   66 2    
   133   67   68 2    
   134   67   69 am   BACKBONE|DICT|INTERRES
   135   69   70 1    
   136   69  190 1    
   137   70   71 1    
   138   70   72 1    
   139   70  191 1    
   140   71  192 1    
   141   71  193 1    
   142   71  194 1    
   143   72   73 2    
   144   72   74 am   BACKBONE|DICT|INTERRES
   145   74   75 1    
   146   74  195 1    
   147   75   76 1    
   148   75   77 1    
   149   75  196 1    
   150   76  197 1    
   151   76  198 1    
   152   76  199 1    
   153   77   78 2    
   154   77   79 am   BACKBONE|DICT|INTERRES
   155   79   80 1    
   156   79  200 1    
   157   80   81 1    
   158   80   82 1    
   159   80  201 1    
   160   81  202 1    
   161   81  203 1    
   162   81  204 1    
   163   82   83 2    
   164   82   84 am   BACKBONE|DICT|INTERRES
   165   84   85 1    
   166   84  205 1    
   167   85   86 1    
   168   85   87 1    
   169   85  206 1    
   170   86  207 1    
   171   86  208 1    
   172   86  209 1    
   173   87   88 2    
   174   87   89 am   BACKBONE|DICT|INTERRES
   175   89   90 1    
   176   89  210 1    
   177   90   91 1    
   178   90   92 1    
   179   90  211 1    
   180   91  212 1    
   181   91  213 1    
   182   91  214 1    
   183   92   93 2    
   184   92   94 am   BACKBONE|DICT|INTERRES
   185   94   95 1    
   186   94  215 1    
   187   95   96 1    
   188   95   97 1    
   189   95  216 1    
   190   96  217 1    
   191   96  218 1    
   192   96  219 1    
   193   97   98 2    
   194   97   99 am   BACKBONE|DICT|INTERRES
   195   99  100 1    
   196   99  220 1    
   197  100  101 1    
   198  100  102 1    
   199  100  221 1    
   200  101  222 1    
   201  101  223 1    
   202  101  224 1    
   203  102  103 2    
   204  102  104 am   BACKBONE|DICT|INTERRES
   205  104  105 1    
   206  104  225 1    
   207  105  106 1    
   208  105  107 1    
   209  105  226 1    
   210  106  227 1    
   211  106  228 1    
   212  106  229 1    
   213  107  108 2    
   214  107  109 am   BACKBONE|DICT|INTERRES
   215  109  110 1    
   216  109  230 1    
   217  110  111 1    
   218  110  112 1    
   219  110  231 1    
   220  111  232 1    
   221  111  233 1    
   222  111  234 1    
   223  112  113 2    
   224  112  114 am   BACKBONE|DICT|INTERRES
   225  114  115 1    
   226  114  235 1    
   227  115  116 1    
   228  115  117 1    
   229  115  236 1    
   230  116  237 1    
   231  116  238 1    
   232  116  239 1    
   233  117  118 2    
   234  117  119 am   BACKBONE|DICT|INTERRES
   235  119  120 1    
   236  119  240 1    
   237  120  121 1    
   238  120  124 1    
   239  120  241 1    
   240  121  122 am   BACKBONE|DICT|INTERRES
   241  121  123 2    
   242  122  242 1    
   243  122  243 1    
   244  124  125 1    
   245  124  244 1    
   246  124  245 1    
   247  125  126 1    
   248  126  246 1    
   249  126  247 1    
@<TRIPOS>SUBSTRUCTURE
     1 UNK         1 GROUP             0       ****    0 ROOT    
