@<TRIPOS>MOLECULE
3R540
247   249    1
SMALL
USER_CHARGES


@<TRIPOS>ATOM
      1 CA         -1.3599  -10.4414  -45.3214 C.3       0 UNK        -0.1800 
      2 C          -0.1190  -10.4477  -46.2019 C.2       0 UNK         0.5000 
      3 O           0.9622  -10.0822  -45.7401 O.2       0 UNK        -0.5000 
      4 N          -0.2623  -10.8850  -47.4607 N.am      1 UNK        -0.5000 
      5 CA          0.8025  -10.9558  -48.4748 C.3       1 UNK         0.1400 
      6 C6          0.2314  -11.2614  -49.8830 C.3       23 UNK        -0.0398 
      7 S7         -0.6319  -12.8699  -49.9971 S.3       23 UNK        -0.2404 
      8 C8          0.5277  -13.8088  -51.0395 C.3       23 UNK        -0.0205 
      9 C9          0.2401  -15.3000  -50.9778 C.ar      23 UNK        -0.0193 
     10 C10        -0.8517  -15.8380  -51.6653 C.ar      23 UNK        -0.1150 
     11 C11        -1.1385  -17.2053  -51.5988 C.ar      23 UNK        -0.0193 
     12 C12        -0.3109  -18.0345  -50.8307 C.ar      23 UNK        -0.1150 
     13 C13         0.7958  -17.5120  -50.1552 C.ar      23 UNK        -0.0193 
     14 C14         1.0651  -16.1436  -50.2300 C.ar      23 UNK        -0.1150 
     15 C15         1.7015  -18.4276  -49.3455 C.3       23 UNK        -0.0205 
     16 S16         1.5122  -18.1849  -47.5516 S.3       23 UNK        -0.2404 
     17 C17        -0.2226  -18.6789  -47.2849 C.3       23 UNK        -0.0398 
     18 CA         -0.3826  -20.1963  -47.0423 C.3       11 UNK         0.1400 
     19 N           0.2704  -20.6473  -45.8053 N.am      11 UNK        -0.5000 
     20 C           0.3594  -21.9215  -45.3945 C.2       10 UNK         0.5000 
     21 O          -0.0974  -22.8734  -46.0268 O.2       10 UNK        -0.5000 
     22 CA          1.0188  -22.1706  -44.0269 C.3       10 UNK         0.1400 
     23 CB          2.5517  -22.1300  -44.1274 C.3       10 UNK        -0.1800 
     24 N           0.5542  -21.2027  -43.0335 N.am      10 UNK        -0.5000 
     25 C          -0.6231  -21.2899  -42.3978 C.2       9 UNK         0.5000 
     26 O          -1.3859  -22.2496  -42.5104 O.2       9 UNK        -0.5000 
     27 CA         -1.0377  -20.1053  -41.5011 C.3       9 UNK         0.1400 
     28 CB         -0.5873  -20.3421  -40.0520 C.3       9 UNK        -0.1800 
     29 N          -0.5256  -18.8133  -41.9597 N.am      9 UNK        -0.5000 
     30 C          -0.8507  -18.2288  -43.1211 C.2       8 UNK         0.5000 
     31 O          -1.6635  -18.6964  -43.9180 O.2       8 UNK        -0.5000 
     32 CA         -0.0897  -16.9395  -43.4834 C.3       8 UNK         0.1400 
     33 CB         -0.7557  -15.7145  -42.8405 C.3       8 UNK        -0.1800 
     34 N           1.3282  -16.9847  -43.1161 N.am      8 UNK        -0.5000 
     35 C           2.2049  -17.8974  -43.5615 C.2       7 UNK         0.5000 
     36 O           1.9052  -18.8067  -44.3314 O.2       7 UNK        -0.5000 
     37 CA          3.6344  -17.8300  -43.0021 C.3       7 UNK         0.1400 
     38 CB          4.4514  -16.7123  -43.6658 C.3       7 UNK        -0.1800 
     39 N           3.6223  -17.6465  -41.5536 N.am      7 UNK        -0.5000 
     40 C           3.2795  -18.6027  -40.6788 C.2       6 UNK         0.5000 
     41 O           3.0180  -19.7626  -40.9980 O.2       6 UNK        -0.5000 
     42 CA          3.1806  -18.1785  -39.2021 C.3       6 UNK         0.1400 
     43 CB          4.5444  -18.3118  -38.5083 C.3       6 UNK        -0.1800 
     44 N           2.6892  -16.8081  -39.0430 N.am      6 UNK        -0.5000 
     45 C           1.4462  -16.4095  -39.3487 C.2       5 UNK         0.5000 
     46 O           0.5702  -17.1641  -39.7703 O.2       5 UNK        -0.5000 
     47 CA          1.1526  -14.9053  -39.2033 C.3       5 UNK         0.1400 
     48 CB          0.7697  -14.5657  -37.7552 C.3       5 UNK        -0.1800 
     49 N           2.2763  -14.0620  -39.6229 N.am      5 UNK        -0.5000 
     50 C           2.7275  -13.9789  -40.8807 C.2       4 UNK         0.5000 
     51 O           2.2561  -14.6205  -41.8226 O.2       4 UNK        -0.5000 
     52 CA          3.9289  -13.0612  -41.1245 C.3       4 UNK         0.1400 
     53 CB          5.2481  -13.8333  -40.9387 C.3       4 UNK        -0.1800 
     54 N           3.8344  -12.5298  -42.4800 N.am      4 UNK        -0.5000 
     55 C           4.4598  -11.4385  -42.9337 C.2       3 UNK         0.5000 
     56 O           5.2345  -10.7744  -42.2424 O.2       3 UNK        -0.5000 
     57 CA          4.1487  -10.9696  -44.3723 C.3       3 UNK         0.1400 
     58 CB          5.4219  -10.5501  -45.1366 C.3       3 UNK        -0.1800 
     59 N           3.3335  -11.8876  -45.1787 N.am      3 UNK        -0.5000 
     60 C           3.6738  -13.0929  -45.6652 C.2       2 UNK         0.5000 
     61 O           4.7341  -13.6618  -45.4083 O.2       2 UNK        -0.5000 
     62 CA          2.6607  -13.7826  -46.6060 C.3       2 UNK         0.1400 
     63 CB          1.8878  -14.8773  -45.8590 C.3       2 UNK        -0.1800 
     64 N           1.6899  -12.8586  -47.1904 N.am      2 UNK        -0.5000 
     65 C           1.9586  -11.9158  -48.1047 C.2       1 UNK         0.5000 
     66 O           3.0616  -11.7719  -48.6333 O.2       1 UNK        -0.5000 
     67 C          -1.8737  -20.5822  -47.1081 C.2       11 UNK         0.5000 
     68 O          -2.3660  -20.8978  -48.1913 O.2       11 UNK        -0.5000 
     69 N          -2.5521  -20.6102  -45.9525 N.am      12 UNK        -0.5000 
     70 CA         -3.9429  -21.0393  -45.7828 C.3       12 UNK         0.1400 
     71 CB         -4.3399  -20.8695  -44.3087 C.3       12 UNK        -0.1800 
     72 C          -4.2402  -22.4783  -46.2586 C.2       12 UNK         0.5000 
     73 O          -5.3973  -22.7837  -46.5457 O.2       12 UNK        -0.5000 
     74 N          -3.2078  -23.3295  -46.3555 N.am      13 UNK        -0.5000 
     75 CA         -3.3042  -24.6811  -46.9079 C.3       13 UNK         0.1400 
     76 CB         -2.1344  -25.5253  -46.3787 C.3       13 UNK        -0.1800 
     77 C          -3.3357  -24.7089  -48.4505 C.2       13 UNK         0.5000 
     78 O          -3.6896  -25.7459  -49.0119 O.2       13 UNK        -0.5000 
     79 N          -2.9631  -23.6005  -49.1076 N.am      14 UNK        -0.5000 
     80 CA         -2.9600  -23.4532  -50.5639 C.3       14 UNK         0.1400 
     81 CB         -1.5637  -23.0126  -51.0290 C.3       14 UNK        -0.1800 
     82 C          -4.0233  -22.4555  -51.0470 C.2       14 UNK         0.5000 
     83 O          -4.6339  -22.6902  -52.0928 O.2       14 UNK        -0.5000 
     84 N          -4.2246  -21.3737  -50.2808 N.am      15 UNK        -0.5000 
     85 CA         -5.1712  -20.2905  -50.5479 C.3       15 UNK         0.1400 
     86 CB         -5.0096  -19.2142  -49.4642 C.3       15 UNK        -0.1800 
     87 C          -6.6347  -20.7606  -50.6358 C.2       15 UNK         0.5000 
     88 O          -6.9894  -21.7999  -50.0773 O.2       15 UNK        -0.5000 
     89 N          -7.4525  -19.9839  -51.3617 N.am      16 UNK        -0.5000 
     90 CA         -8.8528  -20.2714  -51.7088 C.3       16 UNK         0.1400 
     91 CB         -9.7504  -20.2617  -50.4532 C.3       16 UNK        -0.1800 
     92 C          -9.0056  -21.5580  -52.5527 C.2       16 UNK         0.5000 
     93 O         -10.0220  -22.2474  -52.4565 O.2       16 UNK        -0.5000 
     94 N          -7.9728  -21.8498  -53.3594 N.am      17 UNK        -0.5000 
     95 CA         -7.8098  -23.0192  -54.2273 C.3       17 UNK         0.1400 
     96 CB         -8.8705  -23.0300  -55.3478 C.3       17 UNK        -0.1800 
     97 C          -7.7306  -24.3602  -53.4660 C.2       17 UNK         0.5000 
     98 O          -8.0184  -25.4068  -54.0491 O.2       17 UNK        -0.5000 
     99 N          -7.2964  -24.3291  -52.1970 N.am      18 UNK        -0.5000 
    100 CA        -7.1282  -25.5089  -51.3420 C.3       18 UNK         0.1400 
    101 CB        -6.8584  -25.0582  -49.9003 C.3       18 UNK        -0.1800 
    102 C         -6.0413  -26.4882  -51.8342 C.2       18 UNK         0.5000 
    103 O         -6.1454  -27.6850  -51.5630 O.2       18 UNK        -0.5000 
    104 N         -5.0594  -25.9776  -52.5896 N.am      19 UNK        -0.5000 
    105 CA        -4.0649  -26.7633  -53.3261 C.3       19 UNK         0.1400 
    106 CB        -2.6615  -26.4864  -52.7578 C.3       19 UNK        -0.1800 
    107 C         -4.1555  -26.4554  -54.8336 C.2       19 UNK         0.5000 
    108 O         -3.1343  -26.4473  -55.5210 O.2       19 UNK        -0.5000 
    109 N         -5.3736  -26.1638  -55.3156 N.am      20 UNK        -0.5000 
    110 CA        -5.7576  -25.7228  -56.6641 C.3       20 UNK         0.1400 
    111 CB        -5.3167  -26.7194  -57.7533 C.3       20 UNK        -0.1800 
    112 C         -5.3168  -24.2841  -56.9983 C.2       20 UNK         0.5000 
    113 O         -6.1236  -23.5194  -57.5272 O.2       20 UNK        -0.5000 
    114 N         -4.0770  -23.9221  -56.6569 N.am      21 UNK        -0.5000 
    115 CA        -3.5029  -22.5895  -56.8025 C.3       21 UNK         0.1400 
    116 CB        -3.0871  -22.3489  -58.2657 C.3       21 UNK        -0.1800 
    117 C         -2.2973  -22.4542  -55.8620 C.2       21 UNK         0.5000 
    118 O         -1.6837  -23.4606  -55.4986 O.2       21 UNK        -0.5000 
    119 N         -1.9703  -21.2101  -55.5022 N.am      22 UNK        -0.5000 
    120 CA        -0.7728  -20.8563  -54.7261 C.3       22 UNK         0.1400 
    121 C          0.5116  -20.8847  -55.5992 C.2       22 UNK         0.5000 
    122 N          1.6462  -21.2711  -55.0318 N.am      22 UNK        -0.7600 
    123 O          0.4983  -20.5224  -56.7740 O.2       22 UNK        -0.5000 
    124 C124       -0.9319  -19.4806  -54.0344 C.3       23 UNK        -0.0398 
    125 S125       -2.2908  -19.4949  -52.8199 S.3       23 UNK        -0.2404 
    126 C126       -2.3683  -17.7368  -52.3360 C.3       23 UNK        -0.0205 
    127 H127       -1.5644   -9.4301  -44.9699 H         1 UNK         0.0600 
    128 H128       -1.2060  -11.0811  -44.4524 H         1 UNK         0.0600 
    129 H129       -2.2392  -10.8000  -45.8571 H         1 UNK         0.0600 
    130 H130       -1.1720  -11.1937  -47.7747 H         1 UNK         0.3000 
    131 H131        1.2478   -9.9596  -48.5210 H         1 UNK         0.0600 
    132 H132       -0.4809  -10.4831  -50.1599 H         1 UNK         0.0800 
    133 H133        1.0209  -11.2061  -50.6347 H         1 UNK         0.0800 
    134 H134        1.5519  -13.6126  -50.7179 H         1 UNK         0.0800 
    135 H135        0.4543  -13.4597  -52.0706 H         1 UNK         0.0800 
    136 H136       -1.4905  -15.1821  -52.2405 H         1 UNK         0.1150 
    137 H137       -0.5255  -19.0904  -50.7496 H         1 UNK         0.1150 
    138 H138        1.9122  -15.7368  -49.6952 H         1 UNK         0.1150 
    139 H139        1.5148  -19.4745  -49.5894 H         1 UNK         0.0800 
    140 H140        2.7399  -18.2336  -49.6176 H         1 UNK         0.0800 
    141 H141       -0.8205  -18.3519  -48.1359 H         1 UNK         0.0800 
    142 H142       -0.6065  -18.1205  -46.4317 H         1 UNK         0.0800 
    143 H143        0.1050  -20.7223  -47.8656 H         1 UNK         0.0600 
    144 H144        0.7280  -19.9272  -45.2505 H         1 UNK         0.3000 
    145 H145        0.7383  -23.1736  -43.6978 H         1 UNK         0.0600 
    146 H146        3.0144  -22.3027  -43.1555 H         1 UNK         0.0600 
    147 H147        2.9146  -22.9046  -44.8038 H         1 UNK         0.0600 
    148 H148        2.9152  -21.1746  -44.5044 H         1 UNK         0.0600 
    149 H149        1.1150  -20.3688  -42.9158 H         1 UNK         0.3000 
    150 H150       -2.1283  -20.0521  -41.5145 H         1 UNK         0.0600 
    151 H151       -0.9727  -21.2889  -39.6716 H         1 UNK         0.0600 
    152 H152       -0.9515  -19.5545  -39.3922 H         1 UNK         0.0600 
    153 H153        0.4995  -20.3718  -39.9692 H         1 UNK         0.0600 
    154 H154        0.1049  -18.3246  -41.3316 H         1 UNK         0.3000 
    155 H155       -0.1384  -16.8173  -44.5661 H         1 UNK         0.0600 
    156 H156       -0.7416  -15.7743  -41.7527 H         1 UNK         0.0600 
    157 H157       -1.7980  -15.6310  -43.1505 H         1 UNK         0.0600 
    158 H158       -0.2551  -14.7912  -43.1314 H         1 UNK         0.0600 
    159 H159        1.6610  -16.2388  -42.5104 H         1 UNK         0.3000 
    160 H160        4.1258  -18.7796  -43.2255 H         1 UNK         0.0600 
    161 H161        4.0100  -15.7294  -43.5021 H         1 UNK         0.0600 
    162 H162        4.5159  -16.8668  -44.7434 H         1 UNK         0.0600 
    163 H163        5.4715  -16.6887  -43.2827 H         1 UNK         0.0600 
    164 H164        3.7825  -16.7121  -41.2104 H         1 UNK         0.3000 
    165 H165        2.4769  -18.8527  -38.7090 H         1 UNK         0.0600 
    166 H166        4.4699  -18.0831  -37.4450 H         1 UNK         0.0600 
    167 H167        4.9277  -19.3295  -38.5945 H         1 UNK         0.0600 
    168 H168        5.2871  -17.6430  -38.9453 H         1 UNK         0.0600 
    169 H169        3.3454  -16.1230  -38.6989 H         1 UNK         0.3000 
    170 H170        0.2992  -14.6709  -39.8426 H         1 UNK         0.0600 
    171 H171       -0.0773  -15.1684  -37.4244 H         1 UNK         0.0600 
    172 H172        1.5936  -14.7502  -37.0648 H         1 UNK         0.0600 
    173 H173        0.4788  -13.5194  -37.6595 H         1 UNK         0.0600 
    174 H174        2.7186  -13.5088  -38.9028 H         1 UNK         0.3000 
    175 H175        3.8843  -12.2343  -40.4125 H         1 UNK         0.0600 
    176 H176        5.3470  -14.6409  -41.6641 H         1 UNK         0.0600 
    177 H177        6.1110  -13.1775  -41.0538 H         1 UNK         0.0600 
    178 H178        5.3101  -14.2740  -39.9430 H         1 UNK         0.0600 
    179 H179        3.1932  -13.0268  -43.0845 H         1 UNK         0.3000 
    180 H180        3.5366  -10.0742  -44.2563 H         1 UNK         0.0600 
    181 H181        6.1287  -11.3747  -45.2314 H         1 UNK         0.0600 
    182 H182        5.9381   -9.7377  -44.6239 H         1 UNK         0.0600 
    183 H183        5.1811  -10.1965  -46.1393 H         1 UNK         0.0600 
    184 H184        2.4321  -11.5085  -45.4499 H         1 UNK         0.3000 
    185 H185        3.2199  -14.2477  -47.4204 H         1 UNK         0.0600 
    186 H186        2.5576  -15.6791  -45.5538 H         1 UNK         0.0600 
    187 H187        1.4018  -14.4907  -44.9627 H         1 UNK         0.0600 
    188 H188        1.1215  -15.3262  -46.4912 H         1 UNK         0.0600 
    189 H189        0.7481  -12.9061  -46.8307 H         1 UNK         0.3000 
    190 H190       -2.0882  -20.2575  -45.1213 H         1 UNK         0.3000 
    191 H191       -4.5633  -20.3686  -46.3784 H         1 UNK         0.0600 
    192 H192       -3.7356  -21.5000  -43.6564 H         1 UNK         0.0600 
    193 H193       -5.3847  -21.1396  -44.1503 H         1 UNK         0.0600 
    194 H194       -4.2200  -19.8362  -43.9826 H         1 UNK         0.0600 
    195 H195       -2.2780  -23.0093  -46.1099 H         1 UNK         0.3000 
    196 H196       -4.2316  -25.1365  -46.5540 H         1 UNK         0.0600 
    197 H197       -2.2411  -26.5684  -46.6789 H         1 UNK         0.0600 
    198 H198       -2.0887  -25.5032  -45.2897 H         1 UNK         0.0600 
    199 H199       -1.1772  -25.1732  -46.7639 H         1 UNK         0.0600 
    200 H200       -2.7014  -22.7786  -48.5738 H         1 UNK         0.3000 
    201 H201       -3.1882  -24.4071  -51.0353 H         1 UNK         0.0600 
    202 H202       -0.8053  -23.7404  -50.7406 H         1 UNK         0.0600 
    203 H203       -1.2820  -22.0469  -50.6068 H         1 UNK         0.0600 
    204 H204       -1.5300  -22.9203  -52.1150 H         1 UNK         0.0600 
    205 H205       -3.6383  -21.2498  -49.4607 H         1 UNK         0.3000 
    206 H206       -4.9023  -19.8562  -51.5117 H         1 UNK         0.0600 
    207 H207       -5.6482  -18.3532  -49.6643 H         1 UNK         0.0600 
    208 H208       -5.2764  -19.5987  -48.4800 H         1 UNK         0.0600 
    209 H209       -3.9823  -18.8515  -49.4171 H         1 UNK         0.0600 
    210 H210       -7.0744  -19.1394  -51.7689 H         1 UNK         0.3000 
    211 H211       -9.1816  -19.4527  -52.3504 H         1 UNK         0.0600 
    212 H212       -9.5412  -21.1062  -49.7962 H         1 UNK         0.0600 
    213 H213      -10.8046  -20.3165  -50.7268 H         1 UNK         0.0600 
    214 H214       -9.6132  -19.3464  -49.8775 H         1 UNK         0.0600 
    215 H215       -7.1836  -21.2198  -53.3391 H         1 UNK         0.3000 
    216 H216       -6.8362  -22.8966  -54.7032 H         1 UNK         0.0600 
    217 H217       -8.6554  -23.8050  -56.0842 H         1 UNK         0.0600 
    218 H218       -8.8903  -22.0794  -55.8806 H         1 UNK         0.0600 
    219 H219       -9.8711  -23.2198  -54.9590 H         1 UNK         0.0600 
    220 H220       -7.0547  -23.4364  -51.7840 H         1 UNK         0.3000 
    221 H221       -8.0733  -26.0556  -51.3478 H         1 UNK         0.0600 
    222 H222       -5.9815  -24.4149  -49.8404 H         1 UNK         0.0600 
    223 H223       -7.7048  -24.5016  -49.4974 H         1 UNK         0.0600 
    224 H224       -6.6868  -25.9119  -49.2435 H         1 UNK         0.0600 
    225 H225       -5.0535  -24.9782  -52.7509 H         1 UNK         0.3000 
    226 H226       -4.2653  -27.8310  -53.2197 H         1 UNK         0.0600 
    227 H227       -2.6279  -26.6630  -51.6825 H         1 UNK         0.0600 
    228 H228       -1.9197  -27.1429  -53.2142 H         1 UNK         0.0600 
    229 H229       -2.3464  -25.4596  -52.9475 H         1 UNK         0.0600 
    230 H230       -6.1469  -26.1864  -54.6600 H         1 UNK         0.3000 
    231 H231       -6.8489  -25.7174  -56.6610 H         1 UNK         0.0600 
    232 H232       -5.6577  -27.7293  -57.5257 H         1 UNK         0.0600 
    233 H233       -4.2335  -26.7480  -57.8719 H         1 UNK         0.0600 
    234 H234       -5.7385  -26.4438  -58.7205 H         1 UNK         0.0600 
    235 H235       -3.4657  -24.6070  -56.2173 H         1 UNK         0.3000 
    236 H236       -4.2504  -21.8494  -56.5085 H         1 UNK         0.0600 
    237 H237       -2.6294  -21.3665  -58.3877 H         1 UNK         0.0600 
    238 H238       -2.3631  -23.0923  -58.6018 H         1 UNK         0.0600 
    239 H239       -3.9452  -22.3902  -58.9366 H         1 UNK         0.0600 
    240 H240       -2.5074  -20.4344  -55.8597 H         1 UNK         0.3000 
    241 H241       -0.6494  -21.6067  -53.9429 H         1 UNK         0.0600 
    242 H242        2.4898  -21.2807  -55.5842 H         1 UNK         0.3800 
    243 H243        1.6849  -21.5682  -54.0690 H         1 UNK         0.3800 
    244 H244       -1.1144  -18.6954  -54.7701 H         1 UNK         0.0800 
    245 H245       -0.0145  -19.2072  -53.5103 H         1 UNK         0.0800 
    246 H246       -3.2364  -17.5976  -51.6910 H         1 UNK         0.0800 
    247 H247       -2.5521  -17.1425  -53.2325 H         1 UNK         0.0800 
@<TRIPOS>BOND
     1    1    2 1    
     2    1  127 1    
     3    1  128 1    
     4    1  129 1    
     5    2    3 2    
     6    2    4 am   BACKBONE|DICT|INTERRES
     7    4    5 1    
     8    4  130 1    
     9    5    6 1    
    10    5   65 1    
    11    5  131 1    
    12    6    7 1    
    13    6  132 1    
    14    6  133 1    
    15    7    8 1    
    16    8    9 1    
    17    8  134 1    
    18    8  135 1    
    19    9   10 ar   
    20    9   14 ar   
    21   10   11 ar   
    22   10  136 1    
    23   11   12 ar   
    24   11  126 1    
    25   12   13 ar   
    26   12  137 1    
    27   13   14 ar   
    28   13   15 1    
    29   14  138 1    
    30   15   16 1    
    31   15  139 1    
    32   15  140 1    
    33   16   17 1    
    34   17   18 1    
    35   17  141 1    
    36   17  142 1    
    37   18   19 1    
    38   18   67 1    
    39   18  143 1    
    40   19   20 am   BACKBONE|DICT|INTERRES
    41   19  144 1    
    42   20   21 2    
    43   20   22 1    
    44   22   23 1    
    45   22   24 1    
    46   22  145 1    
    47   23  146 1    
    48   23  147 1    
    49   23  148 1    
    50   24   25 am   BACKBONE|DICT|INTERRES
    51   24  149 1    
    52   25   26 2    
    53   25   27 1    
    54   27   28 1    
    55   27   29 1    
    56   27  150 1    
    57   28  151 1    
    58   28  152 1    
    59   28  153 1    
    60   29   30 am   BACKBONE|DICT|INTERRES
    61   29  154 1    
    62   30   31 2    
    63   30   32 1    
    64   32   33 1    
    65   32   34 1    
    66   32  155 1    
    67   33  156 1    
    68   33  157 1    
    69   33  158 1    
    70   34   35 am   BACKBONE|DICT|INTERRES
    71   34  159 1    
    72   35   36 2    
    73   35   37 1    
    74   37   38 1    
    75   37   39 1    
    76   37  160 1    
    77   38  161 1    
    78   38  162 1    
    79   38  163 1    
    80   39   40 am   BACKBONE|DICT|INTERRES
    81   39  164 1    
    82   40   41 2    
    83   40   42 1    
    84   42   43 1    
    85   42   44 1    
    86   42  165 1    
    87   43  166 1    
    88   43  167 1    
    89   43  168 1    
    90   44   45 am   BACKBONE|DICT|INTERRES
    91   44  169 1    
    92   45   46 2    
    93   45   47 1    
    94   47   48 1    
    95   47   49 1    
    96   47  170 1    
    97   48  171 1    
    98   48  172 1    
    99   48  173 1    
   100   49   50 am   BACKBONE|DICT|INTERRES
   101   49  174 1    
   102   50   51 2    
   103   50   52 1    
   104   52   53 1    
   105   52   54 1    
   106   52  175 1    
   107   53  176 1    
   108   53  177 1    
   109   53  178 1    
   110   54   55 am   BACKBONE|DICT|INTERRES
   111   54  179 1    
   112   55   56 2    
   113   55   57 1    
   114   57   58 1    
   115   57   59 1    
   116   57  180 1    
   117   58  181 1    
   118   58  182 1    
   119   58  183 1    
   120   59   60 am   BACKBONE|DICT|INTERRES
   121   59  184 1    
   122   60   61 2    
   123   60   62 1    
   124   62   63 1    
   125   62   64 1    
   126   62  185 1    
   127   63  186 1    
   128   63  187 1    
   129   63  188 1    
   130   64   65 am   BACKBONE|DICT|INTERRES
   131   64  189 1    
   132   65   66 2    
   133   67   68 2    
   134   67   69 am   BACKBONE|DICT|INTERRES
   135   69   70 1    
   136   69  190 1    
   137   70   71 1    
   138   70   72 1    
   139   70  191 1    
   140   71  192 1    
   141   71  193 1    
   142   71  194 1    
   143   72   73 2    
   144   72   74 am   BACKBONE|DICT|INTERRES
   145   74   75 1    
   146   74  195 1    
   147   75   76 1    
   148   75   77 1    
   149   75  196 1    
   150   76  197 1    
   151   76  198 1    
   152   76  199 1    
   153   77   78 2    
   154   77   79 am   BACKBONE|DICT|INTERRES
   155   79   80 1    
   156   79  200 1    
   157   80   81 1    
   158   80   82 1    
   159   80  201 1    
   160   81  202 1    
   161   81  203 1    
   162   81  204 1    
   163   82   83 2    
   164   82   84 am   BACKBONE|DICT|INTERRES
   165   84   85 1    
   166   84  205 1    
   167   85   86 1    
   168   85   87 1    
   169   85  206 1    
   170   86  207 1    
   171   86  208 1    
   172   86  209 1    
   173   87   88 2    
   174   87   89 am   BACKBONE|DICT|INTERRES
   175   89   90 1    
   176   89  210 1    
   177   90   91 1    
   178   90   92 1    
   179   90  211 1    
   180   91  212 1    
   181   91  213 1    
   182   91  214 1    
   183   92   93 2    
   184   92   94 am   BACKBONE|DICT|INTERRES
   185   94   95 1    
   186   94  215 1    
   187   95   96 1    
   188   95   97 1    
   189   95  216 1    
   190   96  217 1    
   191   96  218 1    
   192   96  219 1    
   193   97   98 2    
   194   97   99 am   BACKBONE|DICT|INTERRES
   195   99  100 1    
   196   99  220 1    
   197  100  101 1    
   198  100  102 1    
   199  100  221 1    
   200  101  222 1    
   201  101  223 1    
   202  101  224 1    
   203  102  103 2    
   204  102  104 am   BACKBONE|DICT|INTERRES
   205  104  105 1    
   206  104  225 1    
   207  105  106 1    
   208  105  107 1    
   209  105  226 1    
   210  106  227 1    
   211  106  228 1    
   212  106  229 1    
   213  107  108 2    
   214  107  109 am   BACKBONE|DICT|INTERRES
   215  109  110 1    
   216  109  230 1    
   217  110  111 1    
   218  110  112 1    
   219  110  231 1    
   220  111  232 1    
   221  111  233 1    
   222  111  234 1    
   223  112  113 2    
   224  112  114 am   BACKBONE|DICT|INTERRES
   225  114  115 1    
   226  114  235 1    
   227  115  116 1    
   228  115  117 1    
   229  115  236 1    
   230  116  237 1    
   231  116  238 1    
   232  116  239 1    
   233  117  118 2    
   234  117  119 am   BACKBONE|DICT|INTERRES
   235  119  120 1    
   236  119  240 1    
   237  120  121 1    
   238  120  124 1    
   239  120  241 1    
   240  121  122 am   BACKBONE|DICT|INTERRES
   241  121  123 2    
   242  122  242 1    
   243  122  243 1    
   244  124  125 1    
   245  124  244 1    
   246  124  245 1    
   247  125  126 1    
   248  126  246 1    
   249  126  247 1    
@<TRIPOS>SUBSTRUCTURE
     1 UNK         1 GROUP             0       ****    0 ROOT    
