@<TRIPOS>MOLECULE
3R540
247   249    1
SMALL
USER_CHARGES


@<TRIPOS>ATOM
      1 CA          0.3822  -11.5229  -51.1584 C.3       0 UNK        -0.1800 
      2 C           0.8377  -12.6779  -50.2779 C.2       0 UNK         0.5000 
      3 O           1.7819  -13.3836  -50.6322 O.2       0 UNK        -0.5000 
      4 N           0.1743  -12.8698  -49.1307 N.am      1 UNK        -0.5000 
      5 CA          0.4495  -13.9511  -48.1748 C.3       1 UNK         0.1400 
      6 C6         -0.7362  -14.1865  -47.2081 C.3       23 UNK        -0.0398 
      7 S7         -2.3190  -14.5891  -48.0224 S.3       23 UNK        -0.2404 
      8 C8         -2.5420  -16.3416  -47.5689 C.3       23 UNK        -0.0205 
      9 C9         -1.9597  -17.2680  -48.6240 C.ar      23 UNK        -0.0193 
     10 C10        -2.8070  -17.9144  -49.5266 C.ar      23 UNK        -0.1150 
     11 C11        -2.2879  -18.7461  -50.5229 C.ar      23 UNK        -0.0193 
     12 C12        -0.9047  -18.9272  -50.6105 C.ar      23 UNK        -0.1150 
     13 C13        -0.0462  -18.2936  -49.7074 C.ar      23 UNK        -0.0193 
     14 C14        -0.5812  -17.4786  -48.7056 C.ar      23 UNK        -0.1150 
     15 C15         1.4606  -18.4649  -49.8341 C.3       23 UNK        -0.0205 
     16 S16         2.0177  -20.1372  -49.3814 S.3       23 UNK        -0.2404 
     17 C17         1.6635  -20.1709  -47.5922 C.3       23 UNK        -0.0398 
     18 CA          0.9770  -21.4771  -47.1316 C.3       11 UNK         0.1400 
     19 N           1.0159  -21.6136  -45.6759 N.am      11 UNK        -0.5000 
     20 C           0.6912  -22.7212  -44.9970 C.2       10 UNK         0.5000 
     21 O           0.3438  -23.7742  -45.5296 O.2       10 UNK        -0.5000 
     22 CA          0.7186  -22.6232  -43.4619 C.3       10 UNK         0.1400 
     23 CB          2.1561  -22.7362  -42.9333 C.3       10 UNK        -0.1800 
     24 N           0.1018  -21.3926  -42.9644 N.am      10 UNK        -0.5000 
     25 C          -1.1892  -21.0731  -43.1384 C.2       9 UNK         0.5000 
     26 O          -2.0017  -21.7963  -43.7147 O.2       9 UNK        -0.5000 
     27 CA         -1.6440  -19.7002  -42.6153 C.3       9 UNK         0.1400 
     28 CB         -1.8462  -19.7363  -41.0932 C.3       9 UNK        -0.1800 
     29 N          -0.7165  -18.6246  -42.9630 N.am      9 UNK        -0.5000 
     30 C          -0.4254  -18.2441  -44.2156 C.2       8 UNK         0.5000 
     31 O          -0.9196  -18.7489  -45.2235 O.2       8 UNK        -0.5000 
     32 CA          0.6378  -17.1435  -44.3663 C.3       8 UNK         0.1400 
     33 CB          0.0714  -15.7800  -43.9399 C.3       8 UNK        -0.1800 
     34 N           1.8486  -17.4288  -43.5980 N.am      8 UNK        -0.5000 
     35 C           2.6104  -18.5242  -43.7262 C.2       7 UNK         0.5000 
     36 O           2.4116  -19.4085  -44.5568 O.2       7 UNK        -0.5000 
     37 CA          3.7565  -18.6879  -42.7162 C.3       7 UNK         0.1400 
     38 CB          4.9792  -17.8591  -43.1347 C.3       7 UNK        -0.1800 
     39 N           3.3420  -18.3187  -41.3630 N.am      7 UNK        -0.5000 
     40 C           2.4673  -19.0171  -40.6248 C.2       6 UNK         0.5000 
     41 O           1.9352  -20.0630  -40.9973 O.2       6 UNK        -0.5000 
     42 CA          2.0963  -18.4205  -39.2556 C.3       6 UNK         0.1400 
     43 CB          3.1815  -18.7295  -38.2134 C.3       6 UNK        -0.1800 
     44 N           1.8771  -16.9747  -39.3190 N.am      6 UNK        -0.5000 
     45 C           0.8601  -16.3984  -39.9742 C.2       5 UNK         0.5000 
     46 O          -0.0131  -17.0290  -40.5703 O.2       5 UNK        -0.5000 
     47 CA          0.8320  -14.8587  -39.9970 C.3       5 UNK         0.1400 
     48 CB          0.1353  -14.3159  -38.7404 C.3       5 UNK        -0.1800 
     49 N           2.1500  -14.2296  -40.1286 N.am      5 UNK        -0.5000 
     50 C           3.0119  -14.4331  -41.1338 C.2       4 UNK         0.5000 
     51 O           2.8344  -15.2526  -42.0355 O.2       4 UNK        -0.5000 
     52 CA          4.2727  -13.5514  -41.1472 C.3       4 UNK         0.1400 
     53 CB          5.5227  -14.3456  -41.5607 C.3       4 UNK        -0.1800 
     54 N           4.0973  -12.4313  -42.0684 N.am      4 UNK        -0.5000 
     55 C           3.3186  -11.3652  -41.8425 C.2       3 UNK         0.5000 
     56 O           2.7091  -11.1788  -40.7882 O.2       3 UNK        -0.5000 
     57 CA          3.2122  -10.3183  -42.9683 C.3       3 UNK         0.1400 
     58 CB          4.1057   -9.1073  -42.6564 C.3       3 UNK        -0.1800 
     59 N           3.5603  -10.8305  -44.2977 N.am      3 UNK        -0.5000 
     60 C           2.7743  -11.6205  -45.0409 C.2       2 UNK         0.5000 
     61 O           1.6850  -12.0518  -44.6554 O.2       2 UNK        -0.5000 
     62 CA          3.2907  -11.9287  -46.4619 C.3       2 UNK         0.1400 
     63 CB          4.5644  -12.8008  -46.4384 C.3       2 UNK        -0.1800 
     64 N           2.2421  -12.4846  -47.3279 N.am      2 UNK        -0.5000 
     65 C           1.7345  -13.7276  -47.3431 C.2       1 UNK         0.5000 
     66 O           2.2059  -14.6802  -46.7215 O.2       1 UNK        -0.5000 
     67 C          -0.4573  -21.6280  -47.6800 C.2       11 UNK         0.5000 
     68 O          -0.6607  -22.3941  -48.6221 O.2       11 UNK        -0.5000 
     69 N          -1.4321  -20.9601  -47.0443 N.am      12 UNK        -0.5000 
     70 CA         -2.8534  -21.0676  -47.3771 C.3       12 UNK         0.1400 
     71 CB         -3.6625  -20.0688  -46.5375 C.3       12 UNK        -0.1800 
     72 C          -3.4041  -22.4938  -47.1991 C.2       12 UNK         0.5000 
     73 O          -4.1458  -22.9663  -48.0613 O.2       12 UNK        -0.5000 
     74 N          -3.0084  -23.1631  -46.1070 N.am      13 UNK        -0.5000 
     75 CA         -3.3555  -24.5535  -45.8160 C.3       13 UNK         0.1400 
     76 CB         -2.9402  -24.9034  -44.3791 C.3       13 UNK        -0.1800 
     77 C          -2.7399  -25.5419  -46.8223 C.2       13 UNK         0.5000 
     78 O          -3.4433  -26.4361  -47.2924 O.2       13 UNK        -0.5000 
     79 N          -1.4564  -25.3481  -47.1590 N.am      14 UNK        -0.5000 
     80 CA         -0.7198  -26.1498  -48.1396 C.3       14 UNK         0.1400 
     81 CB          0.7710  -25.7822  -48.0899 C.3       14 UNK        -0.1800 
     82 C          -1.2683  -26.0009  -49.5705 C.2       14 UNK         0.5000 
     83 O          -1.3584  -26.9933  -50.2942 O.2       14 UNK        -0.5000 
     84 N          -1.6485  -24.7712  -49.9406 N.am      15 UNK        -0.5000 
     85 CA         -2.2911  -24.4415  -51.2133 C.3       15 UNK         0.1400 
     86 CB         -2.2419  -22.9188  -51.4040 C.3       15 UNK        -0.1800 
     87 C          -3.7471  -24.9389  -51.3148 C.2       15 UNK         0.5000 
     88 O          -4.2495  -25.0890  -52.4284 O.2       15 UNK        -0.5000 
     89 N          -4.3870  -25.1720  -50.1581 N.am      16 UNK        -0.5000 
     90 CA         -5.8106  -25.4624  -49.9639 C.3       16 UNK         0.1400 
     91 CB         -6.2117  -26.7988  -50.6234 C.3       16 UNK        -0.1800 
     92 C          -6.6835  -24.2685  -50.4013 C.2       16 UNK         0.5000 
     93 O          -7.6485  -24.4379  -51.1491 O.2       16 UNK        -0.5000 
     94 N          -6.2949  -23.0749  -49.9284 N.am      17 UNK        -0.5000 
     95 CA         -6.8080  -21.7567  -50.3073 C.3       17 UNK         0.1400 
     96 CB         -8.2796  -21.5857  -49.8689 C.3       17 UNK        -0.1800 
     97 C          -6.5532  -21.4537  -51.8002 C.2       17 UNK         0.5000 
     98 O          -5.5598  -21.9241  -52.3567 O.2       17 UNK        -0.5000 
     99 N          -7.4304  -20.6638  -52.4312 N.am      18 UNK        -0.5000 
    100 CA        -7.3132  -20.2033  -53.8183 C.3       18 UNK         0.1400 
    101 CB        -8.0896  -18.8829  -53.9663 C.3       18 UNK        -0.1800 
    102 C         -7.7403  -21.2652  -54.8558 C.2       18 UNK         0.5000 
    103 O         -8.3987  -20.9357  -55.8447 O.2       18 UNK        -0.5000 
    104 N         -7.3472  -22.5249  -54.6357 N.am      19 UNK        -0.5000 
    105 CA        -7.5847  -23.6678  -55.5172 C.3       19 UNK         0.1400 
    106 CB        -7.5033  -24.9559  -54.6785 C.3       19 UNK        -0.1800 
    107 C         -6.5917  -23.6580  -56.6974 C.2       19 UNK         0.5000 
    108 O         -5.7258  -24.5302  -56.7849 O.2       19 UNK        -0.5000 
    109 N         -6.7139  -22.6307  -57.5531 N.am      20 UNK        -0.5000 
    110 CA        -5.7894  -22.2552  -58.6315 C.3       20 UNK         0.1400 
    111 CB        -5.7819  -23.3145  -59.7536 C.3       20 UNK        -0.1800 
    112 C         -4.3846  -21.9373  -58.0750 C.2       20 UNK         0.5000 
    113 O         -3.3784  -22.4502  -58.5691 O.2       20 UNK        -0.5000 
    114 N         -4.3615  -21.1210  -57.0160 N.am      21 UNK        -0.5000 
    115 CA        -3.1915  -20.7946  -56.2096 C.3       21 UNK         0.1400 
    116 CB        -3.0064  -21.8830  -55.1337 C.3       21 UNK        -0.1800 
    117 C         -3.3570  -19.3914  -55.5988 C.2       21 UNK         0.5000 
    118 O         -4.3107  -18.6838  -55.9336 O.2       21 UNK        -0.5000 
    119 N         -2.4152  -19.0254  -54.7202 N.am      22 UNK        -0.5000 
    120 CA        -2.2882  -17.7264  -54.0283 C.3       22 UNK         0.1400 
    121 C         -1.6586  -16.5987  -54.9033 C.2       22 UNK         0.5000 
    122 N         -1.1182  -16.8912  -56.0803 N.am      22 UNK        -0.7600 
    123 O         -1.6309  -15.4390  -54.5006 O.2       22 UNK        -0.5000 
    124 C124       -3.5768  -17.2325  -53.3016 C.3       23 UNK        -0.0398 
    125 S125       -4.4841  -18.4132  -52.2390 S.3       23 UNK        -0.2404 
    126 C126       -3.2165  -19.4818  -51.4790 C.3       23 UNK        -0.0205 
    127 H127       -0.4570  -10.9836  -50.7184 H         1 UNK         0.0600 
    128 H128        0.0719  -11.8960  -52.1345 H         1 UNK         0.0600 
    129 H129        1.2002  -10.8177  -51.3059 H         1 UNK         0.0600 
    130 H130       -0.6081  -12.2727  -48.9021 H         1 UNK         0.3000 
    131 H131        0.6048  -14.8647  -48.7509 H         1 UNK         0.0600 
    132 H132       -0.4874  -14.9963  -46.5263 H         1 UNK         0.0800 
    133 H133       -0.8972  -13.3072  -46.5813 H         1 UNK         0.0800 
    134 H134       -2.1041  -16.5593  -46.5943 H         1 UNK         0.0800 
    135 H135       -3.6109  -16.5300  -47.4582 H         1 UNK         0.0800 
    136 H136       -3.8756  -17.7687  -49.4561 H         1 UNK         0.1150 
    137 H137       -0.4909  -19.5697  -51.3749 H         1 UNK         0.1150 
    138 H138        0.0755  -16.9954  -47.9974 H         1 UNK         0.1150 
    139 H139        1.7537  -18.2653  -50.8657 H         1 UNK         0.0800 
    140 H140        1.9889  -17.7321  -49.2217 H         1 UNK         0.0800 
    141 H141        1.0769  -19.3022  -47.2912 H         1 UNK         0.0800 
    142 H142        2.6254  -20.0669  -47.0894 H         1 UNK         0.0800 
    143 H143        1.5592  -22.3102  -47.5316 H         1 UNK         0.0600 
    144 H144        1.3283  -20.7951  -45.1582 H         1 UNK         0.3000 
    145 H145        0.1459  -23.4648  -43.0668 H         1 UNK         0.0600 
    146 H146        2.1738  -22.7593  -41.8437 H         1 UNK         0.0600 
    147 H147        2.6315  -23.6523  -43.2860 H         1 UNK         0.0600 
    148 H148        2.7727  -21.8983  -43.2598 H         1 UNK         0.0600 
    149 H149        0.7038  -20.7572  -42.4502 H         1 UNK         0.3000 
    150 H150       -2.6051  -19.4714  -43.0802 H         1 UNK         0.0600 
    151 H151       -2.5367  -20.5311  -40.8084 H         1 UNK         0.0600 
    152 H152       -2.2635  -18.7970  -40.7299 H         1 UNK         0.0600 
    153 H153       -0.9072  -19.9097  -40.5660 H         1 UNK         0.0600 
    154 H154       -0.2823  -18.1338  -42.1867 H         1 UNK         0.3000 
    155 H155        0.9143  -17.0884  -45.4212 H         1 UNK         0.0600 
    156 H156       -0.0788  -15.7269  -42.8641 H         1 UNK         0.0600 
    157 H157        0.7434  -14.9684  -44.2211 H         1 UNK         0.0600 
    158 H158       -0.8973  -15.5879  -44.4011 H         1 UNK         0.0600 
    159 H159        2.1283  -16.7246  -42.9188 H         1 UNK         0.3000 
    160 H160        4.0488  -19.7400  -42.7052 H         1 UNK         0.0600 
    161 H161        4.7368  -16.8005  -43.2204 H         1 UNK         0.0600 
    162 H162        5.3535  -18.1858  -44.1056 H         1 UNK         0.0600 
    163 H163        5.7946  -17.9630  -42.4189 H         1 UNK         0.0600 
    164 H164        3.6789  -17.4355  -41.0102 H         1 UNK         0.3000 
    165 H165        1.1666  -18.8916  -38.9289 H         1 UNK         0.0600 
    166 H166        2.8882  -18.3789  -37.2237 H         1 UNK         0.0600 
    167 H167        3.3546  -19.8039  -38.1382 H         1 UNK         0.0600 
    168 H168        4.1328  -18.2605  -38.4676 H         1 UNK         0.0600 
    169 H169        2.5520  -16.3835  -38.8567 H         1 UNK         0.3000 
    170 H170        0.2425  -14.5542  -40.8632 H         1 UNK         0.0600 
    171 H171       -0.8595  -14.7492  -38.6270 H         1 UNK         0.0600 
    172 H172        0.6991  -14.5459  -37.8356 H         1 UNK         0.0600 
    173 H173        0.0121  -13.2339  -38.7940 H         1 UNK         0.0600 
    174 H174        2.3629  -13.5030  -39.4596 H         1 UNK         0.3000 
    175 H175        4.4411  -13.1633  -40.1403 H         1 UNK         0.0600 
    176 H176        6.4248  -13.7458  -41.4395 H         1 UNK         0.0600 
    177 H177        5.4740  -14.6621  -42.6028 H         1 UNK         0.0600 
    178 H178        5.6421  -15.2398  -40.9476 H         1 UNK         0.0600 
    179 H179        4.5346  -12.5173  -42.9733 H         1 UNK         0.3000 
    180 H180        2.1756   -9.9750  -42.9933 H         1 UNK         0.0600 
    181 H181        5.1611   -9.3816  -42.6306 H         1 UNK         0.0600 
    182 H182        3.8554   -8.6754  -41.6865 H         1 UNK         0.0600 
    183 H183        3.9800   -8.3213  -43.4013 H         1 UNK         0.0600 
    184 H184        4.4365  -10.5087  -44.6836 H         1 UNK         0.3000 
    185 H185        3.5563  -10.9718  -46.9140 H         1 UNK         0.0600 
    186 H186        5.4018  -12.2578  -45.9996 H         1 UNK         0.0600 
    187 H187        4.4290  -13.7086  -45.8495 H         1 UNK         0.0600 
    188 H188        4.8627  -13.0933  -47.4452 H         1 UNK         0.0600 
    189 H189        1.7474  -11.7989  -47.8802 H         1 UNK         0.3000 
    190 H190       -1.1902  -20.3220  -46.2906 H         1 UNK         0.3000 
    191 H191       -2.9658  -20.7986  -48.4289 H         1 UNK         0.0600 
    192 H192       -3.3219  -19.0480  -46.7034 H         1 UNK         0.0600 
    193 H193       -4.7208  -20.1057  -46.7981 H         1 UNK         0.0600 
    194 H194       -3.5766  -20.2769  -45.4706 H         1 UNK         0.0600 
    195 H195       -2.4372  -22.6829  -45.4175 H         1 UNK         0.3000 
    196 H196       -4.4415  -24.6458  -45.8838 H         1 UNK         0.0600 
    197 H197       -3.2008  -25.9342  -44.1365 H         1 UNK         0.0600 
    198 H198       -3.4449  -24.2615  -43.6569 H         1 UNK         0.0600 
    199 H199       -1.8659  -24.7916  -44.2304 H         1 UNK         0.0600 
    200 H200       -0.9314  -24.6141  -46.6903 H         1 UNK         0.3000 
    201 H201       -0.8197  -27.1991  -47.8545 H         1 UNK         0.0600 
    202 H202        1.1905  -25.9721  -47.1018 H         1 UNK         0.0600 
    203 H203        0.9335  -24.7299  -48.3254 H         1 UNK         0.0600 
    204 H204        1.3443  -26.3726  -48.8057 H         1 UNK         0.0600 
    205 H205       -1.4676  -23.9923  -49.3117 H         1 UNK         0.3000 
    206 H206       -1.7237  -24.9087  -52.0207 H         1 UNK         0.0600 
    207 H207       -1.2152  -22.5556  -51.4517 H         1 UNK         0.0600 
    208 H208       -2.7396  -22.6228  -52.3270 H         1 UNK         0.0600 
    209 H209       -2.7425  -22.4033  -50.5841 H         1 UNK         0.0600 
    210 H210       -3.8678  -24.9992  -49.3073 H         1 UNK         0.3000 
    211 H211       -5.9536  -25.5717  -48.8878 H         1 UNK         0.0600 
    212 H212       -5.5618  -27.6099  -50.2952 H         1 UNK         0.0600 
    213 H213       -6.1653  -26.7494  -51.7115 H         1 UNK         0.0600 
    214 H214       -7.2330  -27.0709  -50.3551 H         1 UNK         0.0600 
    215 H215       -5.4749  -23.0579  -49.3246 H         1 UNK         0.3000 
    216 H216       -6.2103  -21.0349  -49.7489 H         1 UNK         0.0600 
    217 H217       -8.6001  -20.5468  -49.9515 H         1 UNK         0.0600 
    218 H218       -8.4119  -21.8750  -48.8262 H         1 UNK         0.0600 
    219 H219       -8.9584  -22.1922  -50.4695 H         1 UNK         0.0600 
    220 H220       -8.2414  -20.3430  -51.9233 H         1 UNK         0.3000 
    221 H221       -6.2633  -19.9865  -54.0240 H         1 UNK         0.0600 
    222 H222       -9.1586  -19.0238  -53.8029 H         1 UNK         0.0600 
    223 H223       -7.7344  -18.1368  -53.2550 H         1 UNK         0.0600 
    224 H224       -7.9594  -18.4600  -54.9633 H         1 UNK         0.0600 
    225 H225       -6.7541  -22.6933  -53.8296 H         1 UNK         0.3000 
    226 H226       -8.5932  -23.6010  -55.9304 H         1 UNK         0.0600 
    227 H227       -8.2596  -24.9616  -53.8934 H         1 UNK         0.0600 
    228 H228       -7.6699  -25.8388  -55.2965 H         1 UNK         0.0600 
    229 H229       -6.5288  -25.0649  -54.1999 H         1 UNK         0.0600 
    230 H230       -7.4438  -21.9562  -57.3460 H         1 UNK         0.3000 
    231 H231       -6.1701  -21.3263  -59.0586 H         1 UNK         0.0600 
    232 H232       -5.3632  -24.2635  -59.4181 H         1 UNK         0.0600 
    233 H233       -5.1846  -22.9773  -60.6015 H         1 UNK         0.0600 
    234 H234       -6.7899  -23.5045  -60.1222 H         1 UNK         0.0600 
    235 H235       -5.2137  -20.6631  -56.7237 H         1 UNK         0.3000 
    236 H236       -2.3076  -20.7659  -56.8500 H         1 UNK         0.0600 
    237 H237       -2.9403  -22.8755  -55.5801 H         1 UNK         0.0600 
    238 H238       -2.0917  -21.7323  -54.5604 H         1 UNK         0.0600 
    239 H239       -3.8416  -21.8932  -54.4327 H         1 UNK         0.0600 
    240 H240       -1.6678  -19.6770  -54.5313 H         1 UNK         0.3000 
    241 H241       -1.5404  -17.8980  -53.2549 H         1 UNK         0.0600 
    242 H242       -0.7055  -16.1548  -56.6315 H         1 UNK         0.3800 
    243 H243       -1.1188  -17.8359  -56.4284 H         1 UNK         0.3800 
    244 H244       -3.3281  -16.3806  -52.6665 H         1 UNK         0.0800 
    245 H245       -4.2904  -16.8490  -54.0321 H         1 UNK         0.0800 
    246 H246       -3.7337  -20.2550  -50.9112 H         1 UNK         0.0800 
    247 H247       -2.6581  -20.0070  -52.2524 H         1 UNK         0.0800 
@<TRIPOS>BOND
     1    1    2 1    
     2    1  127 1    
     3    1  128 1    
     4    1  129 1    
     5    2    3 2    
     6    2    4 am   BACKBONE|DICT|INTERRES
     7    4    5 1    
     8    4  130 1    
     9    5    6 1    
    10    5   65 1    
    11    5  131 1    
    12    6    7 1    
    13    6  132 1    
    14    6  133 1    
    15    7    8 1    
    16    8    9 1    
    17    8  134 1    
    18    8  135 1    
    19    9   10 ar   
    20    9   14 ar   
    21   10   11 ar   
    22   10  136 1    
    23   11   12 ar   
    24   11  126 1    
    25   12   13 ar   
    26   12  137 1    
    27   13   14 ar   
    28   13   15 1    
    29   14  138 1    
    30   15   16 1    
    31   15  139 1    
    32   15  140 1    
    33   16   17 1    
    34   17   18 1    
    35   17  141 1    
    36   17  142 1    
    37   18   19 1    
    38   18   67 1    
    39   18  143 1    
    40   19   20 am   BACKBONE|DICT|INTERRES
    41   19  144 1    
    42   20   21 2    
    43   20   22 1    
    44   22   23 1    
    45   22   24 1    
    46   22  145 1    
    47   23  146 1    
    48   23  147 1    
    49   23  148 1    
    50   24   25 am   BACKBONE|DICT|INTERRES
    51   24  149 1    
    52   25   26 2    
    53   25   27 1    
    54   27   28 1    
    55   27   29 1    
    56   27  150 1    
    57   28  151 1    
    58   28  152 1    
    59   28  153 1    
    60   29   30 am   BACKBONE|DICT|INTERRES
    61   29  154 1    
    62   30   31 2    
    63   30   32 1    
    64   32   33 1    
    65   32   34 1    
    66   32  155 1    
    67   33  156 1    
    68   33  157 1    
    69   33  158 1    
    70   34   35 am   BACKBONE|DICT|INTERRES
    71   34  159 1    
    72   35   36 2    
    73   35   37 1    
    74   37   38 1    
    75   37   39 1    
    76   37  160 1    
    77   38  161 1    
    78   38  162 1    
    79   38  163 1    
    80   39   40 am   BACKBONE|DICT|INTERRES
    81   39  164 1    
    82   40   41 2    
    83   40   42 1    
    84   42   43 1    
    85   42   44 1    
    86   42  165 1    
    87   43  166 1    
    88   43  167 1    
    89   43  168 1    
    90   44   45 am   BACKBONE|DICT|INTERRES
    91   44  169 1    
    92   45   46 2    
    93   45   47 1    
    94   47   48 1    
    95   47   49 1    
    96   47  170 1    
    97   48  171 1    
    98   48  172 1    
    99   48  173 1    
   100   49   50 am   BACKBONE|DICT|INTERRES
   101   49  174 1    
   102   50   51 2    
   103   50   52 1    
   104   52   53 1    
   105   52   54 1    
   106   52  175 1    
   107   53  176 1    
   108   53  177 1    
   109   53  178 1    
   110   54   55 am   BACKBONE|DICT|INTERRES
   111   54  179 1    
   112   55   56 2    
   113   55   57 1    
   114   57   58 1    
   115   57   59 1    
   116   57  180 1    
   117   58  181 1    
   118   58  182 1    
   119   58  183 1    
   120   59   60 am   BACKBONE|DICT|INTERRES
   121   59  184 1    
   122   60   61 2    
   123   60   62 1    
   124   62   63 1    
   125   62   64 1    
   126   62  185 1    
   127   63  186 1    
   128   63  187 1    
   129   63  188 1    
   130   64   65 am   BACKBONE|DICT|INTERRES
   131   64  189 1    
   132   65   66 2    
   133   67   68 2    
   134   67   69 am   BACKBONE|DICT|INTERRES
   135   69   70 1    
   136   69  190 1    
   137   70   71 1    
   138   70   72 1    
   139   70  191 1    
   140   71  192 1    
   141   71  193 1    
   142   71  194 1    
   143   72   73 2    
   144   72   74 am   BACKBONE|DICT|INTERRES
   145   74   75 1    
   146   74  195 1    
   147   75   76 1    
   148   75   77 1    
   149   75  196 1    
   150   76  197 1    
   151   76  198 1    
   152   76  199 1    
   153   77   78 2    
   154   77   79 am   BACKBONE|DICT|INTERRES
   155   79   80 1    
   156   79  200 1    
   157   80   81 1    
   158   80   82 1    
   159   80  201 1    
   160   81  202 1    
   161   81  203 1    
   162   81  204 1    
   163   82   83 2    
   164   82   84 am   BACKBONE|DICT|INTERRES
   165   84   85 1    
   166   84  205 1    
   167   85   86 1    
   168   85   87 1    
   169   85  206 1    
   170   86  207 1    
   171   86  208 1    
   172   86  209 1    
   173   87   88 2    
   174   87   89 am   BACKBONE|DICT|INTERRES
   175   89   90 1    
   176   89  210 1    
   177   90   91 1    
   178   90   92 1    
   179   90  211 1    
   180   91  212 1    
   181   91  213 1    
   182   91  214 1    
   183   92   93 2    
   184   92   94 am   BACKBONE|DICT|INTERRES
   185   94   95 1    
   186   94  215 1    
   187   95   96 1    
   188   95   97 1    
   189   95  216 1    
   190   96  217 1    
   191   96  218 1    
   192   96  219 1    
   193   97   98 2    
   194   97   99 am   BACKBONE|DICT|INTERRES
   195   99  100 1    
   196   99  220 1    
   197  100  101 1    
   198  100  102 1    
   199  100  221 1    
   200  101  222 1    
   201  101  223 1    
   202  101  224 1    
   203  102  103 2    
   204  102  104 am   BACKBONE|DICT|INTERRES
   205  104  105 1    
   206  104  225 1    
   207  105  106 1    
   208  105  107 1    
   209  105  226 1    
   210  106  227 1    
   211  106  228 1    
   212  106  229 1    
   213  107  108 2    
   214  107  109 am   BACKBONE|DICT|INTERRES
   215  109  110 1    
   216  109  230 1    
   217  110  111 1    
   218  110  112 1    
   219  110  231 1    
   220  111  232 1    
   221  111  233 1    
   222  111  234 1    
   223  112  113 2    
   224  112  114 am   BACKBONE|DICT|INTERRES
   225  114  115 1    
   226  114  235 1    
   227  115  116 1    
   228  115  117 1    
   229  115  236 1    
   230  116  237 1    
   231  116  238 1    
   232  116  239 1    
   233  117  118 2    
   234  117  119 am   BACKBONE|DICT|INTERRES
   235  119  120 1    
   236  119  240 1    
   237  120  121 1    
   238  120  124 1    
   239  120  241 1    
   240  121  122 am   BACKBONE|DICT|INTERRES
   241  121  123 2    
   242  122  242 1    
   243  122  243 1    
   244  124  125 1    
   245  124  244 1    
   246  124  245 1    
   247  125  126 1    
   248  126  246 1    
   249  126  247 1    
@<TRIPOS>SUBSTRUCTURE
     1 UNK         1 GROUP             0       ****    0 ROOT    
