@<TRIPOS>MOLECULE
3R540
247   249    1
SMALL
USER_CHARGES


@<TRIPOS>ATOM
      1 CA          4.6050  -14.4447  -45.6305 C.3       0 UNK        -0.1800 
      2 C           3.3471  -15.0221  -46.2636 C.2       0 UNK         0.5000 
      3 O           3.2535  -16.2358  -46.4324 O.2       0 UNK        -0.5000 
      4 N           2.3843  -14.1590  -46.6125 N.am      1 UNK        -0.5000 
      5 CA          1.0435  -14.5409  -47.0708 C.3       1 UNK         0.1400 
      6 C6          0.3736  -13.3780  -47.8458 C.3       23 UNK        -0.0398 
      7 S7         -0.9400  -13.9307  -48.9900 S.3       23 UNK        -0.2404 
      8 C8         -0.0154  -14.2121  -50.5361 C.3       23 UNK        -0.0205 
      9 C9         -0.0965  -15.6692  -50.9620 C.ar      23 UNK        -0.0193 
     10 C10        -1.0213  -16.0742  -51.9292 C.ar      23 UNK        -0.1150 
     11 C11        -1.0949  -17.4144  -52.3194 C.ar      23 UNK        -0.0193 
     12 C12        -0.2632  -18.3556  -51.7088 C.ar      23 UNK        -0.1150 
     13 C13         0.6627  -17.9667  -50.7380 C.ar      23 UNK        -0.0193 
     14 C14         0.7591  -16.6157  -50.3923 C.ar      23 UNK        -0.1150 
     15 C15         1.5698  -19.0093  -50.0937 C.3       23 UNK        -0.0205 
     16 S16         1.7177  -18.8400  -48.2825 S.3       23 UNK        -0.2404 
     17 C17         0.0054  -19.1204  -47.7180 C.3       23 UNK        -0.0398 
     18 CA         -0.3244  -20.6173  -47.5100 C.3       11 UNK         0.1400 
     19 N           0.6329  -21.2953  -46.6357 N.am      11 UNK        -0.5000 
     20 C           0.7945  -22.6226  -46.5712 C.2       10 UNK         0.5000 
     21 O           0.1721  -23.4238  -47.2681 O.2       10 UNK        -0.5000 
     22 CA          1.8032  -23.1390  -45.5303 C.3       10 UNK         0.1400 
     23 CB          3.2251  -23.1483  -46.1108 C.3       10 UNK        -0.1800 
     24 N           1.7846  -22.3458  -44.3003 N.am      10 UNK        -0.5000 
     25 C           0.7709  -22.3484  -43.4225 C.2       9 UNK         0.5000 
     26 O          -0.2420  -23.0355  -43.5517 O.2       9 UNK        -0.5000 
     27 CA          0.8847  -21.3908  -42.2216 C.3       9 UNK         0.1400 
     28 CB          1.6488  -22.0588  -41.0696 C.3       9 UNK        -0.1800 
     29 N           1.5232  -20.1150  -42.5483 N.am      9 UNK        -0.5000 
     30 C           1.0670  -19.2414  -43.4590 C.2       8 UNK         0.5000 
     31 O           0.0595  -19.4263  -44.1380 O.2       8 UNK        -0.5000 
     32 CA          1.8748  -17.9512  -43.6692 C.3       8 UNK         0.1400 
     33 CB          1.3513  -16.8816  -42.7067 C.3       8 UNK        -0.1800 
     34 N           3.3140  -18.0978  -43.4578 N.am      8 UNK        -0.5000 
     35 C           4.1167  -19.0098  -44.0264 C.2       7 UNK         0.5000 
     36 O           3.7432  -19.8349  -44.8613 O.2       7 UNK        -0.5000 
     37 CA          5.5725  -19.0524  -43.5195 C.3       7 UNK         0.1400 
     38 CB          6.4927  -18.2874  -44.4828 C.3       7 UNK        -0.1800 
     39 N           5.7528  -18.5173  -42.1640 N.am      7 UNK        -0.5000 
     40 C           5.1308  -18.9430  -41.0538 C.2       6 UNK         0.5000 
     41 O           4.3206  -19.8716  -41.0358 O.2       6 UNK        -0.5000 
     42 CA          5.4158  -18.1732  -39.7488 C.3       6 UNK         0.1400 
     43 CB          6.7633  -17.4160  -39.7487 C.3       6 UNK        -0.1800 
     44 N           4.3123  -17.2701  -39.3998 N.am      6 UNK        -0.5000 
     45 C           3.8380  -16.2470  -40.1261 C.2       5 UNK         0.5000 
     46 O           4.2745  -15.9278  -41.2364 O.2       5 UNK        -0.5000 
     47 CA          2.6743  -15.4539  -39.5049 C.3       5 UNK         0.1400 
     48 CB          3.0884  -14.7726  -38.1877 C.3       5 UNK        -0.1800 
     49 N           2.2232  -14.4327  -40.4470 N.am      5 UNK        -0.5000 
     50 C           0.9618  -14.0246  -40.6271 C.2       4 UNK         0.5000 
     51 O           0.0116  -14.4733  -39.9826 O.2       4 UNK        -0.5000 
     52 CA          0.7244  -12.9182  -41.6808 C.3       4 UNK         0.1400 
     53 CB          1.9390  -12.6528  -42.5967 C.3       4 UNK        -0.1800 
     54 N          -0.4417  -13.2127  -42.5158 N.am      4 UNK        -0.5000 
     55 C          -1.7028  -12.8461  -42.2426 C.2       3 UNK         0.5000 
     56 O          -2.0204  -12.2112  -41.2353 O.2       3 UNK        -0.5000 
     57 CA         -2.8034  -13.1987  -43.2695 C.3       3 UNK         0.1400 
     58 CB         -3.2596  -11.9357  -44.0180 C.3       3 UNK        -0.1800 
     59 N          -2.4026  -14.1987  -44.2597 N.am      3 UNK        -0.5000 
     60 C          -2.3347  -15.5172  -44.0373 C.2       2 UNK         0.5000 
     61 O          -2.6702  -16.0458  -42.9776 O.2       2 UNK        -0.5000 
     62 CA         -1.7903  -16.4010  -45.1827 C.3       2 UNK         0.1400 
     63 CB         -2.9507  -17.0676  -45.9379 C.3       2 UNK        -0.1800 
     64 N          -0.9100  -15.7384  -46.1581 N.am      2 UNK        -0.5000 
     65 C           0.1882  -15.0219  -45.8787 C.2       1 UNK         0.5000 
     66 O           0.5193  -14.7151  -44.7342 O.2       1 UNK        -0.5000 
     67 C          -1.7582  -20.7917  -46.9776 C.2       11 UNK         0.5000 
     68 O          -2.6603  -21.1038  -47.7536 O.2       11 UNK        -0.5000 
     69 N          -1.9350  -20.6209  -45.6592 N.am      12 UNK        -0.5000 
     70 CA         -3.2028  -20.7593  -44.9423 C.3       12 UNK         0.1400 
     71 CB         -3.0251  -20.2889  -43.4920 C.3       12 UNK        -0.1800 
     72 C          -3.7767  -22.1857  -44.9857 C.2       12 UNK         0.5000 
     73 O          -4.9955  -22.3367  -45.0582 O.2       12 UNK        -0.5000 
     74 N          -2.9039  -23.2035  -45.0146 N.am      13 UNK        -0.5000 
     75 CA         -3.2701  -24.6096  -45.2208 C.3       13 UNK         0.1400 
     76 CB         -2.0290  -25.4916  -45.0184 C.3       13 UNK        -0.1800 
     77 C          -3.9089  -24.8835  -46.5999 C.2       13 UNK         0.5000 
     78 O          -4.6988  -25.8192  -46.7280 O.2       13 UNK        -0.5000 
     79 N          -3.5793  -24.0454  -47.5905 N.am      14 UNK        -0.5000 
     80 CA         -4.1578  -24.0323  -48.9339 C.3       14 UNK         0.1400 
     81 CB         -3.0081  -23.8393  -49.9350 C.3       14 UNK        -0.1800 
     82 C          -5.2142  -22.9181  -49.0976 C.2       14 UNK         0.5000 
     83 O          -5.6688  -22.6795  -50.2177 O.2       14 UNK        -0.5000 
     84 N          -5.5422  -22.2146  -48.0003 N.am      15 UNK        -0.5000 
     85 CA         -6.4385  -21.0554  -47.8894 C.3       15 UNK         0.1400 
     86 CB         -7.8955  -21.4911  -48.1464 C.3       15 UNK        -0.1800 
     87 C          -6.0344  -19.8443  -48.7621 C.2       15 UNK         0.5000 
     88 O          -6.8656  -18.9651  -48.9951 O.2       15 UNK        -0.5000 
     89 N          -4.7853  -19.8372  -49.2570 N.am      16 UNK        -0.5000 
     90 CA         -4.2432  -18.9696  -50.3091 C.3       16 UNK         0.1400 
     91 CB         -3.9684  -17.5576  -49.7543 C.3       16 UNK        -0.1800 
     92 C          -5.1050  -18.9639  -51.5959 C.2       16 UNK         0.5000 
     93 O          -5.2154  -17.9313  -52.2591 O.2       16 UNK        -0.5000 
     94 N          -5.7360  -20.1065  -51.9073 N.am      17 UNK        -0.5000 
     95 CA         -6.6912  -20.2407  -53.0038 C.3       17 UNK         0.1400 
     96 CB         -7.5358  -21.5060  -52.7907 C.3       17 UNK        -0.1800 
     97 C          -6.0125  -20.2580  -54.3838 C.2       17 UNK         0.5000 
     98 O          -4.8874  -20.7462  -54.5231 O.2       17 UNK        -0.5000 
     99 N          -6.7537  -19.7646  -55.3843 N.am      18 UNK        -0.5000 
    100 CA        -6.3607  -19.6465  -56.7922 C.3       18 UNK         0.1400 
    101 CB        -7.1878  -18.5192  -57.4336 C.3       18 UNK        -0.1800 
    102 C         -6.4799  -20.9602  -57.5967 C.2       18 UNK         0.5000 
    103 O         -6.3706  -20.9324  -58.8239 O.2       18 UNK        -0.5000 
    104 N         -6.6928  -22.0822  -56.9035 N.am      19 UNK        -0.5000 
    105 CA        -6.6837  -23.4357  -57.4480 C.3       19 UNK         0.1400 
    106 CB        -8.1111  -23.8385  -57.8653 C.3       19 UNK        -0.1800 
    107 C         -6.0553  -24.3848  -56.4124 C.2       19 UNK         0.5000 
    108 O         -6.5925  -25.4635  -56.1539 O.2       19 UNK        -0.5000 
    109 N         -4.9441  -23.9482  -55.8077 N.am      20 UNK        -0.5000 
    110 CA        -4.2181  -24.6674  -54.7664 C.3       20 UNK         0.1400 
    111 CB        -4.9256  -24.5056  -53.4037 C.3       20 UNK        -0.1800 
    112 C         -2.7590  -24.1887  -54.7782 C.2       20 UNK         0.5000 
    113 O         -2.0077  -24.5839  -55.6709 O.2       20 UNK        -0.5000 
    114 N         -2.3789  -23.3495  -53.8038 N.am      21 UNK        -0.5000 
    115 CA        -1.0490  -22.7420  -53.7055 C.3       21 UNK         0.1400 
    116 CB        -0.8495  -22.1642  -52.2969 C.3       21 UNK        -0.1800 
    117 C         -0.8031  -21.6707  -54.7846 C.2       21 UNK         0.5000 
    118 O          0.3349  -21.5130  -55.2287 O.2       21 UNK        -0.5000 
    119 N         -1.8744  -20.9895  -55.2045 N.am      22 UNK        -0.5000 
    120 CA        -1.9219  -20.1392  -56.3993 C.3       22 UNK         0.1400 
    121 C         -2.7793  -20.8192  -57.5034 C.2       22 UNK         0.5000 
    122 N         -2.8152  -20.2588  -58.7044 N.am      22 UNK        -0.7600 
    123 O         -3.4209  -21.8470  -57.2913 O.2       22 UNK        -0.5000 
    124 C124       -2.4342  -18.7141  -56.0611 C.3       23 UNK        -0.0398 
    125 S125       -1.2421  -17.7908  -55.0370 S.3       23 UNK        -0.2404 
    126 C126       -2.0544  -17.8503  -53.4130 C.3       23 UNK        -0.0205 
    127 H127        4.5633  -13.3574  -45.5626 H         1 UNK         0.0600 
    128 H128        5.4815  -14.7174  -46.2182 H         1 UNK         0.0600 
    129 H129        4.7303  -14.8436  -44.6234 H         1 UNK         0.0600 
    130 H130        2.5145  -13.1777  -46.4144 H         1 UNK         0.3000 
    131 H131        1.1595  -15.3905  -47.7418 H         1 UNK         0.0600 
    132 H132        1.1179  -12.8312  -48.4262 H         1 UNK         0.0800 
    133 H133       -0.0473  -12.6415  -47.1586 H         1 UNK         0.0800 
    134 H134        1.0308  -13.9234  -50.4285 H         1 UNK         0.0800 
    135 H135       -0.4272  -13.5673  -51.3139 H         1 UNK         0.0800 
    136 H136       -1.6740  -15.3455  -52.3892 H         1 UNK         0.1150 
    137 H137       -0.3231  -19.3894  -52.0113 H         1 UNK         0.1150 
    138 H138        1.4999  -16.3057  -49.6717 H         1 UNK         0.1150 
    139 H139        1.2213  -20.0181  -50.3201 H         1 UNK         0.0800 
    140 H140        2.5637  -18.9211  -50.5336 H         1 UNK         0.0800 
    141 H141       -0.6900  -18.6674  -48.4265 H         1 UNK         0.0800 
    142 H142       -0.1144  -18.5708  -46.7831 H         1 UNK         0.0800 
    143 H143       -0.2843  -21.1007  -48.4888 H         1 UNK         0.0600 
    144 H144        1.1809  -20.7073  -46.0235 H         1 UNK         0.3000 
    145 H145        1.5293  -24.1663  -45.2804 H         1 UNK         0.0600 
    146 H146        3.9407  -23.5555  -45.3963 H         1 UNK         0.0600 
    147 H147        3.2749  -23.7652  -47.0089 H         1 UNK         0.0600 
    148 H148        3.5563  -22.1454  -46.3833 H         1 UNK         0.0600 
    149 H149        2.5551  -21.7053  -44.1575 H         1 UNK         0.3000 
    150 H150       -0.1275  -21.1726  -41.8766 H         1 UNK         0.0600 
    151 H151        1.1797  -23.0009  -40.7830 H         1 UNK         0.0600 
    152 H152        1.6656  -21.4213  -40.1854 H         1 UNK         0.0600 
    153 H153        2.6819  -22.2749  -41.3449 H         1 UNK         0.0600 
    154 H154        2.3826  -19.9009  -42.0553 H         1 UNK         0.3000 
    155 H155        1.7170  -17.6171  -44.6959 H         1 UNK         0.0600 
    156 H156        1.4640  -17.1876  -41.6669 H         1 UNK         0.0600 
    157 H157        0.2923  -16.6826  -42.8689 H         1 UNK         0.0600 
    158 H158        1.8856  -15.9429  -42.8443 H         1 UNK         0.0600 
    159 H159        3.7313  -17.4631  -42.7882 H         1 UNK         0.3000 
    160 H160        5.8809  -20.0995  -43.5037 H         1 UNK         0.0600 
    161 H161        6.2429  -17.2260  -44.5175 H         1 UNK         0.0600 
    162 H162        6.4055  -18.6771  -45.4980 H         1 UNK         0.0600 
    163 H163        7.5384  -18.3792  -44.1890 H         1 UNK         0.0600 
    164 H164        6.3619  -17.7164  -42.0798 H         1 UNK         0.3000 
    165 H165        5.4650  -18.9243  -38.9590 H         1 UNK         0.0600 
    166 H166        6.7838  -16.5947  -40.4654 H         1 UNK         0.0600 
    167 H167        6.9687  -16.9945  -38.7647 H         1 UNK         0.0600 
    168 H168        7.5896  -18.0866  -39.9883 H         1 UNK         0.0600 
    169 H169        3.8620  -17.4736  -38.5185 H         1 UNK         0.3000 
    170 H170        1.8651  -16.1605  -39.3096 H         1 UNK         0.0600 
    171 H171        3.9235  -14.0872  -38.3371 H         1 UNK         0.0600 
    172 H172        2.2616  -14.2028  -37.7631 H         1 UNK         0.0600 
    173 H173        3.3916  -15.5033  -37.4373 H         1 UNK         0.0600 
    174 H174        2.9475  -14.0909  -41.0654 H         1 UNK         0.3000 
    175 H175        0.5385  -11.9977  -41.1240 H         1 UNK         0.0600 
    176 H176        2.7899  -12.2755  -42.0285 H         1 UNK         0.0600 
    177 H177        1.7030  -11.8993  -43.3484 H         1 UNK         0.0600 
    178 H178        2.2614  -13.5511  -43.1239 H         1 UNK         0.0600 
    179 H179       -0.2554  -13.7685  -43.3475 H         1 UNK         0.3000 
    180 H180       -3.6568  -13.5866  -42.7093 H         1 UNK         0.0600 
    181 H181       -4.0845  -12.1548  -44.6963 H         1 UNK         0.0600 
    182 H182       -2.4486  -11.5007  -44.6034 H         1 UNK         0.0600 
    183 H183       -3.6085  -11.1715  -43.3221 H         1 UNK         0.0600 
    184 H184       -2.0981  -13.8513  -45.1566 H         1 UNK         0.3000 
    185 H185       -1.2034  -17.1898  -44.7121 H         1 UNK         0.0600 
    186 H186       -2.5883  -17.8279  -46.6280 H         1 UNK         0.0600 
    187 H187       -3.6365  -17.5621  -45.2490 H         1 UNK         0.0600 
    188 H188       -3.5286  -16.3403  -46.5093 H         1 UNK         0.0600 
    189 H189       -1.1448  -15.8813  -47.1302 H         1 UNK         0.3000 
    190 H190       -1.1384  -20.3258  -45.0959 H         1 UNK         0.3000 
    191 H191       -3.9271  -20.1019  -45.4275 H         1 UNK         0.0600 
    192 H192       -3.9662  -20.3460  -42.9436 H         1 UNK         0.0600 
    193 H193       -2.6872  -19.2531  -43.4500 H         1 UNK         0.0600 
    194 H194       -2.2963  -20.9008  -42.9603 H         1 UNK         0.0600 
    195 H195       -1.9186  -23.0063  -44.8799 H         1 UNK         0.3000 
    196 H196       -4.0068  -24.8776  -44.4608 H         1 UNK         0.0600 
    197 H197       -1.2361  -25.2372  -45.7223 H         1 UNK         0.0600 
    198 H198       -1.6295  -25.3841  -44.0100 H         1 UNK         0.0600 
    199 H199       -2.2695  -26.5459  -45.1603 H         1 UNK         0.0600 
    200 H200       -2.9320  -23.2932  -47.3897 H         1 UNK         0.3000 
    201 H201       -4.6491  -24.9829  -49.1495 H         1 UNK         0.0600 
    202 H202       -3.3710  -23.8300  -50.9612 H         1 UNK         0.0600 
    203 H203       -2.4860  -22.8975  -49.7647 H         1 UNK         0.0600 
    204 H204       -2.2776  -24.6446  -49.8567 H         1 UNK         0.0600 
    205 H205       -5.1126  -22.4912  -47.1258 H         1 UNK         0.3000 
    206 H206       -6.3705  -20.7153  -46.8555 H         1 UNK         0.0600 
    207 H207       -8.1712  -22.3349  -47.5137 H         1 UNK         0.0600 
    208 H208       -8.5939  -20.6829  -47.9269 H         1 UNK         0.0600 
    209 H209       -8.0513  -21.7852  -49.1848 H         1 UNK         0.0600 
    210 H210       -4.1535  -20.5583  -48.9216 H         1 UNK         0.3000 
    211 H211       -3.2829  -19.4010  -50.5956 H         1 UNK         0.0600 
    212 H212       -3.2856  -17.5974  -48.9071 H         1 UNK         0.0600 
    213 H213       -4.8848  -17.0659  -49.4275 H         1 UNK         0.0600 
    214 H214       -3.5044  -16.9197  -50.5069 H         1 UNK         0.0600 
    215 H215       -5.6054  -20.9234  -51.3197 H         1 UNK         0.3000 
    216 H216       -7.3639  -19.3810  -52.9640 H         1 UNK         0.0600 
    217 H217       -8.2877  -21.6159  -53.5730 H         1 UNK         0.0600 
    218 H218       -8.0637  -21.4681  -51.8375 H         1 UNK         0.0600 
    219 H219       -6.9265  -22.4078  -52.7933 H         1 UNK         0.0600 
    220 H220       -7.6788  -19.4221  -55.1673 H         1 UNK         0.3000 
    221 H221       -5.3122  -19.3509  -56.8319 H         1 UNK         0.0600 
    222 H222       -7.0662  -17.5822  -56.8897 H         1 UNK         0.0600 
    223 H223       -8.2508  -18.7623  -57.4526 H         1 UNK         0.0600 
    224 H224       -6.8742  -18.3347  -58.4619 H         1 UNK         0.0600 
    225 H225       -6.7295  -22.0161  -55.8966 H         1 UNK         0.3000 
    226 H226       -6.0395  -23.4729  -58.3291 H         1 UNK         0.0600 
    227 H227       -8.5102  -23.1545  -58.6143 H         1 UNK         0.0600 
    228 H228       -8.1255  -24.8384  -58.3005 H         1 UNK         0.0600 
    229 H229       -8.7923  -23.8375  -57.0136 H         1 UNK         0.0600 
    230 H230       -4.5095  -23.0903  -56.1423 H         1 UNK         0.3000 
    231 H231       -4.2005  -25.7299  -55.0182 H         1 UNK         0.0600 
    232 H232       -4.9525  -23.4667  -53.0761 H         1 UNK         0.0600 
    233 H233       -4.4194  -25.0890  -52.6344 H         1 UNK         0.0600 
    234 H234       -5.9539  -24.8643  -53.4447 H         1 UNK         0.0600 
    235 H235       -3.0643  -23.0616  -53.1217 H         1 UNK         0.3000 
    236 H236       -0.3040  -23.5271  -53.8527 H         1 UNK         0.0600 
    237 H237       -0.8592  -22.9553  -51.5485 H         1 UNK         0.0600 
    238 H238        0.1173  -21.6666  -52.2146 H         1 UNK         0.0600 
    239 H239       -1.6241  -21.4406  -52.0400 H         1 UNK         0.0600 
    240 H240       -2.7837  -21.2148  -54.8178 H         1 UNK         0.3000 
    241 H241       -0.9208  -20.0467  -56.8242 H         1 UNK         0.0600 
    242 H242       -2.2838  -19.4317  -58.9273 H         1 UNK         0.3800 
    243 H243       -3.3787  -20.6916  -59.4199 H         1 UNK         0.3800 
    244 H244       -3.4003  -18.7545  -55.5573 H         1 UNK         0.0800 
    245 H245       -2.5909  -18.1294  -56.9685 H         1 UNK         0.0800 
    246 H246       -2.4099  -18.8628  -53.2159 H         1 UNK         0.0800 
    247 H247       -2.9335  -17.2049  -53.4270 H         1 UNK         0.0800 
@<TRIPOS>BOND
     1    1    2 1    
     2    1  127 1    
     3    1  128 1    
     4    1  129 1    
     5    2    3 2    
     6    2    4 am   BACKBONE|DICT|INTERRES
     7    4    5 1    
     8    4  130 1    
     9    5    6 1    
    10    5   65 1    
    11    5  131 1    
    12    6    7 1    
    13    6  132 1    
    14    6  133 1    
    15    7    8 1    
    16    8    9 1    
    17    8  134 1    
    18    8  135 1    
    19    9   10 ar   
    20    9   14 ar   
    21   10   11 ar   
    22   10  136 1    
    23   11   12 ar   
    24   11  126 1    
    25   12   13 ar   
    26   12  137 1    
    27   13   14 ar   
    28   13   15 1    
    29   14  138 1    
    30   15   16 1    
    31   15  139 1    
    32   15  140 1    
    33   16   17 1    
    34   17   18 1    
    35   17  141 1    
    36   17  142 1    
    37   18   19 1    
    38   18   67 1    
    39   18  143 1    
    40   19   20 am   BACKBONE|DICT|INTERRES
    41   19  144 1    
    42   20   21 2    
    43   20   22 1    
    44   22   23 1    
    45   22   24 1    
    46   22  145 1    
    47   23  146 1    
    48   23  147 1    
    49   23  148 1    
    50   24   25 am   BACKBONE|DICT|INTERRES
    51   24  149 1    
    52   25   26 2    
    53   25   27 1    
    54   27   28 1    
    55   27   29 1    
    56   27  150 1    
    57   28  151 1    
    58   28  152 1    
    59   28  153 1    
    60   29   30 am   BACKBONE|DICT|INTERRES
    61   29  154 1    
    62   30   31 2    
    63   30   32 1    
    64   32   33 1    
    65   32   34 1    
    66   32  155 1    
    67   33  156 1    
    68   33  157 1    
    69   33  158 1    
    70   34   35 am   BACKBONE|DICT|INTERRES
    71   34  159 1    
    72   35   36 2    
    73   35   37 1    
    74   37   38 1    
    75   37   39 1    
    76   37  160 1    
    77   38  161 1    
    78   38  162 1    
    79   38  163 1    
    80   39   40 am   BACKBONE|DICT|INTERRES
    81   39  164 1    
    82   40   41 2    
    83   40   42 1    
    84   42   43 1    
    85   42   44 1    
    86   42  165 1    
    87   43  166 1    
    88   43  167 1    
    89   43  168 1    
    90   44   45 am   BACKBONE|DICT|INTERRES
    91   44  169 1    
    92   45   46 2    
    93   45   47 1    
    94   47   48 1    
    95   47   49 1    
    96   47  170 1    
    97   48  171 1    
    98   48  172 1    
    99   48  173 1    
   100   49   50 am   BACKBONE|DICT|INTERRES
   101   49  174 1    
   102   50   51 2    
   103   50   52 1    
   104   52   53 1    
   105   52   54 1    
   106   52  175 1    
   107   53  176 1    
   108   53  177 1    
   109   53  178 1    
   110   54   55 am   BACKBONE|DICT|INTERRES
   111   54  179 1    
   112   55   56 2    
   113   55   57 1    
   114   57   58 1    
   115   57   59 1    
   116   57  180 1    
   117   58  181 1    
   118   58  182 1    
   119   58  183 1    
   120   59   60 am   BACKBONE|DICT|INTERRES
   121   59  184 1    
   122   60   61 2    
   123   60   62 1    
   124   62   63 1    
   125   62   64 1    
   126   62  185 1    
   127   63  186 1    
   128   63  187 1    
   129   63  188 1    
   130   64   65 am   BACKBONE|DICT|INTERRES
   131   64  189 1    
   132   65   66 2    
   133   67   68 2    
   134   67   69 am   BACKBONE|DICT|INTERRES
   135   69   70 1    
   136   69  190 1    
   137   70   71 1    
   138   70   72 1    
   139   70  191 1    
   140   71  192 1    
   141   71  193 1    
   142   71  194 1    
   143   72   73 2    
   144   72   74 am   BACKBONE|DICT|INTERRES
   145   74   75 1    
   146   74  195 1    
   147   75   76 1    
   148   75   77 1    
   149   75  196 1    
   150   76  197 1    
   151   76  198 1    
   152   76  199 1    
   153   77   78 2    
   154   77   79 am   BACKBONE|DICT|INTERRES
   155   79   80 1    
   156   79  200 1    
   157   80   81 1    
   158   80   82 1    
   159   80  201 1    
   160   81  202 1    
   161   81  203 1    
   162   81  204 1    
   163   82   83 2    
   164   82   84 am   BACKBONE|DICT|INTERRES
   165   84   85 1    
   166   84  205 1    
   167   85   86 1    
   168   85   87 1    
   169   85  206 1    
   170   86  207 1    
   171   86  208 1    
   172   86  209 1    
   173   87   88 2    
   174   87   89 am   BACKBONE|DICT|INTERRES
   175   89   90 1    
   176   89  210 1    
   177   90   91 1    
   178   90   92 1    
   179   90  211 1    
   180   91  212 1    
   181   91  213 1    
   182   91  214 1    
   183   92   93 2    
   184   92   94 am   BACKBONE|DICT|INTERRES
   185   94   95 1    
   186   94  215 1    
   187   95   96 1    
   188   95   97 1    
   189   95  216 1    
   190   96  217 1    
   191   96  218 1    
   192   96  219 1    
   193   97   98 2    
   194   97   99 am   BACKBONE|DICT|INTERRES
   195   99  100 1    
   196   99  220 1    
   197  100  101 1    
   198  100  102 1    
   199  100  221 1    
   200  101  222 1    
   201  101  223 1    
   202  101  224 1    
   203  102  103 2    
   204  102  104 am   BACKBONE|DICT|INTERRES
   205  104  105 1    
   206  104  225 1    
   207  105  106 1    
   208  105  107 1    
   209  105  226 1    
   210  106  227 1    
   211  106  228 1    
   212  106  229 1    
   213  107  108 2    
   214  107  109 am   BACKBONE|DICT|INTERRES
   215  109  110 1    
   216  109  230 1    
   217  110  111 1    
   218  110  112 1    
   219  110  231 1    
   220  111  232 1    
   221  111  233 1    
   222  111  234 1    
   223  112  113 2    
   224  112  114 am   BACKBONE|DICT|INTERRES
   225  114  115 1    
   226  114  235 1    
   227  115  116 1    
   228  115  117 1    
   229  115  236 1    
   230  116  237 1    
   231  116  238 1    
   232  116  239 1    
   233  117  118 2    
   234  117  119 am   BACKBONE|DICT|INTERRES
   235  119  120 1    
   236  119  240 1    
   237  120  121 1    
   238  120  124 1    
   239  120  241 1    
   240  121  122 am   BACKBONE|DICT|INTERRES
   241  121  123 2    
   242  122  242 1    
   243  122  243 1    
   244  124  125 1    
   245  124  244 1    
   246  124  245 1    
   247  125  126 1    
   248  126  246 1    
   249  126  247 1    
@<TRIPOS>SUBSTRUCTURE
     1 UNK         1 GROUP             0       ****    0 ROOT    
