@<TRIPOS>MOLECULE
3R540
247   249    1
SMALL
USER_CHARGES


@<TRIPOS>ATOM
      1 CA          7.3400   -9.9144  -45.0223 C.3       0 UNK        -0.1800 
      2 C           6.1342  -10.7838  -45.3493 C.2       0 UNK         0.5000 
      3 O           5.1132  -10.6937  -44.6696 O.2       0 UNK        -0.5000 
      4 N           6.2488  -11.6211  -46.3887 N.am      1 UNK        -0.5000 
      5 CA          5.1939  -12.5263  -46.8669 C.3       1 UNK         0.1400 
      6 C6          5.8053  -13.6902  -47.6865 C.3       23 UNK        -0.0398 
      7 S7          4.7461  -15.1767  -47.7513 S.3       23 UNK        -0.2404 
      8 C8          4.4628  -15.3016  -49.5470 C.3       23 UNK        -0.0205 
      9 C9          3.7249  -16.5739  -49.9454 C.ar      23 UNK        -0.0193 
     10 C10         2.5707  -16.5028  -50.7334 C.ar      23 UNK        -0.1150 
     11 C11         1.9259  -17.6705  -51.1532 C.ar      23 UNK        -0.0193 
     12 C12         2.4355  -18.9137  -50.7737 C.ar      23 UNK        -0.1150 
     13 C13         3.5777  -18.9999  -49.9751 C.ar      23 UNK        -0.0193 
     14 C14         4.2230  -17.8274  -49.5724 C.ar      23 UNK        -0.1150 
     15 C15         4.1202  -20.3577  -49.5572 C.3       23 UNK        -0.0205 
     16 S16         3.3141  -20.9633  -48.0422 S.3       23 UNK        -0.2404 
     17 C17         1.6733  -21.4546  -48.6748 C.3       23 UNK        -0.0398 
     18 CA          1.0497  -22.5826  -47.8242 C.3       11 UNK         0.1400 
     19 N           0.6672  -22.1273  -46.4849 N.am      11 UNK        -0.5000 
     20 C           0.3000  -22.9405  -45.4858 C.2       10 UNK         0.5000 
     21 O           0.2849  -24.1694  -45.5752 O.2       10 UNK        -0.5000 
     22 CA         -0.1730  -22.2666  -44.1850 C.3       10 UNK         0.1400 
     23 CB          1.0208  -21.7593  -43.3623 C.3       10 UNK        -0.1800 
     24 N          -1.1147  -21.1705  -44.4267 N.am      10 UNK        -0.5000 
     25 C          -2.3325  -21.3317  -44.9642 C.2       9 UNK         0.5000 
     26 O          -2.7937  -22.4253  -45.2846 O.2       9 UNK        -0.5000 
     27 CA         -3.1733  -20.0686  -45.2174 C.3       9 UNK         0.1400 
     28 CB         -3.8838  -19.6197  -43.9326 C.3       9 UNK        -0.1800 
     29 N          -2.3952  -18.9608  -45.7672 N.am      9 UNK        -0.5000 
     30 C          -1.7817  -18.9783  -46.9595 C.2       8 UNK         0.5000 
     31 O          -1.8335  -19.9241  -47.7437 O.2       8 UNK        -0.5000 
     32 CA         -0.9134  -17.7575  -47.3067 C.3       8 UNK         0.1400 
     33 CB         -1.7884  -16.5652  -47.7222 C.3       8 UNK        -0.1800 
     34 N          -0.0356  -17.3636  -46.2062 N.am      8 UNK        -0.5000 
     35 C           0.8858  -18.1578  -45.6416 C.2       7 UNK         0.5000 
     36 O           1.1231  -19.3080  -46.0072 O.2       7 UNK        -0.5000 
     37 CA          1.6145  -17.5919  -44.4134 C.3       7 UNK         0.1400 
     38 CB          2.7353  -16.6303  -44.8345 C.3       7 UNK        -0.1800 
     39 N           0.6858  -16.9165  -43.5059 N.am      7 UNK        -0.5000 
     40 C          -0.2440  -17.5500  -42.7758 C.2       6 UNK         0.5000 
     41 O          -0.3886  -18.7724  -42.7640 O.2       6 UNK        -0.5000 
     42 CA         -1.1959  -16.6667  -41.9490 C.3       6 UNK         0.1400 
     43 CB         -0.5344  -16.2406  -40.6299 C.3       6 UNK        -0.1800 
     44 N          -1.6376  -15.4773  -42.6785 N.am      6 UNK        -0.5000 
     45 C          -2.4232  -15.5056  -43.7644 C.2       5 UNK         0.5000 
     46 O          -2.8823  -16.5389  -44.2483 O.2       5 UNK        -0.5000 
     47 CA         -2.7109  -14.1569  -44.4505 C.3       5 UNK         0.1400 
     48 CB         -3.9369  -13.4818  -43.8185 C.3       5 UNK        -0.1800 
     49 N          -1.5796  -13.2254  -44.4280 N.am      5 UNK        -0.5000 
     50 C          -0.3696  -13.4699  -44.9469 C.2       4 UNK         0.5000 
     51 O          -0.0573  -14.5350  -45.4827 O.2       4 UNK        -0.5000 
     52 CA          0.6509  -12.3233  -44.8646 C.3       4 UNK         0.1400 
     53 CB          2.0758  -12.8475  -44.6316 C.3       4 UNK        -0.1800 
     54 N           0.6146  -11.5351  -46.0945 N.am      4 UNK        -0.5000 
     55 C          -0.3142  -10.6079  -46.3712 C.2       3 UNK         0.5000 
     56 O          -1.1986  -10.2873  -45.5742 O.2       3 UNK        -0.5000 
     57 CA         -0.2697   -9.9453  -47.7676 C.3       3 UNK         0.1400 
     58 CB         -0.8525   -8.5159  -47.7708 C.3       3 UNK        -0.1800 
     59 N           1.0523   -9.9760  -48.4042 N.am      3 UNK        -0.5000 
     60 C           2.1740   -9.3739  -47.9846 C.2       2 UNK         0.5000 
     61 O           2.2504   -8.6544  -46.9868 O.2       2 UNK        -0.5000 
     62 CA          3.4404   -9.6685  -48.8126 C.3       2 UNK         0.1400 
     63 CB          4.1772   -8.3733  -49.1915 C.3       2 UNK        -0.1800 
     64 N           4.3635  -10.5510  -48.0987 N.am      2 UNK        -0.5000 
     65 C           4.0832  -11.7849  -47.6520 C.2       1 UNK         0.5000 
     66 O           2.9962  -12.3348  -47.8361 O.2       1 UNK        -0.5000 
     67 C          -0.1325  -23.2454  -48.5577 C.2       11 UNK         0.5000 
     68 O           0.0569  -24.2904  -49.1810 O.2       11 UNK        -0.5000 
     69 N          -1.3359  -22.6695  -48.4309 N.am      12 UNK        -0.5000 
     70 CA         -2.5701  -23.2367  -48.9656 C.3       12 UNK         0.1400 
     71 CB         -3.7190  -22.2412  -48.8089 C.3       12 UNK        -0.1800 
     72 C          -2.9362  -24.5829  -48.3236 C.2       12 UNK         0.5000 
     73 O          -3.2955  -25.5064  -49.0485 O.2       12 UNK        -0.5000 
     74 N          -2.7979  -24.6971  -46.9956 N.am      13 UNK        -0.5000 
     75 CA         -3.0227  -25.9350  -46.2469 C.3       13 UNK         0.1400 
     76 CB         -2.9231  -25.6608  -44.7390 C.3       13 UNK        -0.1800 
     77 C          -2.0651  -27.0659  -46.6640 C.2       13 UNK         0.5000 
     78 O          -2.5035  -28.2089  -46.7960 O.2       13 UNK        -0.5000 
     79 N          -0.7940  -26.7210  -46.9155 N.am      14 UNK        -0.5000 
     80 CA          0.2196  -27.6326  -47.4507 C.3       14 UNK         0.1400 
     81 CB          1.6030  -26.9718  -47.3539 C.3       14 UNK        -0.1800 
     82 C          -0.0796  -28.0781  -48.8971 C.2       14 UNK         0.5000 
     83 O           0.1495  -29.2401  -49.2342 O.2       14 UNK        -0.5000 
     84 N          -0.6069  -27.1577  -49.7156 N.am      15 UNK        -0.5000 
     85 CA         -1.0248  -27.3999  -51.0993 C.3       15 UNK         0.1400 
     86 CB         -1.0809  -26.0518  -51.8369 C.3       15 UNK        -0.1800 
     87 C          -2.3789  -28.1316  -51.2260 C.2       15 UNK         0.5000 
     88 O          -2.7059  -28.5915  -52.3207 O.2       15 UNK        -0.5000 
     89 N          -3.1430  -28.2023  -50.1257 N.am      16 UNK        -0.5000 
     90 CA         -4.5296  -28.6714  -50.0198 C.3       16 UNK         0.1400 
     91 CB         -4.6434  -30.1725  -50.3591 C.3       16 UNK        -0.1800 
     92 C          -5.5100  -27.7808  -50.8168 C.2       16 UNK         0.5000 
     93 O          -6.4119  -28.2856  -51.4887 O.2       16 UNK        -0.5000 
     94 N          -5.2992  -26.4641  -50.7246 N.am      17 UNK        -0.5000 
     95 CA         -6.0724  -25.4047  -51.3646 C.3       17 UNK         0.1400 
     96 CB         -5.1080  -24.5879  -52.2431 C.3       17 UNK        -0.1800 
     97 C          -6.7260  -24.5024  -50.3009 C.2       17 UNK         0.5000 
     98 O          -6.4652  -24.6535  -49.1045 O.2       17 UNK        -0.5000 
     99 N          -7.5568  -23.5587  -50.7600 N.am      18 UNK        -0.5000 
    100 CA        -8.1220  -22.4860  -49.9404 C.3       18 UNK         0.1400 
    101 CB        -9.3630  -21.9230  -50.6502 C.3       18 UNK        -0.1800 
    102 C         -7.0891  -21.3660  -49.7256 C.2       18 UNK         0.5000 
    103 O         -6.2782  -21.1076  -50.6184 O.2       18 UNK        -0.5000 
    104 N         -7.1621  -20.6768  -48.5786 N.am      19 UNK        -0.5000 
    105 CA        -6.2653  -19.5706  -48.2125 C.3       19 UNK         0.1400 
    106 CB        -6.5756  -19.1146  -46.7791 C.3       19 UNK        -0.1800 
    107 C         -6.3171  -18.3768  -49.1869 C.2       19 UNK         0.5000 
    108 O         -5.3024  -17.7095  -49.3836 O.2       19 UNK        -0.5000 
    109 N         -7.4851  -18.1621  -49.8087 N.am      20 UNK        -0.5000 
    110 CA        -7.7034  -17.1668  -50.8589 C.3       20 UNK         0.1400 
    111 CB        -9.2149  -16.9697  -51.0508 C.3       20 UNK        -0.1800 
    112 C         -7.0359  -17.5400  -52.1984 C.2       20 UNK         0.5000 
    113 O         -6.6895  -16.6420  -52.9666 O.2       20 UNK        -0.5000 
    114 N         -6.8648  -18.8450  -52.4574 N.am      21 UNK        -0.5000 
    115 CA        -6.1663  -19.3685  -53.6330 C.3       21 UNK         0.1400 
    116 CB        -6.6921  -20.7758  -53.9590 C.3       21 UNK        -0.1800 
    117 C         -4.6395  -19.3853  -53.4326 C.2       21 UNK         0.5000 
    118 O         -3.9043  -19.2935  -54.4159 O.2       21 UNK        -0.5000 
    119 N         -4.1949  -19.4785  -52.1704 N.am      22 UNK        -0.5000 
    120 CA        -2.7868  -19.4374  -51.7363 C.3       22 UNK         0.1400 
    121 C         -1.9735  -20.7338  -52.0507 C.2       22 UNK         0.5000 
    122 N         -2.6110  -21.8306  -52.4427 N.am      22 UNK        -0.7600 
    123 O         -0.7540  -20.7649  -51.9181 O.2       22 UNK        -0.5000 
    124 C124       -2.0791  -18.1249  -52.1886 C.3       23 UNK        -0.0398 
    125 S125       -0.8188  -17.5416  -51.0085 S.3       23 UNK        -0.2404 
    126 C126        0.6845  -17.6049  -52.0258 C.3       23 UNK        -0.0205 
    127 H127        7.0720   -8.8601  -45.0924 H         1 UNK         0.0600 
    128 H128        8.1714  -10.1000  -45.7027 H         1 UNK         0.0600 
    129 H129        7.6813  -10.1135  -44.0065 H         1 UNK         0.0600 
    130 H130        7.1184  -11.6484  -46.9029 H         1 UNK         0.3000 
    131 H131        4.7225  -12.9583  -45.9823 H         1 UNK         0.0600 
    132 H132        6.0745  -13.3614  -48.6919 H         1 UNK         0.0800 
    133 H133        6.7404  -14.0118  -47.2254 H         1 UNK         0.0800 
    134 H134        5.4218  -15.2855  -50.0665 H         1 UNK         0.0800 
    135 H135        3.9131  -14.4176  -49.8748 H         1 UNK         0.0800 
    136 H136        2.1788  -15.5407  -51.0322 H         1 UNK         0.1150 
    137 H137        1.9335  -19.8146  -51.0979 H         1 UNK         0.1150 
    138 H138        5.1157  -17.8891  -48.9659 H         1 UNK         0.1150 
    139 H139        3.9972  -21.0824  -50.3635 H         1 UNK         0.0800 
    140 H140        5.1939  -20.2878  -49.3765 H         1 UNK         0.0800 
    141 H141        1.7893  -21.7842  -49.7089 H         1 UNK         0.0800 
    142 H142        1.0209  -20.5792  -48.6988 H         1 UNK         0.0800 
    143 H143        1.8059  -23.3606  -47.6969 H         1 UNK         0.0600 
    144 H144        0.6957  -21.1227  -46.3227 H         1 UNK         0.3000 
    145 H145       -0.6908  -23.0235  -43.5922 H         1 UNK         0.0600 
    146 H146        0.6956  -21.3622  -42.4007 H         1 UNK         0.0600 
    147 H147        1.7260  -22.5662  -43.1595 H         1 UNK         0.0600 
    148 H148        1.5648  -20.9708  -43.8824 H         1 UNK         0.0600 
    149 H149       -0.8147  -20.2415  -44.1510 H         1 UNK         0.3000 
    150 H150       -3.9383  -20.3272  -45.9511 H         1 UNK         0.0600 
    151 H151       -4.4771  -20.4312  -43.5094 H         1 UNK         0.0600 
    152 H152       -4.5625  -18.7893  -44.1280 H         1 UNK         0.0600 
    153 H153       -3.1726  -19.2983  -43.1710 H         1 UNK         0.0600 
    154 H154       -2.3375  -18.1221  -45.1959 H         1 UNK         0.3000 
    155 H155       -0.2749  -18.0319  -48.1483 H         1 UNK         0.0600 
    156 H156       -2.4156  -16.2195  -46.9021 H         1 UNK         0.0600 
    157 H157       -1.1779  -15.7261  -48.0563 H         1 UNK         0.0600 
    158 H158       -2.4523  -16.8357  -48.5444 H         1 UNK         0.0600 
    159 H159       -0.1371  -16.4138  -45.8584 H         1 UNK         0.3000 
    160 H160        2.0697  -18.4261  -43.8753 H         1 UNK         0.0600 
    161 H161        2.3545  -15.8064  -45.4373 H         1 UNK         0.0600 
    162 H162        3.4827  -17.1496  -45.4358 H         1 UNK         0.0600 
    163 H163        3.2471  -16.2092  -43.9693 H         1 UNK         0.0600 
    164 H164        0.6957  -15.9076  -43.5135 H         1 UNK         0.3000 
    165 H165       -2.0784  -17.2640  -41.7098 H         1 UNK         0.0600 
    166 H166       -1.2300  -15.6832  -40.0023 H         1 UNK         0.0600 
    167 H167       -0.2089  -17.1110  -40.0585 H         1 UNK         0.0600 
    168 H168        0.3415  -15.6134  -40.8003 H         1 UNK         0.0600 
    169 H169       -1.3046  -14.5840  -42.3476 H         1 UNK         0.3000 
    170 H170       -2.9415  -14.3634  -45.4969 H         1 UNK         0.0600 
    171 H171       -4.8032  -14.1445  -43.8422 H         1 UNK         0.0600 
    172 H172       -3.7570  -13.2131  -42.7768 H         1 UNK         0.0600 
    173 H173       -4.2091  -12.5742  -44.3576 H         1 UNK         0.0600 
    174 H174       -1.7636  -12.3036  -44.0563 H         1 UNK         0.3000 
    175 H175        0.3946  -11.6843  -44.0168 H         1 UNK         0.0600 
    176 H176        2.4166  -13.4683  -45.4596 H         1 UNK         0.0600 
    177 H177        2.7797  -12.0241  -44.5177 H         1 UNK         0.0600 
    178 H178        2.1295  -13.4504  -43.7245 H         1 UNK         0.0600 
    179 H179        1.3032  -11.7718  -46.8016 H         1 UNK         0.3000 
    180 H180       -0.9153  -10.5570  -48.3993 H         1 UNK         0.0600 
    181 H181       -0.3113   -7.8550  -47.0934 H         1 UNK         0.0600 
    182 H182       -1.8970   -8.5178  -47.4571 H         1 UNK         0.0600 
    183 H183       -0.8171   -8.0772  -48.7680 H         1 UNK         0.0600 
    184 H184        1.1215  -10.5830  -49.2095 H         1 UNK         0.3000 
    185 H185        3.1491  -10.1703  -49.7377 H         1 UNK         0.0600 
    186 H186        3.5150   -7.6906  -49.7254 H         1 UNK         0.0600 
    187 H187        4.5499   -7.8478  -48.3113 H         1 UNK         0.0600 
    188 H188        5.0261   -8.5783  -49.8441 H         1 UNK         0.0600 
    189 H189        5.2676  -10.1640  -47.8732 H         1 UNK         0.3000 
    190 H190       -1.4186  -21.7770  -47.9509 H         1 UNK         0.3000 
    191 H191       -2.4194  -23.4094  -50.0325 H         1 UNK         0.0600 
    192 H192       -3.8913  -21.9803  -47.7655 H         1 UNK         0.0600 
    193 H193       -4.6397  -22.6706  -49.1955 H         1 UNK         0.0600 
    194 H194       -3.5296  -21.3245  -49.3648 H         1 UNK         0.0600 
    195 H195       -2.5577  -23.8728  -46.4502 H         1 UNK         0.3000 
    196 H196       -4.0398  -26.2686  -46.4631 H         1 UNK         0.0600 
    197 H197       -3.0933  -26.5715  -44.1636 H         1 UNK         0.0600 
    198 H198       -3.6695  -24.9324  -44.4219 H         1 UNK         0.0600 
    199 H199       -1.9416  -25.2754  -44.4626 H         1 UNK         0.0600 
    200 H200       -0.5063  -25.7639  -46.7421 H         1 UNK         0.3000 
    201 H201        0.2288  -28.5271  -46.8245 H         1 UNK         0.0600 
    202 H202        1.8421  -26.7076  -46.3236 H         1 UNK         0.0600 
    203 H203        1.6603  -26.0627  -47.9525 H         1 UNK         0.0600 
    204 H204        2.3833  -27.6470  -47.7071 H         1 UNK         0.0600 
    205 H205       -0.7057  -26.2067  -49.3757 H         1 UNK         0.3000 
    206 H206       -0.2704  -28.0218  -51.5853 H         1 UNK         0.0600 
    207 H207       -0.1202  -25.5383  -51.7963 H         1 UNK         0.0600 
    208 H208       -1.3316  -26.1900  -52.8893 H         1 UNK         0.0600 
    209 H209       -1.8327  -25.3903  -51.4060 H         1 UNK         0.0600 
    210 H210       -2.7869  -27.7353  -49.3017 H         1 UNK         0.3000 
    211 H211       -4.8031  -28.5539  -48.9703 H         1 UNK         0.0600 
    212 H212       -4.4524  -30.3690  -51.4142 H         1 UNK         0.0600 
    213 H213       -5.6430  -30.5464  -50.1349 H         1 UNK         0.0600 
    214 H214       -3.9380  -30.7625  -49.7740 H         1 UNK         0.0600 
    215 H215       -4.5684  -26.1374  -50.0920 H         1 UNK         0.3000 
    216 H216       -6.8623  -25.8258  -51.9895 H         1 UNK         0.0600 
    217 H217       -5.6337  -23.8122  -52.8001 H         1 UNK         0.0600 
    218 H218       -4.6060  -25.2243  -52.9722 H         1 UNK         0.0600 
    219 H219       -4.3391  -24.1005  -51.6425 H         1 UNK         0.0600 
    220 H220       -7.6965  -23.4749  -51.7558 H         1 UNK         0.3000 
    221 H221       -8.4213  -22.8898  -48.9708 H         1 UNK         0.0600 
    222 H222       -9.1141  -21.4969  -51.6233 H         1 UNK         0.0600 
    223 H223      -10.1125  -22.6990  -50.8066 H         1 UNK         0.0600 
    224 H224       -9.8316  -21.1363  -50.0575 H         1 UNK         0.0600 
    225 H225       -7.8616  -20.9319  -47.8962 H         1 UNK         0.3000 
    226 H226       -5.2428  -19.9496  -48.2291 H         1 UNK         0.0600 
    227 H227       -6.4660  -19.9353  -46.0701 H         1 UNK         0.0600 
    228 H228       -5.8926  -18.3235  -46.4656 H         1 UNK         0.0600 
    229 H229       -7.5912  -18.7270  -46.6906 H         1 UNK         0.0600 
    230 H230       -8.2678  -18.7544  -49.5743 H         1 UNK         0.3000 
    231 H231       -7.2738  -16.2187  -50.5282 H         1 UNK         0.0600 
    232 H232       -9.4168  -16.2132  -51.8103 H         1 UNK         0.0600 
    233 H233       -9.6898  -16.6362  -50.1279 H         1 UNK         0.0600 
    234 H234       -9.7045  -17.8916  -51.3674 H         1 UNK         0.0600 
    235 H235       -7.1156  -19.5239  -51.7507 H         1 UNK         0.3000 
    236 H236       -6.3814  -18.7266  -54.4901 H         1 UNK         0.0600 
    237 H237       -7.7704  -20.7667  -54.1182 H         1 UNK         0.0600 
    238 H238       -6.2324  -21.1595  -54.8705 H         1 UNK         0.0600 
    239 H239       -6.4769  -21.4874  -53.1631 H         1 UNK         0.0600 
    240 H240       -4.8781  -19.6240  -51.4381 H         1 UNK         0.3000 
    241 H241       -2.8509  -19.4120  -50.6479 H         1 UNK         0.0600 
    242 H242       -3.6104  -21.8225  -52.5601 H         1 UNK         0.3800 
    243 H243       -2.0777  -22.6571  -52.6564 H         1 UNK         0.3800 
    244 H244       -1.6567  -18.2323  -53.1888 H         1 UNK         0.0800 
    245 H245       -2.8087  -17.3174  -52.2652 H         1 UNK         0.0800 
    246 H246        0.6542  -18.4783  -52.6791 H         1 UNK         0.0800 
    247 H247        0.7201  -16.7309  -52.6777 H         1 UNK         0.0800 
@<TRIPOS>BOND
     1    1    2 1    
     2    1  127 1    
     3    1  128 1    
     4    1  129 1    
     5    2    3 2    
     6    2    4 am   BACKBONE|DICT|INTERRES
     7    4    5 1    
     8    4  130 1    
     9    5    6 1    
    10    5   65 1    
    11    5  131 1    
    12    6    7 1    
    13    6  132 1    
    14    6  133 1    
    15    7    8 1    
    16    8    9 1    
    17    8  134 1    
    18    8  135 1    
    19    9   10 ar   
    20    9   14 ar   
    21   10   11 ar   
    22   10  136 1    
    23   11   12 ar   
    24   11  126 1    
    25   12   13 ar   
    26   12  137 1    
    27   13   14 ar   
    28   13   15 1    
    29   14  138 1    
    30   15   16 1    
    31   15  139 1    
    32   15  140 1    
    33   16   17 1    
    34   17   18 1    
    35   17  141 1    
    36   17  142 1    
    37   18   19 1    
    38   18   67 1    
    39   18  143 1    
    40   19   20 am   BACKBONE|DICT|INTERRES
    41   19  144 1    
    42   20   21 2    
    43   20   22 1    
    44   22   23 1    
    45   22   24 1    
    46   22  145 1    
    47   23  146 1    
    48   23  147 1    
    49   23  148 1    
    50   24   25 am   BACKBONE|DICT|INTERRES
    51   24  149 1    
    52   25   26 2    
    53   25   27 1    
    54   27   28 1    
    55   27   29 1    
    56   27  150 1    
    57   28  151 1    
    58   28  152 1    
    59   28  153 1    
    60   29   30 am   BACKBONE|DICT|INTERRES
    61   29  154 1    
    62   30   31 2    
    63   30   32 1    
    64   32   33 1    
    65   32   34 1    
    66   32  155 1    
    67   33  156 1    
    68   33  157 1    
    69   33  158 1    
    70   34   35 am   BACKBONE|DICT|INTERRES
    71   34  159 1    
    72   35   36 2    
    73   35   37 1    
    74   37   38 1    
    75   37   39 1    
    76   37  160 1    
    77   38  161 1    
    78   38  162 1    
    79   38  163 1    
    80   39   40 am   BACKBONE|DICT|INTERRES
    81   39  164 1    
    82   40   41 2    
    83   40   42 1    
    84   42   43 1    
    85   42   44 1    
    86   42  165 1    
    87   43  166 1    
    88   43  167 1    
    89   43  168 1    
    90   44   45 am   BACKBONE|DICT|INTERRES
    91   44  169 1    
    92   45   46 2    
    93   45   47 1    
    94   47   48 1    
    95   47   49 1    
    96   47  170 1    
    97   48  171 1    
    98   48  172 1    
    99   48  173 1    
   100   49   50 am   BACKBONE|DICT|INTERRES
   101   49  174 1    
   102   50   51 2    
   103   50   52 1    
   104   52   53 1    
   105   52   54 1    
   106   52  175 1    
   107   53  176 1    
   108   53  177 1    
   109   53  178 1    
   110   54   55 am   BACKBONE|DICT|INTERRES
   111   54  179 1    
   112   55   56 2    
   113   55   57 1    
   114   57   58 1    
   115   57   59 1    
   116   57  180 1    
   117   58  181 1    
   118   58  182 1    
   119   58  183 1    
   120   59   60 am   BACKBONE|DICT|INTERRES
   121   59  184 1    
   122   60   61 2    
   123   60   62 1    
   124   62   63 1    
   125   62   64 1    
   126   62  185 1    
   127   63  186 1    
   128   63  187 1    
   129   63  188 1    
   130   64   65 am   BACKBONE|DICT|INTERRES
   131   64  189 1    
   132   65   66 2    
   133   67   68 2    
   134   67   69 am   BACKBONE|DICT|INTERRES
   135   69   70 1    
   136   69  190 1    
   137   70   71 1    
   138   70   72 1    
   139   70  191 1    
   140   71  192 1    
   141   71  193 1    
   142   71  194 1    
   143   72   73 2    
   144   72   74 am   BACKBONE|DICT|INTERRES
   145   74   75 1    
   146   74  195 1    
   147   75   76 1    
   148   75   77 1    
   149   75  196 1    
   150   76  197 1    
   151   76  198 1    
   152   76  199 1    
   153   77   78 2    
   154   77   79 am   BACKBONE|DICT|INTERRES
   155   79   80 1    
   156   79  200 1    
   157   80   81 1    
   158   80   82 1    
   159   80  201 1    
   160   81  202 1    
   161   81  203 1    
   162   81  204 1    
   163   82   83 2    
   164   82   84 am   BACKBONE|DICT|INTERRES
   165   84   85 1    
   166   84  205 1    
   167   85   86 1    
   168   85   87 1    
   169   85  206 1    
   170   86  207 1    
   171   86  208 1    
   172   86  209 1    
   173   87   88 2    
   174   87   89 am   BACKBONE|DICT|INTERRES
   175   89   90 1    
   176   89  210 1    
   177   90   91 1    
   178   90   92 1    
   179   90  211 1    
   180   91  212 1    
   181   91  213 1    
   182   91  214 1    
   183   92   93 2    
   184   92   94 am   BACKBONE|DICT|INTERRES
   185   94   95 1    
   186   94  215 1    
   187   95   96 1    
   188   95   97 1    
   189   95  216 1    
   190   96  217 1    
   191   96  218 1    
   192   96  219 1    
   193   97   98 2    
   194   97   99 am   BACKBONE|DICT|INTERRES
   195   99  100 1    
   196   99  220 1    
   197  100  101 1    
   198  100  102 1    
   199  100  221 1    
   200  101  222 1    
   201  101  223 1    
   202  101  224 1    
   203  102  103 2    
   204  102  104 am   BACKBONE|DICT|INTERRES
   205  104  105 1    
   206  104  225 1    
   207  105  106 1    
   208  105  107 1    
   209  105  226 1    
   210  106  227 1    
   211  106  228 1    
   212  106  229 1    
   213  107  108 2    
   214  107  109 am   BACKBONE|DICT|INTERRES
   215  109  110 1    
   216  109  230 1    
   217  110  111 1    
   218  110  112 1    
   219  110  231 1    
   220  111  232 1    
   221  111  233 1    
   222  111  234 1    
   223  112  113 2    
   224  112  114 am   BACKBONE|DICT|INTERRES
   225  114  115 1    
   226  114  235 1    
   227  115  116 1    
   228  115  117 1    
   229  115  236 1    
   230  116  237 1    
   231  116  238 1    
   232  116  239 1    
   233  117  118 2    
   234  117  119 am   BACKBONE|DICT|INTERRES
   235  119  120 1    
   236  119  240 1    
   237  120  121 1    
   238  120  124 1    
   239  120  241 1    
   240  121  122 am   BACKBONE|DICT|INTERRES
   241  121  123 2    
   242  122  242 1    
   243  122  243 1    
   244  124  125 1    
   245  124  244 1    
   246  124  245 1    
   247  125  126 1    
   248  126  246 1    
   249  126  247 1    
@<TRIPOS>SUBSTRUCTURE
     1 UNK         1 GROUP             0       ****    0 ROOT    
