@<TRIPOS>MOLECULE
3R540
247   249    1
SMALL
USER_CHARGES


@<TRIPOS>ATOM
      1 CA          2.8781  -16.2281  -47.2482 C.3       0 UNK        -0.1800 
      2 C           2.3957  -14.9956  -46.4979 C.2       0 UNK         0.5000 
      3 O           3.0005  -14.6074  -45.4996 O.2       0 UNK        -0.5000 
      4 N           1.3176  -14.3666  -46.9827 N.am      1 UNK        -0.5000 
      5 CA          0.6241  -13.2402  -46.3377 C.3       1 UNK         0.1400 
      6 C6         -0.7041  -12.8817  -47.0495 C.3       23 UNK        -0.0398 
      7 S7         -1.8218  -14.3175  -47.1906 S.3       23 UNK        -0.2404 
      8 C8         -1.8844  -14.5680  -48.9908 C.3       23 UNK        -0.0205 
      9 C9         -2.2860  -15.9955  -49.3220 C.ar      23 UNK        -0.0193 
     10 C10        -3.6169  -16.4036  -49.1936 C.ar      23 UNK        -0.1150 
     11 C11        -3.9921  -17.7194  -49.4902 C.ar      23 UNK        -0.0193 
     12 C12        -3.0100  -18.6312  -49.8888 C.ar      23 UNK        -0.1150 
     13 C13        -1.6749  -18.2387  -50.0163 C.ar      23 UNK        -0.0193 
     14 C14        -1.3225  -16.9133  -49.7472 C.ar      23 UNK        -0.1150 
     15 C15        -0.6253  -19.2562  -50.4467 C.3       23 UNK        -0.0205 
     16 S16         0.8542  -19.3090  -49.3771 S.3       23 UNK        -0.2404 
     17 C17         0.1747  -19.3413  -47.6820 C.3       23 UNK        -0.0398 
     18 CA         -0.2063  -20.7579  -47.1813 C.3       11 UNK         0.1400 
     19 N           0.0641  -20.9222  -45.7497 N.am      11 UNK        -0.5000 
     20 C          -0.0037  -22.0818  -45.0815 C.2       10 UNK         0.5000 
     21 O          -0.2724  -23.1596  -45.6103 O.2       10 UNK        -0.5000 
     22 CA          0.2202  -22.0223  -43.5587 C.3       10 UNK         0.1400 
     23 CB          1.7179  -21.9635  -43.2241 C.3       10 UNK        -0.1800 
     24 N          -0.4737  -20.8971  -42.9298 N.am      10 UNK        -0.5000 
     25 C          -1.8066  -20.7527  -42.9065 C.2       9 UNK         0.5000 
     26 O          -2.5901  -21.5768  -43.3754 O.2       9 UNK        -0.5000 
     27 CA         -2.3603  -19.4500  -42.3042 C.3       9 UNK         0.1400 
     28 CB         -2.3887  -19.5210  -40.7703 C.3       9 UNK        -0.1800 
     29 N          -1.6129  -18.2674  -42.7273 N.am      9 UNK        -0.5000 
     30 C          -1.4936  -17.8480  -43.9959 C.2       8 UNK         0.5000 
     31 O          -2.0154  -18.4061  -44.9606 O.2       8 UNK        -0.5000 
     32 CA         -0.5906  -16.6235  -44.2201 C.3       8 UNK         0.1400 
     33 CB         -1.2969  -15.3547  -43.7086 C.3       8 UNK        -0.1800 
     34 N           0.7104  -16.7743  -43.5620 N.am      8 UNK        -0.5000 
     35 C           1.5758  -17.7779  -43.7755 C.2       7 UNK         0.5000 
     36 O           1.4052  -18.6602  -44.6139 O.2       7 UNK        -0.5000 
     37 CA          2.8040  -17.8592  -42.8526 C.3       7 UNK         0.1400 
     38 CB          3.9485  -16.9643  -43.3449 C.3       7 UNK        -0.1800 
     39 N           2.4700  -17.5201  -41.4718 N.am      7 UNK        -0.5000 
     40 C           1.7137  -18.2816  -40.6690 C.2       6 UNK         0.5000 
     41 O           1.2645  -19.3817  -40.9909 O.2       6 UNK        -0.5000 
     42 CA          1.3655  -17.6833  -39.2939 C.3       6 UNK         0.1400 
     43 CB          2.5070  -17.9182  -38.2935 C.3       6 UNK        -0.1800 
     44 N           1.0784  -16.2495  -39.3776 N.am      6 UNK        -0.5000 
     45 C           0.0072  -15.7334  -39.9972 C.2       5 UNK         0.5000 
     46 O          -0.8850  -16.4214  -40.4927 O.2       5 UNK        -0.5000 
     47 CA         -0.0525  -14.1976  -40.1227 C.3       5 UNK         0.1400 
     48 CB         -0.7592  -13.5846  -38.9049 C.3       5 UNK        -0.1800 
     49 N           1.2707  -13.5830  -40.2782 N.am      5 UNK        -0.5000 
     50 C           2.0638  -13.7550  -41.3441 C.2       4 UNK         0.5000 
     51 O           1.7450  -14.4216  -42.3292 O.2       4 UNK        -0.5000 
     52 CA          3.4691  -13.1475  -41.2580 C.3       4 UNK         0.1400 
     53 CB          4.3449  -14.0020  -40.3160 C.3       4 UNK        -0.1800 
     54 N           4.0702  -13.0887  -42.5909 N.am      4 UNK        -0.5000 
     55 C           5.2016  -12.4379  -42.8912 C.2       3 UNK         0.5000 
     56 O           5.8239  -11.7425  -42.0868 O.2       3 UNK        -0.5000 
     57 CA          5.7368  -12.5847  -44.3235 C.3       3 UNK         0.1400 
     58 CB          6.2429  -14.0121  -44.5893 C.3       3 UNK        -0.1800 
     59 N           4.7335  -12.2188  -45.3208 N.am      3 UNK        -0.5000 
     60 C           4.5500  -10.9693  -45.7733 C.2       2 UNK         0.5000 
     61 O           5.1824   -9.9971  -45.3579 O.2       2 UNK        -0.5000 
     62 CA          3.5168  -10.7545  -46.8984 C.3       2 UNK         0.1400 
     63 CB          4.2251  -10.6219  -48.2558 C.3       2 UNK        -0.1800 
     64 N           2.5288  -11.8273  -46.9902 N.am      2 UNK        -0.5000 
     65 C           1.4959  -11.9802  -46.1522 C.2       1 UNK         0.5000 
     66 O           1.2268  -11.1847  -45.2512 O.2       1 UNK        -0.5000 
     67 C          -1.6695  -21.1043  -47.5296 C.2       11 UNK         0.5000 
     68 O          -1.9092  -21.8043  -48.5120 O.2       11 UNK        -0.5000 
     69 N          -2.6142  -20.6376  -46.7006 N.am      12 UNK        -0.5000 
     70 CA         -4.0456  -20.9066  -46.8359 C.3       12 UNK         0.1400 
     71 CB         -4.8249  -19.9750  -45.8955 C.3       12 UNK        -0.1800 
     72 C          -4.4188  -22.3791  -46.5764 C.2       12 UNK         0.5000 
     73 O          -5.3414  -22.8868  -47.2144 O.2       12 UNK        -0.5000 
     74 N          -3.7087  -23.0360  -45.6481 N.am      13 UNK        -0.5000 
     75 CA         -3.8599  -24.4598  -45.3420 C.3       13 UNK         0.1400 
     76 CB         -3.1938  -24.7649  -43.9916 C.3       13 UNK        -0.1800 
     77 C          -3.2884  -25.3708  -46.4452 C.2       13 UNK         0.5000 
     78 O          -3.8198  -26.4602  -46.6674 O.2       13 UNK        -0.5000 
     79 N          -2.2202  -24.9144  -47.1113 N.am      14 UNK        -0.5000 
     80 CA         -1.6000  -25.5691  -48.2610 C.3       14 UNK         0.1400 
     81 CB         -0.2053  -24.9578  -48.4824 C.3       14 UNK        -0.1800 
     82 C          -2.4588  -25.4583  -49.5379 C.2       14 UNK         0.5000 
     83 O          -3.4271  -24.6975  -49.5890 O.2       14 UNK        -0.5000 
     84 N          -2.0657  -26.2164  -50.5695 N.am      15 UNK        -0.5000 
     85 CA         -2.7221  -26.2433  -51.8802 C.3       15 UNK         0.1400 
     86 CB         -2.2670  -27.5054  -52.6297 C.3       15 UNK        -0.1800 
     87 C          -2.4611  -24.9878  -52.7385 C.2       15 UNK         0.5000 
     88 O          -3.1420  -24.8069  -53.7490 O.2       15 UNK        -0.5000 
     89 N          -1.4678  -24.1707  -52.3504 N.am      16 UNK        -0.5000 
     90 CA         -1.0298  -22.9288  -53.0004 C.3       16 UNK         0.1400 
     91 CB         -2.1064  -21.8348  -52.8477 C.3       16 UNK        -0.1800 
     92 C          -0.6207  -23.1673  -54.4683 C.2       16 UNK         0.5000 
     93 O          -1.1837  -22.5592  -55.3786 O.2       16 UNK        -0.5000 
     94 N           0.3017  -24.1218  -54.6693 N.am      17 UNK        -0.5000 
     95 CA          0.7789  -24.6223  -55.9688 C.3       17 UNK         0.1400 
     96 CB          1.5739  -23.5317  -56.7174 C.3       17 UNK        -0.1800 
     97 C          -0.3469  -25.2423  -56.8294 C.2       17 UNK         0.5000 
     98 O          -0.3061  -25.1623  -58.0578 O.2       17 UNK        -0.5000 
     99 N          -1.3419  -25.8292  -56.1470 N.am      18 UNK        -0.5000 
    100 CA        -2.5870  -26.4098  -56.6624 C.3       18 UNK         0.1400 
    101 CB        -2.3054  -27.5662  -57.6442 C.3       18 UNK        -0.1800 
    102 C         -3.5843  -25.3767  -57.2316 C.2       18 UNK         0.5000 
    103 O         -4.5785  -25.7782  -57.8391 O.2       18 UNK        -0.5000 
    104 N         -3.3361  -24.0770  -57.0150 N.am      19 UNK        -0.5000 
    105 CA        -4.2091  -22.9883  -57.4547 C.3       19 UNK         0.1400 
    106 CB        -3.3458  -21.7714  -57.8245 C.3       19 UNK        -0.1800 
    107 C         -5.2537  -22.5981  -56.3929 C.2       19 UNK         0.5000 
    108 O         -6.1714  -21.8438  -56.7179 O.2       19 UNK        -0.5000 
    109 N         -5.0879  -23.0657  -55.1446 N.am      20 UNK        -0.5000 
    110 CA        -5.8892  -22.8013  -53.9373 C.3       20 UNK         0.1400 
    111 CB        -7.3458  -23.2687  -54.1151 C.3       20 UNK        -0.1800 
    112 C         -5.8339  -21.3484  -53.4169 C.2       20 UNK         0.5000 
    113 O         -5.8832  -21.1458  -52.2033 O.2       20 UNK        -0.5000 
    114 N         -5.7268  -20.3732  -54.3290 N.am      21 UNK        -0.5000 
    115 CA        -5.5760  -18.9233  -54.1560 C.3       21 UNK         0.1400 
    116 CB        -4.2931  -18.5856  -53.3735 C.3       21 UNK        -0.1800 
    117 C         -6.8022  -18.2113  -53.5533 C.2       21 UNK         0.5000 
    118 O         -7.2233  -17.1849  -54.0888 O.2       21 UNK        -0.5000 
    119 N         -7.3515  -18.7641  -52.4690 N.am      22 UNK        -0.5000 
    120 CA        -8.4846  -18.2189  -51.7022 C.3       22 UNK         0.1400 
    121 C         -9.7984  -19.0338  -51.8832 C.2       22 UNK         0.5000 
    122 N         -9.8456  -20.0379  -52.7507 N.am      22 UNK        -0.7600 
    123 O        -10.8025  -18.7414  -51.2393 O.2       22 UNK        -0.5000 
    124 C124       -8.1251  -18.0396  -50.2030 C.3       23 UNK        -0.0398 
    125 S125       -6.6605  -16.9739  -49.9621 S.3       23 UNK        -0.2404 
    126 C126       -5.4389  -18.1889  -49.3630 C.3       23 UNK        -0.0205 
    127 H127        3.9041  -16.0837  -47.5861 H         1 UNK         0.0600 
    128 H128        2.8534  -17.0982  -46.5928 H         1 UNK         0.0600 
    129 H129        2.2573  -16.4430  -48.1184 H         1 UNK         0.0600 
    130 H130        0.8647  -14.7341  -47.8061 H         1 UNK         0.3000 
    131 H131        0.3821  -13.5718  -45.3300 H         1 UNK         0.0600 
    132 H132       -1.2357  -12.1093  -46.4905 H         1 UNK         0.0800 
    133 H133       -0.5119  -12.4598  -48.0374 H         1 UNK         0.0800 
    134 H134       -0.9140  -14.3413  -49.4347 H         1 UNK         0.0800 
    135 H135       -2.5972  -13.8686  -49.4302 H         1 UNK         0.0800 
    136 H136       -4.3585  -15.6926  -48.8583 H         1 UNK         0.1150 
    137 H137       -3.2861  -19.6552  -50.1008 H         1 UNK         0.1150 
    138 H138       -0.2915  -16.6049  -49.8478 H         1 UNK         0.1150 
    139 H139       -1.0535  -20.2575  -50.4828 H         1 UNK         0.0800 
    140 H140       -0.3127  -19.0249  -51.4656 H         1 UNK         0.0800 
    141 H141       -0.6415  -18.6272  -47.5619 H         1 UNK         0.0800 
    142 H142        0.9804  -18.9419  -47.0685 H         1 UNK         0.0800 
    143 H143        0.4289  -21.4854  -47.6915 H         1 UNK         0.0600 
    144 H144        0.3356  -20.0837  -45.2419 H         1 UNK         0.3000 
    145 H145       -0.1843  -22.9413  -43.1294 H         1 UNK         0.0600 
    146 H146        1.8820  -21.9796  -42.1465 H         1 UNK         0.0600 
    147 H147        2.2450  -22.8195  -43.6471 H         1 UNK         0.0600 
    148 H148        2.1858  -21.0625  -43.6200 H         1 UNK         0.0600 
    149 H149        0.1045  -20.1928  -42.4836 H         1 UNK         0.3000 
    150 H150       -3.3869  -19.3333  -42.6571 H         1 UNK         0.0600 
    151 H151       -2.9635  -20.3832  -40.4299 H         1 UNK         0.0600 
    152 H152       -2.8521  -18.6312  -40.3438 H         1 UNK         0.0600 
    153 H153       -1.3861  -19.6076  -40.3510 H         1 UNK         0.0600 
    154 H154       -1.1723  -17.7219  -41.9928 H         1 UNK         0.3000 
    155 H155       -0.4061  -16.5156  -45.2908 H         1 UNK         0.0600 
    156 H156       -1.7197  -15.4887  -42.7146 H         1 UNK         0.0600 
    157 H157       -2.1245  -15.0848  -44.3638 H         1 UNK         0.0600 
    158 H158       -0.6241  -14.5025  -43.6548 H         1 UNK         0.0600 
    159 H159        0.9803  -16.0367  -42.9173 H         1 UNK         0.3000 
    160 H160        3.1602  -18.8912  -42.8706 H         1 UNK         0.0600 
    161 H161        4.8500  -17.1135  -42.7508 H         1 UNK         0.0600 
    162 H162        3.6852  -15.9099  -43.2900 H         1 UNK         0.0600 
    163 H163        4.2012  -17.1857  -44.3824 H         1 UNK         0.0600 
    164 H164        2.7596  -16.6117  -41.1452 H         1 UNK         0.3000 
    165 H165        0.4734  -18.1926  -38.9229 H         1 UNK         0.0600 
    166 H166        2.2399  -17.5583  -37.2998 H         1 UNK         0.0600 
    167 H167        2.7328  -18.9815  -38.2032 H         1 UNK         0.0600 
    168 H168        3.4239  -17.4124  -38.5989 H         1 UNK         0.0600 
    169 H169        1.7581  -15.6197  -38.9788 H         1 UNK         0.3000 
    170 H170       -0.6408  -13.9611  -41.0115 H         1 UNK         0.0600 
    171 H171       -1.7563  -14.0087  -38.7786 H         1 UNK         0.0600 
    172 H172       -0.2058  -13.7664  -37.9827 H         1 UNK         0.0600 
    173 H173       -0.8782  -12.5070  -39.0192 H         1 UNK         0.0600 
    174 H174        1.6008  -13.0241  -39.5044 H         1 UNK         0.3000 
    175 H175        3.3799  -12.1330  -40.8644 H         1 UNK         0.0600 
    176 H176        4.4967  -15.0067  -40.7123 H         1 UNK         0.0600 
    177 H177        5.3271  -13.5553  -40.1636 H         1 UNK         0.0600 
    178 H178        3.8911  -14.1022  -39.3295 H         1 UNK         0.0600 
    179 H179        3.5738  -13.6100  -43.3064 H         1 UNK         0.3000 
    180 H180        6.5983  -11.9203  -44.4222 H         1 UNK         0.0600 
    181 H181        5.4427  -14.7484  -44.5342 H         1 UNK         0.0600 
    182 H182        7.0008  -14.2988  -43.8594 H         1 UNK         0.0600 
    183 H183        6.6971  -14.0893  -45.5771 H         1 UNK         0.0600 
    184 H184        4.1277  -12.9651  -45.6462 H         1 UNK         0.3000 
    185 H185        2.9972   -9.8159  -46.6938 H         1 UNK         0.0600 
    186 H186        4.9510   -9.8079  -48.2404 H         1 UNK         0.0600 
    187 H187        4.7608  -11.5342  -48.5212 H         1 UNK         0.0600 
    188 H188        3.5136  -10.4052  -49.0529 H         1 UNK         0.0600 
    189 H189        2.6827  -12.5322  -47.6963 H         1 UNK         0.3000 
    190 H190       -2.3394  -20.0190  -45.9415 H         1 UNK         0.3000 
    191 H191       -4.3324  -20.6715  -47.8627 H         1 UNK         0.0600 
    192 H192       -4.5766  -20.1618  -44.8503 H         1 UNK         0.0600 
    193 H193       -5.9005  -20.1144  -46.0096 H         1 UNK         0.0600 
    194 H194       -4.6064  -18.9280  -46.1071 H         1 UNK         0.0600 
    195 H195       -3.0290  -22.5213  -45.0975 H         1 UNK         0.3000 
    196 H196       -4.9256  -24.6793  -45.2499 H         1 UNK         0.0600 
    197 H197       -3.3005  -25.8187  -43.7316 H         1 UNK         0.0600 
    198 H198       -3.6479  -24.1845  -43.1884 H         1 UNK         0.0600 
    199 H199       -2.1277  -24.5362  -44.0082 H         1 UNK         0.0600 
    200 H200       -1.8350  -24.0165  -46.8447 H         1 UNK         0.3000 
    201 H201       -1.4801  -26.6286  -48.0259 H         1 UNK         0.0600 
    202 H202        0.3310  -25.4657  -49.2844 H         1 UNK         0.0600 
    203 H203        0.4077  -25.0428  -47.5849 H         1 UNK         0.0600 
    204 H204       -0.2648  -23.9014  -48.7448 H         1 UNK         0.0600 
    205 H205       -1.2657  -26.8228  -50.4566 H         1 UNK         0.3000 
    206 H206       -3.8009  -26.3101  -51.7245 H         1 UNK         0.0600 
    207 H207       -2.4727  -28.4047  -52.0489 H         1 UNK         0.0600 
    208 H208       -2.7958  -27.6109  -53.5769 H         1 UNK         0.0600 
    209 H209       -1.1986  -27.4835  -52.8481 H         1 UNK         0.0600 
    210 H210       -0.9688  -24.4229  -51.5102 H         1 UNK         0.3000 
    211 H211       -0.1370  -22.5919  -52.4716 H         1 UNK         0.0600 
    212 H212       -2.9923  -22.0575  -53.4399 H         1 UNK         0.0600 
    213 H213       -1.7291  -20.8670  -53.1790 H         1 UNK         0.0600 
    214 H214       -2.4216  -21.7282  -51.8097 H         1 UNK         0.0600 
    215 H215        0.6888  -24.5826  -53.8575 H         1 UNK         0.3000 
    216 H216        1.4697  -25.4372  -55.7477 H         1 UNK         0.0600 
    217 H217        0.9327  -22.7108  -57.0397 H         1 UNK         0.0600 
    218 H218        2.0537  -23.9391  -57.6080 H         1 UNK         0.0600 
    219 H219        2.3609  -23.1158  -56.0886 H         1 UNK         0.0600 
    220 H220       -1.2858  -25.7870  -55.1400 H         1 UNK         0.3000 
    221 H221       -3.0888  -26.8415  -55.7964 H         1 UNK         0.0600 
    222 H222       -1.8909  -27.2087  -58.5869 H         1 UNK         0.0600 
    223 H223       -1.6046  -28.2842  -57.2183 H         1 UNK         0.0600 
    224 H224       -3.2207  -28.1104  -57.8797 H         1 UNK         0.0600 
    225 H225       -2.5110  -23.8077  -56.4906 H         1 UNK         0.3000 
    226 H226       -4.7517  -23.2931  -58.3520 H         1 UNK         0.0600 
    227 H227       -2.5695  -22.0387  -58.5417 H         1 UNK         0.0600 
    228 H228       -3.9532  -20.9883  -58.2799 H         1 UNK         0.0600 
    229 H229       -2.8613  -21.3369  -56.9500 H         1 UNK         0.0600 
    230 H230       -4.2829  -23.6613  -54.9743 H         1 UNK         0.3000 
    231 H231       -5.4447  -23.4185  -53.1551 H         1 UNK         0.0600 
    232 H232       -7.3888  -24.3149  -54.4178 H         1 UNK         0.0600 
    233 H233       -7.8774  -22.6802  -54.8631 H         1 UNK         0.0600 
    234 H234       -7.8988  -23.1785  -53.1792 H         1 UNK         0.0600 
    235 H235       -5.7914  -20.6802  -55.2959 H         1 UNK         0.3000 
    236 H236       -5.4523  -18.5241  -55.1640 H         1 UNK         0.0600 
    237 H237       -4.1525  -17.5068  -53.2978 H         1 UNK         0.0600 
    238 H238       -4.3241  -18.9791  -52.3586 H         1 UNK         0.0600 
    239 H239       -3.4115  -18.9967  -53.8651 H         1 UNK         0.0600 
    240 H240       -6.9330  -19.6225  -52.1193 H         1 UNK         0.3000 
    241 H241       -8.7261  -17.2263  -52.0859 H         1 UNK         0.0600 
    242 H242       -9.0385  -20.2685  -53.3066 H         1 UNK         0.3800 
    243 H243      -10.7033  -20.5547  -52.8669 H         1 UNK         0.3800 
    244 H244       -8.9543  -17.5757  -49.6663 H         1 UNK         0.0800 
    245 H245       -7.9648  -19.0092  -49.7288 H         1 UNK         0.0800 
    246 H246       -5.5708  -19.1179  -49.9208 H         1 UNK         0.0800 
    247 H247       -5.6497  -18.4166  -48.3182 H         1 UNK         0.0800 
@<TRIPOS>BOND
     1    1    2 1    
     2    1  127 1    
     3    1  128 1    
     4    1  129 1    
     5    2    3 2    
     6    2    4 am   BACKBONE|DICT|INTERRES
     7    4    5 1    
     8    4  130 1    
     9    5    6 1    
    10    5   65 1    
    11    5  131 1    
    12    6    7 1    
    13    6  132 1    
    14    6  133 1    
    15    7    8 1    
    16    8    9 1    
    17    8  134 1    
    18    8  135 1    
    19    9   10 ar   
    20    9   14 ar   
    21   10   11 ar   
    22   10  136 1    
    23   11   12 ar   
    24   11  126 1    
    25   12   13 ar   
    26   12  137 1    
    27   13   14 ar   
    28   13   15 1    
    29   14  138 1    
    30   15   16 1    
    31   15  139 1    
    32   15  140 1    
    33   16   17 1    
    34   17   18 1    
    35   17  141 1    
    36   17  142 1    
    37   18   19 1    
    38   18   67 1    
    39   18  143 1    
    40   19   20 am   BACKBONE|DICT|INTERRES
    41   19  144 1    
    42   20   21 2    
    43   20   22 1    
    44   22   23 1    
    45   22   24 1    
    46   22  145 1    
    47   23  146 1    
    48   23  147 1    
    49   23  148 1    
    50   24   25 am   BACKBONE|DICT|INTERRES
    51   24  149 1    
    52   25   26 2    
    53   25   27 1    
    54   27   28 1    
    55   27   29 1    
    56   27  150 1    
    57   28  151 1    
    58   28  152 1    
    59   28  153 1    
    60   29   30 am   BACKBONE|DICT|INTERRES
    61   29  154 1    
    62   30   31 2    
    63   30   32 1    
    64   32   33 1    
    65   32   34 1    
    66   32  155 1    
    67   33  156 1    
    68   33  157 1    
    69   33  158 1    
    70   34   35 am   BACKBONE|DICT|INTERRES
    71   34  159 1    
    72   35   36 2    
    73   35   37 1    
    74   37   38 1    
    75   37   39 1    
    76   37  160 1    
    77   38  161 1    
    78   38  162 1    
    79   38  163 1    
    80   39   40 am   BACKBONE|DICT|INTERRES
    81   39  164 1    
    82   40   41 2    
    83   40   42 1    
    84   42   43 1    
    85   42   44 1    
    86   42  165 1    
    87   43  166 1    
    88   43  167 1    
    89   43  168 1    
    90   44   45 am   BACKBONE|DICT|INTERRES
    91   44  169 1    
    92   45   46 2    
    93   45   47 1    
    94   47   48 1    
    95   47   49 1    
    96   47  170 1    
    97   48  171 1    
    98   48  172 1    
    99   48  173 1    
   100   49   50 am   BACKBONE|DICT|INTERRES
   101   49  174 1    
   102   50   51 2    
   103   50   52 1    
   104   52   53 1    
   105   52   54 1    
   106   52  175 1    
   107   53  176 1    
   108   53  177 1    
   109   53  178 1    
   110   54   55 am   BACKBONE|DICT|INTERRES
   111   54  179 1    
   112   55   56 2    
   113   55   57 1    
   114   57   58 1    
   115   57   59 1    
   116   57  180 1    
   117   58  181 1    
   118   58  182 1    
   119   58  183 1    
   120   59   60 am   BACKBONE|DICT|INTERRES
   121   59  184 1    
   122   60   61 2    
   123   60   62 1    
   124   62   63 1    
   125   62   64 1    
   126   62  185 1    
   127   63  186 1    
   128   63  187 1    
   129   63  188 1    
   130   64   65 am   BACKBONE|DICT|INTERRES
   131   64  189 1    
   132   65   66 2    
   133   67   68 2    
   134   67   69 am   BACKBONE|DICT|INTERRES
   135   69   70 1    
   136   69  190 1    
   137   70   71 1    
   138   70   72 1    
   139   70  191 1    
   140   71  192 1    
   141   71  193 1    
   142   71  194 1    
   143   72   73 2    
   144   72   74 am   BACKBONE|DICT|INTERRES
   145   74   75 1    
   146   74  195 1    
   147   75   76 1    
   148   75   77 1    
   149   75  196 1    
   150   76  197 1    
   151   76  198 1    
   152   76  199 1    
   153   77   78 2    
   154   77   79 am   BACKBONE|DICT|INTERRES
   155   79   80 1    
   156   79  200 1    
   157   80   81 1    
   158   80   82 1    
   159   80  201 1    
   160   81  202 1    
   161   81  203 1    
   162   81  204 1    
   163   82   83 2    
   164   82   84 am   BACKBONE|DICT|INTERRES
   165   84   85 1    
   166   84  205 1    
   167   85   86 1    
   168   85   87 1    
   169   85  206 1    
   170   86  207 1    
   171   86  208 1    
   172   86  209 1    
   173   87   88 2    
   174   87   89 am   BACKBONE|DICT|INTERRES
   175   89   90 1    
   176   89  210 1    
   177   90   91 1    
   178   90   92 1    
   179   90  211 1    
   180   91  212 1    
   181   91  213 1    
   182   91  214 1    
   183   92   93 2    
   184   92   94 am   BACKBONE|DICT|INTERRES
   185   94   95 1    
   186   94  215 1    
   187   95   96 1    
   188   95   97 1    
   189   95  216 1    
   190   96  217 1    
   191   96  218 1    
   192   96  219 1    
   193   97   98 2    
   194   97   99 am   BACKBONE|DICT|INTERRES
   195   99  100 1    
   196   99  220 1    
   197  100  101 1    
   198  100  102 1    
   199  100  221 1    
   200  101  222 1    
   201  101  223 1    
   202  101  224 1    
   203  102  103 2    
   204  102  104 am   BACKBONE|DICT|INTERRES
   205  104  105 1    
   206  104  225 1    
   207  105  106 1    
   208  105  107 1    
   209  105  226 1    
   210  106  227 1    
   211  106  228 1    
   212  106  229 1    
   213  107  108 2    
   214  107  109 am   BACKBONE|DICT|INTERRES
   215  109  110 1    
   216  109  230 1    
   217  110  111 1    
   218  110  112 1    
   219  110  231 1    
   220  111  232 1    
   221  111  233 1    
   222  111  234 1    
   223  112  113 2    
   224  112  114 am   BACKBONE|DICT|INTERRES
   225  114  115 1    
   226  114  235 1    
   227  115  116 1    
   228  115  117 1    
   229  115  236 1    
   230  116  237 1    
   231  116  238 1    
   232  116  239 1    
   233  117  118 2    
   234  117  119 am   BACKBONE|DICT|INTERRES
   235  119  120 1    
   236  119  240 1    
   237  120  121 1    
   238  120  124 1    
   239  120  241 1    
   240  121  122 am   BACKBONE|DICT|INTERRES
   241  121  123 2    
   242  122  242 1    
   243  122  243 1    
   244  124  125 1    
   245  124  244 1    
   246  124  245 1    
   247  125  126 1    
   248  126  246 1    
   249  126  247 1    
@<TRIPOS>SUBSTRUCTURE
     1 UNK         1 GROUP             0       ****    0 ROOT    
