@<TRIPOS>MOLECULE
3R540
247   249    1
SMALL
USER_CHARGES


@<TRIPOS>ATOM
      1 CA          5.4802  -19.0356  -44.0897 C.3       0 UNK        -0.1800 
      2 C           5.6726  -18.1809  -45.3341 C.2       0 UNK         0.5000 
      3 O           6.7138  -18.2723  -45.9834 O.2       0 UNK        -0.5000 
      4 N           4.6708  -17.3544  -45.6659 N.am      1 UNK        -0.5000 
      5 CA          4.6520  -16.4465  -46.8242 C.3       1 UNK         0.1400 
      6 C6          4.6763  -17.1990  -48.1894 C.3       23 UNK        -0.0398 
      7 S7          3.4407  -16.5408  -49.3643 S.3       23 UNK        -0.2404 
      8 C8          2.2444  -17.9130  -49.4239 C.3       23 UNK        -0.0205 
      9 C9          0.9820  -17.5277  -50.1792 C.ar      23 UNK        -0.0193 
     10 C10         0.9171  -17.6628  -51.5695 C.ar      23 UNK        -0.1150 
     11 C11        -0.2408  -17.3020  -52.2668 C.ar      23 UNK        -0.0193 
     12 C12        -1.3422  -16.8217  -51.5521 C.ar      23 UNK        -0.1150 
     13 C13        -1.3061  -16.7058  -50.1602 C.ar      23 UNK        -0.0193 
     14 C14        -0.1278  -17.0417  -49.4827 C.ar      23 UNK        -0.1150 
     15 C15        -2.5402  -16.1715  -49.4332 C.3       23 UNK        -0.0205 
     16 S16        -2.7856  -16.8195  -47.7451 S.3       23 UNK        -0.2404 
     17 C17        -3.3359  -18.5324  -48.0333 C.3       23 UNK        -0.0398 
     18 CA         -2.1968  -19.5764  -48.1650 C.3       11 UNK         0.1400 
     19 N          -1.2349  -19.5616  -47.0488 N.am      11 UNK        -0.5000 
     20 C          -0.1706  -20.3748  -46.9574 C.2       10 UNK         0.5000 
     21 O           0.1340  -21.1765  -47.8386 O.2       10 UNK        -0.5000 
     22 CA          0.6755  -20.3648  -45.6716 C.3       10 UNK         0.1400 
     23 CB          2.0187  -19.6617  -45.9055 C.3       10 UNK        -0.1800 
     24 N           0.0151  -19.7935  -44.4989 N.am      10 UNK        -0.5000 
     25 C          -1.0545  -20.3147  -43.8823 C.2       9 UNK         0.5000 
     26 O          -1.6463  -21.3222  -44.2729 O.2       9 UNK        -0.5000 
     27 CA         -1.5552  -19.5690  -42.6312 C.3       9 UNK         0.1400 
     28 CB         -0.6742  -19.8845  -41.4126 C.3       9 UNK        -0.1800 
     29 N          -1.5938  -18.1228  -42.8407 N.am      9 UNK        -0.5000 
     30 C          -2.5007  -17.5010  -43.6068 C.2       8 UNK         0.5000 
     31 O          -3.4595  -18.0701  -44.1296 O.2       8 UNK        -0.5000 
     32 CA         -2.2831  -15.9958  -43.8571 C.3       8 UNK         0.1400 
     33 CB         -2.9166  -15.1652  -42.7309 C.3       8 UNK        -0.1800 
     34 N          -0.8743  -15.6197  -44.0057 N.am      8 UNK        -0.5000 
     35 C          -0.0439  -16.1215  -44.9314 C.2       7 UNK         0.5000 
     36 O          -0.3599  -16.9758  -45.7537 O.2       7 UNK        -0.5000 
     37 CA          1.4144  -15.6537  -44.8931 C.3       7 UNK         0.1400 
     38 CB          1.5763  -14.2532  -45.5014 C.3       7 UNK        -0.1800 
     39 N           1.9846  -15.6902  -43.5507 N.am      7 UNK        -0.5000 
     40 C           2.1187  -16.7875  -42.7944 C.2       6 UNK         0.5000 
     41 O           1.8265  -17.9191  -43.1763 O.2       6 UNK        -0.5000 
     42 CA          2.6406  -16.5758  -41.3650 C.3       6 UNK         0.1400 
     43 CB          4.1717  -16.4416  -41.3514 C.3       6 UNK        -0.1800 
     44 N           2.0393  -15.3946  -40.7485 N.am      6 UNK        -0.5000 
     45 C           0.7633  -15.3188  -40.3458 C.2       5 UNK         0.5000 
     46 O          -0.0320  -16.2575  -40.4061 O.2       5 UNK        -0.5000 
     47 CA          0.2938  -13.9525  -39.8122 C.3       5 UNK         0.1400 
     48 CB          0.6448  -13.8025  -38.3243 C.3       5 UNK        -0.1800 
     49 N           0.8600  -12.8266  -40.5596 N.am      5 UNK        -0.5000 
     50 C           0.5433  -12.5335  -41.8282 C.2       4 UNK         0.5000 
     51 O          -0.2614  -13.1808  -42.4981 O.2       4 UNK        -0.5000 
     52 CA          1.2796  -11.3424  -42.4718 C.3       4 UNK         0.1400 
     53 CB          0.6100  -10.0179  -42.0755 C.3       4 UNK        -0.1800 
     54 N           2.7152  -11.2711  -42.1720 N.am      4 UNK        -0.5000 
     55 C           3.5987  -12.2496  -42.4085 C.2       3 UNK         0.5000 
     56 O           3.2810  -13.3812  -42.7754 O.2       3 UNK        -0.5000 
     57 CA          5.0853  -11.9286  -42.1701 C.3       3 UNK         0.1400 
     58 CB          5.4509  -12.1795  -40.6992 C.3       3 UNK        -0.1800 
     59 N           5.9501  -12.7546  -43.0173 N.am      3 UNK        -0.5000 
     60 C           6.0054  -12.6883  -44.3554 C.2       2 UNK         0.5000 
     61 O           5.4208  -11.8334  -45.0228 O.2       2 UNK        -0.5000 
     62 CA          6.8188  -13.7742  -45.0769 C.3       2 UNK         0.1400 
     63 CB          7.9619  -14.3637  -44.2262 C.3       2 UNK        -0.1800 
     64 N           5.9032  -14.8472  -45.4521 N.am      2 UNK        -0.5000 
     65 C           5.6916  -15.3043  -46.6939 C.2       1 UNK         0.5000 
     66 O           6.2705  -14.8663  -47.6897 O.2       1 UNK        -0.5000 
     67 C          -2.8151  -20.9745  -48.3855 C.2       11 UNK         0.5000 
     68 O          -2.9708  -21.3939  -49.5313 O.2       11 UNK        -0.5000 
     69 N          -3.1049  -21.6847  -47.2853 N.am      12 UNK        -0.5000 
     70 CA         -3.6526  -23.0418  -47.2879 C.3       12 UNK         0.1400 
     71 CB         -4.3537  -23.2928  -45.9443 C.3       12 UNK        -0.1800 
     72 C          -2.6062  -24.1383  -47.5767 C.2       12 UNK         0.5000 
     73 O          -2.9938  -25.2887  -47.7880 O.2       12 UNK        -0.5000 
     74 N          -1.3148  -23.7808  -47.5719 N.am      13 UNK        -0.5000 
     75 CA         -0.2081  -24.6511  -47.9678 C.3       13 UNK         0.1400 
     76 CB          0.9861  -24.4205  -47.0279 C.3       13 UNK        -0.1800 
     77 C           0.1919  -24.3956  -49.4317 C.2       13 UNK         0.5000 
     78 O           0.5431  -25.3434  -50.1350 O.2       13 UNK        -0.5000 
     79 N           0.1192  -23.1281  -49.8673 N.am      14 UNK        -0.5000 
     80 CA          0.4072  -22.6681  -51.2273 C.3       14 UNK         0.1400 
     81 CB          0.3575  -21.1327  -51.2609 C.3       14 UNK        -0.1800 
     82 C          -0.5354  -23.2682  -52.2865 C.2       14 UNK         0.5000 
     83 O          -0.0950  -23.5448  -53.4031 O.2       14 UNK        -0.5000 
     84 N          -1.7973  -23.4948  -51.9074 N.am      15 UNK        -0.5000 
     85 CA         -2.7742  -24.2697  -52.6605 C.3       15 UNK         0.1400 
     86 CB         -3.5227  -23.3615  -53.6469 C.3       15 UNK        -0.1800 
     87 C          -3.7338  -24.9081  -51.6519 C.2       15 UNK         0.5000 
     88 O          -3.9652  -24.3241  -50.5911 O.2       15 UNK        -0.5000 
     89 N          -4.2792  -26.0802  -52.0021 N.am      16 UNK        -0.5000 
     90 CA         -5.1852  -26.8859  -51.1789 C.3       16 UNK         0.1400 
     91 CB         -5.6127  -28.1306  -51.9733 C.3       16 UNK        -0.1800 
     92 C          -6.4102  -26.0905  -50.6881 C.2       16 UNK         0.5000 
     93 O          -7.2808  -25.7488  -51.4912 O.2       16 UNK        -0.5000 
     94 N          -6.4096  -25.7680  -49.3860 N.am      17 UNK        -0.5000 
     95 CA         -7.3954  -24.9434  -48.6765 C.3       17 UNK         0.1400 
     96 CB         -8.7531  -25.6723  -48.5971 C.3       17 UNK        -0.1800 
     97 C          -7.5246  -23.5087  -49.2376 C.2       17 UNK         0.5000 
     98 O          -8.5864  -22.8967  -49.1095 O.2       17 UNK        -0.5000 
     99 N          -6.4511  -23.0064  -49.8673 N.am      18 UNK        -0.5000 
    100 CA        -6.2833  -21.7134  -50.5408 C.3       18 UNK         0.1400 
    101 CB        -6.5042  -20.5378  -49.5706 C.3       18 UNK        -0.1800 
    102 C         -7.1175  -21.5523  -51.8266 C.2       18 UNK         0.5000 
    103 O         -6.5900  -21.0970  -52.8408 O.2       18 UNK        -0.5000 
    104 N         -8.3911  -21.9602  -51.7846 N.am      19 UNK        -0.5000 
    105 CA        -9.3819  -21.8503  -52.8584 C.3       19 UNK         0.1400 
    106 CB       -10.7218  -22.3967  -52.3422 C.3       19 UNK        -0.1800 
    107 C         -8.9954  -22.5409  -54.1824 C.2       19 UNK         0.5000 
    108 O         -9.5308  -22.1727  -55.2288 O.2       19 UNK        -0.5000 
    109 N         -8.0794  -23.5172  -54.1231 N.am      20 UNK        -0.5000 
    110 CA        -7.5598  -24.2465  -55.2782 C.3       20 UNK         0.1400 
    111 CB        -6.7660  -25.4656  -54.7875 C.3       20 UNK        -0.1800 
    112 C         -6.7196  -23.3942  -56.2535 C.2       20 UNK         0.5000 
    113 O         -6.6705  -23.7437  -57.4339 O.2       20 UNK        -0.5000 
    114 N         -6.0932  -22.3040  -55.7804 N.am      21 UNK        -0.5000 
    115 CA        -5.3448  -21.3687  -56.6271 C.3       21 UNK         0.1400 
    116 CB        -4.0306  -21.9821  -57.1557 C.3       21 UNK        -0.1800 
    117 C         -5.0834  -20.0379  -55.9103 C.2       21 UNK         0.5000 
    118 O         -5.5027  -18.9932  -56.4108 O.2       21 UNK        -0.5000 
    119 N         -4.4004  -20.0899  -54.7610 N.am      22 UNK        -0.5000 
    120 CA        -4.0825  -18.9149  -53.9344 C.3       22 UNK         0.1400 
    121 C         -3.8647  -19.2673  -52.4398 C.2       22 UNK         0.5000 
    122 N         -3.2220  -20.3852  -52.1241 N.am      22 UNK        -0.7600 
    123 O         -4.3092  -18.5334  -51.5633 O.2       22 UNK        -0.5000 
    124 C124       -2.9411  -18.0419  -54.5284 C.3       23 UNK        -0.0398 
    125 S125       -1.2621  -18.7720  -54.4302 S.3       23 UNK        -0.2404 
    126 C126       -0.2748  -17.3765  -53.7904 C.3       23 UNK        -0.0205 
    127 H127        6.2336  -18.7857  -43.3427 H         1 UNK         0.0600 
    128 H128        5.5841  -20.0912  -44.3408 H         1 UNK         0.0600 
    129 H129        4.4963  -18.8907  -43.6439 H         1 UNK         0.0600 
    130 H130        3.8440  -17.3431  -45.0867 H         1 UNK         0.3000 
    131 H131        3.6979  -15.9291  -46.7562 H         1 UNK         0.0600 
    132 H132        5.6636  -17.1745  -48.6533 H         1 UNK         0.0800 
    133 H133        4.4677  -18.2594  -48.0417 H         1 UNK         0.0800 
    134 H134        1.9829  -18.2109  -48.4091 H         1 UNK         0.0800 
    135 H135        2.7091  -18.7823  -49.8915 H         1 UNK         0.0800 
    136 H136        1.7778  -18.0322  -52.1091 H         1 UNK         0.1150 
    137 H137       -2.2375  -16.5267  -52.0759 H         1 UNK         0.1150 
    138 H138       -0.0726  -16.9347  -48.4088 H         1 UNK         0.1150 
    139 H139       -2.4501  -15.0866  -49.3716 H         1 UNK         0.0800 
    140 H140       -3.4410  -16.3727  -50.0152 H         1 UNK         0.0800 
    141 H141       -3.9673  -18.5441  -48.9231 H         1 UNK         0.0800 
    142 H142       -3.9893  -18.7958  -47.1994 H         1 UNK         0.0800 
    143 H143       -1.6324  -19.3444  -49.0691 H         1 UNK         0.0600 
    144 H144       -1.3648  -18.8501  -46.3386 H         1 UNK         0.3000 
    145 H145        0.8909  -21.4094  -45.4377 H         1 UNK         0.0600 
    146 H146        2.6755  -19.7819  -45.0450 H         1 UNK         0.0600 
    147 H147        2.5390  -20.0785  -46.7689 H         1 UNK         0.0600 
    148 H148        1.8838  -18.5964  -46.0821 H         1 UNK         0.0600 
    149 H149        0.4562  -18.9715  -44.0979 H         1 UNK         0.3000 
    150 H150       -2.5676  -19.9169  -42.4150 H         1 UNK         0.0600 
    151 H151       -0.6462  -20.9575  -41.2192 H         1 UNK         0.0600 
    152 H152       -1.0583  -19.4010  -40.5141 H         1 UNK         0.0600 
    153 H153        0.3535  -19.5497  -41.5566 H         1 UNK         0.0600 
    154 H154       -0.8418  -17.5788  -42.4394 H         1 UNK         0.3000 
    155 H155       -2.7882  -15.7439  -44.7915 H         1 UNK         0.0600 
    156 H156       -2.4102  -15.3282  -41.7788 H         1 UNK         0.0600 
    157 H157       -3.9673  -15.4247  -42.5952 H         1 UNK         0.0600 
    158 H158       -2.8722  -14.0994  -42.9553 H         1 UNK         0.0600 
    159 H159       -0.5327  -14.8926  -43.3833 H         1 UNK         0.3000 
    160 H160        1.9761  -16.3567  -45.5032 H         1 UNK         0.0600 
    161 H161        1.0216  -13.5038  -44.9375 H         1 UNK         0.0600 
    162 H162        1.2093  -14.2306  -46.5283 H         1 UNK         0.0600 
    163 H163        2.6226  -13.9473  -45.5211 H         1 UNK         0.0600 
    164 H164        2.3046  -14.7997  -43.1717 H         1 UNK         0.3000 
    165 H165        2.3686  -17.4525  -40.7732 H         1 UNK         0.0600 
    166 H166        4.5441  -16.2925  -40.3378 H         1 UNK         0.0600 
    167 H167        4.6446  -17.3442  -41.7378 H         1 UNK         0.0600 
    168 H168        4.5158  -15.6047  -41.9595 H         1 UNK         0.0600 
    169 H169        2.6034  -14.5579  -40.7259 H         1 UNK         0.3000 
    170 H170       -0.7933  -13.9146  -39.9110 H         1 UNK         0.0600 
    171 H171        0.2205  -14.6197  -37.7394 H         1 UNK         0.0600 
    172 H172        1.7232  -13.8070  -38.1610 H         1 UNK         0.0600 
    173 H173        0.2471  -12.8727  -37.9174 H         1 UNK         0.0600 
    174 H174        1.5376  -12.2496  -40.0834 H         1 UNK         0.3000 
    175 H175        1.1850  -11.4539  -43.5536 H         1 UNK         0.0600 
    176 H176        0.7152   -9.8160  -41.0089 H         1 UNK         0.0600 
    177 H177        1.0420   -9.1785  -42.6208 H         1 UNK         0.0600 
    178 H178       -0.4568  -10.0356  -42.3029 H         1 UNK         0.0600 
    179 H179        3.0568  -10.3782  -41.8466 H         1 UNK         0.3000 
    180 H180        5.2640  -10.8787  -42.4107 H         1 UNK         0.0600 
    181 H181        5.2897  -13.2206  -40.4158 H         1 UNK         0.0600 
    182 H182        4.8478  -11.5609  -40.0333 H         1 UNK         0.0600 
    183 H183        6.4961  -11.9373  -40.5060 H         1 UNK         0.0600 
    184 H184        6.4490  -13.4982  -42.5530 H         1 UNK         0.3000 
    185 H185        7.2588  -13.3079  -45.9609 H         1 UNK         0.0600 
    186 H186        8.6218  -13.5784  -43.8549 H         1 UNK         0.0600 
    187 H187        7.5929  -14.9274  -43.3686 H         1 UNK         0.0600 
    188 H188        8.5729  -15.0422  -44.8219 H         1 UNK         0.0600 
    189 H189        5.3544  -15.2387  -44.7007 H         1 UNK         0.3000 
    190 H190       -2.8894  -21.2892  -46.3788 H         1 UNK         0.3000 
    191 H191       -4.4035  -23.1066  -48.0755 H         1 UNK         0.0600 
    192 H192       -3.6538  -23.2320  -45.1099 H         1 UNK         0.0600 
    193 H193       -4.8117  -24.2824  -45.9186 H         1 UNK         0.0600 
    194 H194       -5.1467  -22.5649  -45.7720 H         1 UNK         0.0600 
    195 H195       -1.0835  -22.8084  -47.4145 H         1 UNK         0.3000 
    196 H196       -0.5044  -25.6985  -47.8792 H         1 UNK         0.0600 
    197 H197        1.8036  -25.1017  -47.2669 H         1 UNK         0.0600 
    198 H198        0.7090  -24.5969  -45.9885 H         1 UNK         0.0600 
    199 H199        1.3764  -23.4056  -47.1029 H         1 UNK         0.0600 
    200 H200       -0.0910  -22.3990  -49.1911 H         1 UNK         0.3000 
    201 H201        1.4230  -22.9825  -51.4745 H         1 UNK         0.0600 
    202 H202        1.0951  -20.7009  -50.5848 H         1 UNK         0.0600 
    203 H203       -0.6210  -20.7525  -50.9678 H         1 UNK         0.0600 
    204 H204        0.5696  -20.7524  -52.2610 H         1 UNK         0.0600 
    205 H205       -2.0911  -23.2520  -50.9669 H         1 UNK         0.3000 
    206 H206       -2.2577  -25.0611  -53.2081 H         1 UNK         0.0600 
    207 H207       -4.0444  -23.9552  -54.3962 H         1 UNK         0.0600 
    208 H208       -2.8310  -22.7097  -54.1784 H         1 UNK         0.0600 
    209 H209       -4.2634  -22.7402  -53.1430 H         1 UNK         0.0600 
    210 H210       -4.0460  -26.4703  -52.9031 H         1 UNK         0.3000 
    211 H211       -4.6187  -27.2243  -50.3087 H         1 UNK         0.0600 
    212 H212       -6.1288  -27.8638  -52.8961 H         1 UNK         0.0600 
    213 H213       -6.2900  -28.7534  -51.3875 H         1 UNK         0.0600 
    214 H214       -4.7524  -28.7464  -52.2363 H         1 UNK         0.0600 
    215 H215       -5.6089  -26.0482  -48.8350 H         1 UNK         0.3000 
    216 H216       -7.0206  -24.8321  -47.6582 H         1 UNK         0.0600 
    217 H217       -9.4471  -25.1402  -47.9454 H         1 UNK         0.0600 
    218 H218       -8.6380  -26.6778  -48.1924 H         1 UNK         0.0600 
    219 H219       -9.2249  -25.7566  -49.5766 H         1 UNK         0.0600 
    220 H220       -5.6425  -23.6164  -49.9632 H         1 UNK         0.3000 
    221 H221       -5.2397  -21.6920  -50.8505 H         1 UNK         0.0600 
    222 H222       -7.5384  -20.4717  -49.2332 H         1 UNK         0.0600 
    223 H223       -5.8687  -20.6296  -48.6903 H         1 UNK         0.0600 
    224 H224       -6.2608  -19.5897  -50.0501 H         1 UNK         0.0600 
    225 H225       -8.7197  -22.3306  -50.8968 H         1 UNK         0.3000 
    226 H226       -9.5051  -20.7878  -53.0764 H         1 UNK         0.0600 
    227 H227      -11.0598  -21.8476  -51.4631 H         1 UNK         0.0600 
    228 H228      -11.5015  -22.3072  -53.0998 H         1 UNK         0.0600 
    229 H229      -10.6452  -23.4504  -52.0704 H         1 UNK         0.0600 
    230 H230       -7.7145  -23.7783  -53.2172 H         1 UNK         0.3000 
    231 H231       -8.4165  -24.6174  -55.8448 H         1 UNK         0.0600 
    232 H232       -7.4184  -26.1729  -54.2756 H         1 UNK         0.0600 
    233 H233       -5.9801  -25.1782  -54.0915 H         1 UNK         0.0600 
    234 H234       -6.2991  -25.9980  -55.6172 H         1 UNK         0.0600 
    235 H235       -6.2389  -22.0255  -54.8154 H         1 UNK         0.3000 
    236 H236       -5.9708  -21.1346  -57.4912 H         1 UNK         0.0600 
    237 H237       -3.3873  -22.3313  -56.3511 H         1 UNK         0.0600 
    238 H238       -4.2170  -22.8253  -57.8199 H         1 UNK         0.0600 
    239 H239       -3.4630  -21.2478  -57.7288 H         1 UNK         0.0600 
    240 H240       -4.1508  -20.9835  -54.3690 H         1 UNK         0.3000 
    241 H241       -4.9809  -18.2936  -53.9386 H         1 UNK         0.0600 
    242 H242       -3.1291  -20.6470  -51.1453 H         1 UNK         0.3800 
    243 H243       -2.7448  -20.9262  -52.8226 H         1 UNK         0.3800 
    244 H244       -2.9499  -17.0643  -54.0503 H         1 UNK         0.0800 
    245 H245       -3.1450  -17.8318  -55.5786 H         1 UNK         0.0800 
    246 H246       -0.6479  -16.4361  -54.1982 H         1 UNK         0.0800 
    247 H247        0.7405  -17.4804  -54.1759 H         1 UNK         0.0800 
@<TRIPOS>BOND
     1    1    2 1    
     2    1  127 1    
     3    1  128 1    
     4    1  129 1    
     5    2    3 2    
     6    2    4 am   BACKBONE|DICT|INTERRES
     7    4    5 1    
     8    4  130 1    
     9    5    6 1    
    10    5   65 1    
    11    5  131 1    
    12    6    7 1    
    13    6  132 1    
    14    6  133 1    
    15    7    8 1    
    16    8    9 1    
    17    8  134 1    
    18    8  135 1    
    19    9   10 ar   
    20    9   14 ar   
    21   10   11 ar   
    22   10  136 1    
    23   11   12 ar   
    24   11  126 1    
    25   12   13 ar   
    26   12  137 1    
    27   13   14 ar   
    28   13   15 1    
    29   14  138 1    
    30   15   16 1    
    31   15  139 1    
    32   15  140 1    
    33   16   17 1    
    34   17   18 1    
    35   17  141 1    
    36   17  142 1    
    37   18   19 1    
    38   18   67 1    
    39   18  143 1    
    40   19   20 am   BACKBONE|DICT|INTERRES
    41   19  144 1    
    42   20   21 2    
    43   20   22 1    
    44   22   23 1    
    45   22   24 1    
    46   22  145 1    
    47   23  146 1    
    48   23  147 1    
    49   23  148 1    
    50   24   25 am   BACKBONE|DICT|INTERRES
    51   24  149 1    
    52   25   26 2    
    53   25   27 1    
    54   27   28 1    
    55   27   29 1    
    56   27  150 1    
    57   28  151 1    
    58   28  152 1    
    59   28  153 1    
    60   29   30 am   BACKBONE|DICT|INTERRES
    61   29  154 1    
    62   30   31 2    
    63   30   32 1    
    64   32   33 1    
    65   32   34 1    
    66   32  155 1    
    67   33  156 1    
    68   33  157 1    
    69   33  158 1    
    70   34   35 am   BACKBONE|DICT|INTERRES
    71   34  159 1    
    72   35   36 2    
    73   35   37 1    
    74   37   38 1    
    75   37   39 1    
    76   37  160 1    
    77   38  161 1    
    78   38  162 1    
    79   38  163 1    
    80   39   40 am   BACKBONE|DICT|INTERRES
    81   39  164 1    
    82   40   41 2    
    83   40   42 1    
    84   42   43 1    
    85   42   44 1    
    86   42  165 1    
    87   43  166 1    
    88   43  167 1    
    89   43  168 1    
    90   44   45 am   BACKBONE|DICT|INTERRES
    91   44  169 1    
    92   45   46 2    
    93   45   47 1    
    94   47   48 1    
    95   47   49 1    
    96   47  170 1    
    97   48  171 1    
    98   48  172 1    
    99   48  173 1    
   100   49   50 am   BACKBONE|DICT|INTERRES
   101   49  174 1    
   102   50   51 2    
   103   50   52 1    
   104   52   53 1    
   105   52   54 1    
   106   52  175 1    
   107   53  176 1    
   108   53  177 1    
   109   53  178 1    
   110   54   55 am   BACKBONE|DICT|INTERRES
   111   54  179 1    
   112   55   56 2    
   113   55   57 1    
   114   57   58 1    
   115   57   59 1    
   116   57  180 1    
   117   58  181 1    
   118   58  182 1    
   119   58  183 1    
   120   59   60 am   BACKBONE|DICT|INTERRES
   121   59  184 1    
   122   60   61 2    
   123   60   62 1    
   124   62   63 1    
   125   62   64 1    
   126   62  185 1    
   127   63  186 1    
   128   63  187 1    
   129   63  188 1    
   130   64   65 am   BACKBONE|DICT|INTERRES
   131   64  189 1    
   132   65   66 2    
   133   67   68 2    
   134   67   69 am   BACKBONE|DICT|INTERRES
   135   69   70 1    
   136   69  190 1    
   137   70   71 1    
   138   70   72 1    
   139   70  191 1    
   140   71  192 1    
   141   71  193 1    
   142   71  194 1    
   143   72   73 2    
   144   72   74 am   BACKBONE|DICT|INTERRES
   145   74   75 1    
   146   74  195 1    
   147   75   76 1    
   148   75   77 1    
   149   75  196 1    
   150   76  197 1    
   151   76  198 1    
   152   76  199 1    
   153   77   78 2    
   154   77   79 am   BACKBONE|DICT|INTERRES
   155   79   80 1    
   156   79  200 1    
   157   80   81 1    
   158   80   82 1    
   159   80  201 1    
   160   81  202 1    
   161   81  203 1    
   162   81  204 1    
   163   82   83 2    
   164   82   84 am   BACKBONE|DICT|INTERRES
   165   84   85 1    
   166   84  205 1    
   167   85   86 1    
   168   85   87 1    
   169   85  206 1    
   170   86  207 1    
   171   86  208 1    
   172   86  209 1    
   173   87   88 2    
   174   87   89 am   BACKBONE|DICT|INTERRES
   175   89   90 1    
   176   89  210 1    
   177   90   91 1    
   178   90   92 1    
   179   90  211 1    
   180   91  212 1    
   181   91  213 1    
   182   91  214 1    
   183   92   93 2    
   184   92   94 am   BACKBONE|DICT|INTERRES
   185   94   95 1    
   186   94  215 1    
   187   95   96 1    
   188   95   97 1    
   189   95  216 1    
   190   96  217 1    
   191   96  218 1    
   192   96  219 1    
   193   97   98 2    
   194   97   99 am   BACKBONE|DICT|INTERRES
   195   99  100 1    
   196   99  220 1    
   197  100  101 1    
   198  100  102 1    
   199  100  221 1    
   200  101  222 1    
   201  101  223 1    
   202  101  224 1    
   203  102  103 2    
   204  102  104 am   BACKBONE|DICT|INTERRES
   205  104  105 1    
   206  104  225 1    
   207  105  106 1    
   208  105  107 1    
   209  105  226 1    
   210  106  227 1    
   211  106  228 1    
   212  106  229 1    
   213  107  108 2    
   214  107  109 am   BACKBONE|DICT|INTERRES
   215  109  110 1    
   216  109  230 1    
   217  110  111 1    
   218  110  112 1    
   219  110  231 1    
   220  111  232 1    
   221  111  233 1    
   222  111  234 1    
   223  112  113 2    
   224  112  114 am   BACKBONE|DICT|INTERRES
   225  114  115 1    
   226  114  235 1    
   227  115  116 1    
   228  115  117 1    
   229  115  236 1    
   230  116  237 1    
   231  116  238 1    
   232  116  239 1    
   233  117  118 2    
   234  117  119 am   BACKBONE|DICT|INTERRES
   235  119  120 1    
   236  119  240 1    
   237  120  121 1    
   238  120  124 1    
   239  120  241 1    
   240  121  122 am   BACKBONE|DICT|INTERRES
   241  121  123 2    
   242  122  242 1    
   243  122  243 1    
   244  124  125 1    
   245  124  244 1    
   246  124  245 1    
   247  125  126 1    
   248  126  246 1    
   249  126  247 1    
@<TRIPOS>SUBSTRUCTURE
     1 UNK         1 GROUP             0       ****    0 ROOT    
