@<TRIPOS>MOLECULE
3R540
247   249    1
SMALL
USER_CHARGES


@<TRIPOS>ATOM
      1 CA         -6.6102  -13.3776  -46.2849 C.3       0 UNK        -0.1800 
      2 C          -5.1220  -13.6807  -46.1854 C.2       0 UNK         0.5000 
      3 O          -4.3156  -12.7589  -46.0681 O.2       0 UNK        -0.5000 
      4 N          -4.7576  -14.9685  -46.2302 N.am      1 UNK        -0.5000 
      5 CA         -3.3705  -15.4524  -46.1614 C.3       1 UNK         0.1400 
      6 C6         -3.2139  -16.8657  -46.7794 C.3       23 UNK        -0.0398 
      7 S7         -3.8483  -16.9533  -48.4897 S.3       23 UNK        -0.2404 
      8 C8         -2.3186  -16.9935  -49.4834 C.3       23 UNK        -0.0205 
      9 C9         -1.8844  -18.4030  -49.8750 C.ar      23 UNK        -0.0193 
     10 C10        -2.7810  -19.2744  -50.5033 C.ar      23 UNK        -0.1150 
     11 C11        -2.3612  -20.5285  -50.9535 C.ar      23 UNK        -0.0193 
     12 C12        -1.0346  -20.9190  -50.7573 C.ar      23 UNK        -0.1150 
     13 C13        -0.1252  -20.0654  -50.1272 C.ar      23 UNK        -0.0193 
     14 C14        -0.5582  -18.8084  -49.6913 C.ar      23 UNK        -0.1150 
     15 C15         1.3407  -20.4634  -49.9865 C.3       23 UNK        -0.0205 
     16 S16         1.5973  -22.0865  -49.1897 S.3       23 UNK        -0.2404 
     17 C17         1.1116  -21.7337  -47.4658 C.3       23 UNK        -0.0398 
     18 CA          0.1964  -22.8109  -46.8281 C.3       11 UNK         0.1400 
     19 N          -0.0149  -22.5612  -45.3983 N.am      11 UNK        -0.5000 
     20 C          -0.6271  -23.3964  -44.5448 C.2       10 UNK         0.5000 
     21 O          -1.0382  -24.5148  -44.8519 O.2       10 UNK        -0.5000 
     22 CA         -0.8708  -22.8630  -43.1210 C.3       10 UNK         0.1400 
     23 CB          0.3918  -23.0103  -42.2594 C.3       10 UNK        -0.1800 
     24 N          -1.3028  -21.4639  -43.1264 N.am      10 UNK        -0.5000 
     25 C          -2.4877  -21.0492  -43.6035 C.2       9 UNK         0.5000 
     26 O          -3.3575  -21.8133  -44.0168 O.2       9 UNK        -0.5000 
     27 CA         -2.7259  -19.5289  -43.6935 C.3       9 UNK         0.1400 
     28 CB         -3.3833  -19.0088  -42.4085 C.3       9 UNK        -0.1800 
     29 N          -1.5001  -18.7756  -43.9621 N.am      9 UNK        -0.5000 
     30 C          -0.7300  -18.9456  -45.0454 C.2       8 UNK         0.5000 
     31 O          -1.0769  -19.6262  -46.0092 O.2       8 UNK        -0.5000 
     32 CA          0.6819  -18.3275  -45.0302 C.3       8 UNK         0.1400 
     33 CB          0.8670  -17.2774  -46.1348 C.3       8 UNK        -0.1800 
     34 N           1.0801  -17.7561  -43.7425 N.am      8 UNK        -0.5000 
     35 C           1.3366  -18.4473  -42.6242 C.2       7 UNK         0.5000 
     36 O           1.1677  -19.6653  -42.5371 O.2       7 UNK        -0.5000 
     37 CA          1.8641  -17.6364  -41.4175 C.3       7 UNK         0.1400 
     38 CB          2.2956  -18.5367  -40.2461 C.3       7 UNK        -0.1800 
     39 N           2.9870  -16.7670  -41.7855 N.am      7 UNK        -0.5000 
     40 C           2.8832  -15.6068  -42.4436 C.2       6 UNK         0.5000 
     41 O           1.7996  -15.1076  -42.7668 O.2       6 UNK        -0.5000 
     42 CA          4.1964  -14.9270  -42.8598 C.3       6 UNK         0.1400 
     43 CB          4.9136  -15.7574  -43.9440 C.3       6 UNK        -0.1800 
     44 N           3.8596  -13.6066  -43.3743 N.am      6 UNK        -0.5000 
     45 C           4.6875  -12.6108  -43.7040 C.2       5 UNK         0.5000 
     46 O           5.9099  -12.6705  -43.5626 O.2       5 UNK        -0.5000 
     47 CA          4.0462  -11.3158  -44.2555 C.3       5 UNK         0.1400 
     48 CB          4.7508  -10.8178  -45.5342 C.3       5 UNK        -0.1800 
     49 N           2.5891  -11.3956  -44.4442 N.am      5 UNK        -0.5000 
     50 C           1.8957  -12.1318  -45.3256 C.2       4 UNK         0.5000 
     51 O           2.4137  -12.8426  -46.1877 O.2       4 UNK        -0.5000 
     52 CA          0.3625  -12.1098  -45.1507 C.3       4 UNK         0.1400 
     53 CB         -0.3751  -12.8639  -46.2703 C.3       4 UNK        -0.1800 
     54 N          -0.0267  -12.6780  -43.8567 N.am      4 UNK        -0.5000 
     55 C           0.0475  -12.0435  -42.6771 C.2       3 UNK         0.5000 
     56 O           0.4342  -10.8776  -42.5686 O.2       3 UNK        -0.5000 
     57 CA         -0.3247  -12.8481  -41.4121 C.3       3 UNK         0.1400 
     58 CB         -0.7857  -11.9514  -40.2435 C.3       3 UNK        -0.1800 
     59 N          -1.2860  -13.9277  -41.6602 N.am      3 UNK        -0.5000 
     60 C          -2.5531  -13.8019  -42.0779 C.2       2 UNK         0.5000 
     61 O          -3.1139  -12.7265  -42.2975 O.2       2 UNK        -0.5000 
     62 CA         -3.3185  -15.1176  -42.3074 C.3       2 UNK         0.1400 
     63 CB         -4.5900  -15.1808  -41.4461 C.3       2 UNK        -0.1800 
     64 N          -3.6804  -15.2818  -43.7140 N.am      2 UNK        -0.5000 
     65 C          -2.8051  -15.4072  -44.7219 C.2       1 UNK         0.5000 
     66 O          -1.5895  -15.4814  -44.5437 O.2       1 UNK        -0.5000 
     67 C          -1.1488  -22.9559  -47.5673 C.2       11 UNK         0.5000 
     68 O          -1.3175  -23.9065  -48.3322 O.2       11 UNK        -0.5000 
     69 N          -2.0883  -22.0452  -47.2780 N.am      12 UNK        -0.5000 
     70 CA         -3.4429  -22.0416  -47.8227 C.3       12 UNK         0.1400 
     71 CB         -4.1438  -20.7305  -47.4397 C.3       12 UNK        -0.1800 
     72 C          -4.2747  -23.2611  -47.3908 C.2       12 UNK         0.5000 
     73 O          -4.9422  -23.8614  -48.2331 O.2       12 UNK        -0.5000 
     74 N          -4.2068  -23.6170  -46.1000 N.am      13 UNK        -0.5000 
     75 CA         -4.9049  -24.7637  -45.5165 C.3       13 UNK         0.1400 
     76 CB         -4.7974  -24.7100  -43.9849 C.3       13 UNK        -0.1800 
     77 C          -4.3901  -26.1127  -46.0470 C.2       13 UNK         0.5000 
     78 O          -5.1964  -26.9951  -46.3442 O.2       13 UNK        -0.5000 
     79 N          -3.0624  -26.2456  -46.1667 N.am      14 UNK        -0.5000 
     80 CA         -2.4052  -27.4376  -46.7036 C.3       14 UNK         0.1400 
     81 CB         -0.9307  -27.4286  -46.2718 C.3       14 UNK        -0.1800 
     82 C          -2.5020  -27.5465  -48.2368 C.2       14 UNK         0.5000 
     83 O          -2.3881  -28.6534  -48.7645 O.2       14 UNK        -0.5000 
     84 N          -2.6653  -26.3993  -48.9148 N.am      15 UNK        -0.5000 
     85 CA         -2.5240  -26.1897  -50.3603 C.3       15 UNK         0.1400 
     86 CB         -3.6392  -26.9107  -51.1444 C.3       15 UNK        -0.1800 
     87 C          -1.0990  -26.5543  -50.8285 C.2       15 UNK         0.5000 
     88 O          -0.9232  -27.2747  -51.8129 O.2       15 UNK        -0.5000 
     89 N          -0.1054  -26.0845  -50.0605 N.am      16 UNK        -0.5000 
     90 CA          1.3072  -26.4506  -50.1935 C.3       16 UNK         0.1400 
     91 CB          2.0456  -26.0600  -48.9040 C.3       16 UNK        -0.1800 
     92 C           2.0006  -25.8414  -51.4268 C.2       16 UNK         0.5000 
     93 O           3.0331  -26.3576  -51.8572 O.2       16 UNK        -0.5000 
     94 N           1.4242  -24.7697  -51.9749 N.am      17 UNK        -0.5000 
     95 CA          1.8581  -24.0757  -53.1793 C.3       17 UNK         0.1400 
     96 CB          3.0140  -23.1147  -52.8418 C.3       17 UNK        -0.1800 
     97 C           0.6501  -23.3325  -53.7683 C.2       17 UNK         0.5000 
     98 O          -0.4167  -23.3053  -53.1486 O.2       17 UNK        -0.5000 
     99 N           0.8390  -22.7439  -54.9526 N.am      18 UNK        -0.5000 
    100 CA        -0.1233  -21.8428  -55.5810 C.3       18 UNK         0.1400 
    101 CB        -0.0268  -21.9983  -57.1070 C.3       18 UNK        -0.1800 
    102 C          0.1691  -20.3899  -55.1688 C.2       18 UNK         0.5000 
    103 O          1.3225  -20.0405  -54.9027 O.2       18 UNK        -0.5000 
    104 N         -0.8774  -19.5646  -55.1707 N.am      19 UNK        -0.5000 
    105 CA        -0.8546  -18.1340  -54.8933 C.3       19 UNK         0.1400 
    106 CB        -0.8358  -17.8960  -53.3731 C.3       19 UNK        -0.1800 
    107 C         -2.1073  -17.5160  -55.5282 C.2       19 UNK         0.5000 
    108 O         -3.0253  -18.2479  -55.9086 O.2       19 UNK        -0.5000 
    109 N         -2.1621  -16.1803  -55.5971 N.am      20 UNK        -0.5000 
    110 CA        -3.2836  -15.4184  -56.1661 C.3       20 UNK         0.1400 
    111 CB        -2.9252  -13.9244  -56.1576 C.3       20 UNK        -0.1800 
    112 C         -4.6396  -15.6512  -55.4627 C.2       20 UNK         0.5000 
    113 O         -5.6871  -15.4470  -56.0771 O.2       20 UNK        -0.5000 
    114 N         -4.5921  -16.0879  -54.1981 N.am      21 UNK        -0.5000 
    115 CA        -5.7503  -16.4363  -53.3791 C.3       21 UNK         0.1400 
    116 CB        -5.3481  -16.3084  -51.9018 C.3       21 UNK        -0.1800 
    117 C         -6.3192  -17.8441  -53.6599 C.2       21 UNK         0.5000 
    118 O         -7.4104  -18.1393  -53.1692 O.2       21 UNK        -0.5000 
    119 N         -5.5963  -18.6936  -54.4046 N.am      22 UNK        -0.5000 
    120 CA        -5.9686  -20.1011  -54.6432 C.3       22 UNK         0.1400 
    121 C         -5.7114  -20.6289  -56.0829 C.2       22 UNK         0.5000 
    122 N         -4.9281  -19.9647  -56.9211 N.am      22 UNK        -0.7600 
    123 O         -6.2665  -21.6566  -56.4630 O.2       22 UNK        -0.5000 
    124 C124       -5.4007  -21.0500  -53.5540 C.3       23 UNK        -0.0398 
    125 S125       -3.5792  -20.9848  -53.3931 S.3       23 UNK        -0.2404 
    126 C126       -3.3438  -21.4564  -51.6497 C.3       23 UNK        -0.0205 
    127 H127       -6.9465  -12.8519  -45.3912 H         1 UNK         0.0600 
    128 H128       -7.2036  -14.2864  -46.3888 H         1 UNK         0.0600 
    129 H129       -6.8066  -12.7432  -47.1492 H         1 UNK         0.0600 
    130 H130       -5.4626  -15.6802  -46.3607 H         1 UNK         0.3000 
    131 H131       -2.7529  -14.7757  -46.7552 H         1 UNK         0.0600 
    132 H132       -3.7484  -17.6074  -46.1847 H         1 UNK         0.0800 
    133 H133       -2.1674  -17.1698  -46.7784 H         1 UNK         0.0800 
    134 H134       -2.4906  -16.4287  -50.4001 H         1 UNK         0.0800 
    135 H135       -1.5219  -16.4681  -48.9549 H         1 UNK         0.0800 
    136 H136       -3.8048  -18.9701  -50.6641 H         1 UNK         0.1150 
    137 H137       -0.7035  -21.8864  -51.1025 H         1 UNK         0.1150 
    138 H138        0.1499  -18.1278  -49.2442 H         1 UNK         0.1150 
    139 H139        1.7802  -20.4890  -50.9838 H         1 UNK         0.0800 
    140 H140        1.8970  -19.7078  -49.4297 H         1 UNK         0.0800 
    141 H141        0.6380  -20.7542  -47.4280 H         1 UNK         0.0800 
    142 H142        2.0297  -21.6432  -46.8842 H         1 UNK         0.0800 
    143 H143        0.7102  -23.7713  -46.9059 H         1 UNK         0.0600 
    144 H144        0.2446  -21.6479  -45.0592 H         1 UNK         0.3000 
    145 H145       -1.6630  -23.4635  -42.6688 H         1 UNK         0.0600 
    146 H146        0.2136  -22.6733  -41.2382 H         1 UNK         0.0600 
    147 H147        0.7085  -24.0528  -42.2079 H         1 UNK         0.0600 
    148 H148        1.2257  -22.4333  -42.6609 H         1 UNK         0.0600 
    149 H149       -0.6212  -20.7773  -42.8223 H         1 UNK         0.3000 
    150 H150       -3.4152  -19.3564  -44.5214 H         1 UNK         0.0600 
    151 H151       -2.6967  -19.0343  -41.5615 H         1 UNK         0.0600 
    152 H152       -4.2554  -19.6085  -42.1437 H         1 UNK         0.0600 
    153 H153       -3.7305  -17.9860  -42.5373 H         1 UNK         0.0600 
    154 H154       -1.1486  -18.1866  -43.2231 H         1 UNK         0.3000 
    155 H155        1.3697  -19.1473  -45.2467 H         1 UNK         0.0600 
    156 H156        0.2685  -16.3861  -45.9611 H         1 UNK         0.0600 
    157 H157        0.5810  -17.6795  -47.1048 H         1 UNK         0.0600 
    158 H158        1.9090  -16.9658  -46.2086 H         1 UNK         0.0600 
    159 H159        1.2024  -16.7488  -43.7098 H         1 UNK         0.3000 
    160 H160        1.0385  -17.0134  -41.0675 H         1 UNK         0.0600 
    161 H161        3.1126  -19.2015  -40.5293 H         1 UNK         0.0600 
    162 H162        1.4682  -19.1596  -39.9037 H         1 UNK         0.0600 
    163 H163        2.6257  -17.9431  -39.3934 H         1 UNK         0.0600 
    164 H164        3.9083  -17.1293  -41.5854 H         1 UNK         0.3000 
    165 H165        4.8336  -14.8191  -41.9802 H         1 UNK         0.0600 
    166 H166        5.8556  -15.2989  -44.2441 H         1 UNK         0.0600 
    167 H167        5.1503  -16.7599  -43.5861 H         1 UNK         0.0600 
    168 H168        4.2964  -15.8648  -44.8372 H         1 UNK         0.0600 
    169 H169        2.8638  -13.4756  -43.5027 H         1 UNK         0.3000 
    170 H170        4.2000  -10.5596  -43.4845 H         1 UNK         0.0600 
    171 H171        5.8010  -10.5974  -45.3399 H         1 UNK         0.0600 
    172 H172        4.7192  -11.5597  -46.3324 H         1 UNK         0.0600 
    173 H173        4.2923   -9.9019  -45.9068 H         1 UNK         0.0600 
    174 H174        2.0382  -10.8990  -43.7494 H         1 UNK         0.3000 
    175 H175        0.0429  -11.0664  -45.1917 H         1 UNK         0.0600 
    176 H176       -0.1169  -13.9232  -46.2823 H         1 UNK         0.0600 
    177 H177       -1.4550  -12.7809  -46.1490 H         1 UNK         0.0600 
    178 H178       -0.1266  -12.4530  -47.2494 H         1 UNK         0.0600 
    179 H179       -0.3190  -13.6480  -43.8633 H         1 UNK         0.3000 
    180 H180        0.5968  -13.3372  -41.0943 H         1 UNK         0.0600 
    181 H181       -1.6606  -11.3569  -40.5075 H         1 UNK         0.0600 
    182 H182        0.0019  -11.2569  -39.9491 H         1 UNK         0.0600 
    183 H183       -1.0357  -12.5457  -39.3647 H         1 UNK         0.0600 
    184 H184       -0.9085  -14.8591  -41.5600 H         1 UNK         0.3000 
    185 H185       -2.6746  -15.9519  -42.0229 H         1 UNK         0.0600 
    186 H186       -4.3486  -15.0727  -40.3879 H         1 UNK         0.0600 
    187 H187       -5.2925  -14.3875  -41.7049 H         1 UNK         0.0600 
    188 H188       -5.1039  -16.1346  -41.5657 H         1 UNK         0.0600 
    189 H189       -4.6577  -15.1835  -43.9443 H         1 UNK         0.3000 
    190 H190       -1.8360  -21.2631  -46.6807 H         1 UNK         0.3000 
    191 H191       -3.3547  -22.0786  -48.9073 H         1 UNK         0.0600 
    192 H192       -3.5452  -19.8681  -47.7307 H         1 UNK         0.0600 
    193 H193       -5.1086  -20.6432  -47.9403 H         1 UNK         0.0600 
    194 H194       -4.3216  -20.6651  -46.3667 H         1 UNK         0.0600 
    195 H195       -3.6818  -23.0325  -45.4551 H         1 UNK         0.3000 
    196 H196       -5.9606  -24.6837  -45.7839 H         1 UNK         0.0600 
    197 H197       -5.3066  -25.5584  -43.5259 H         1 UNK         0.0600 
    198 H198       -5.2568  -23.8039  -43.5899 H         1 UNK         0.0600 
    199 H199       -3.7584  -24.7303  -43.6538 H         1 UNK         0.0600 
    200 H200       -2.4559  -25.4933  -45.8526 H         1 UNK         0.3000 
    201 H201       -2.8800  -28.3232  -46.2760 H         1 UNK         0.0600 
    202 H202       -0.4062  -28.3105  -46.6416 H         1 UNK         0.0600 
    203 H203       -0.8379  -27.4255  -45.1856 H         1 UNK         0.0600 
    204 H204       -0.4089  -26.5504  -46.6540 H         1 UNK         0.0600 
    205 H205       -2.6970  -25.5450  -48.3715 H         1 UNK         0.3000 
    206 H206       -2.6412  -25.1182  -50.5301 H         1 UNK         0.0600 
    207 H207       -4.6247  -26.6230  -50.7782 H         1 UNK         0.0600 
    208 H208       -3.5972  -26.6522  -52.2030 H         1 UNK         0.0600 
    209 H209       -3.5565  -27.9952  -51.0703 H         1 UNK         0.0600 
    210 H210       -0.3514  -25.4578  -49.3015 H         1 UNK         0.3000 
    211 H211        1.3638  -27.5361  -50.2974 H         1 UNK         0.0600 
    212 H212        1.9945  -24.9874  -48.7208 H         1 UNK         0.0600 
    213 H213        3.1003  -26.3328  -48.9587 H         1 UNK         0.0600 
    214 H214        1.6252  -26.5702  -48.0377 H         1 UNK         0.0600 
    215 H215        0.5444  -24.4357  -51.6013 H         1 UNK         0.3000 
    216 H216        2.1925  -24.8090  -53.9160 H         1 UNK         0.0600 
    217 H217        3.3675  -22.5891  -53.7292 H         1 UNK         0.0600 
    218 H218        3.8669  -23.6502  -52.4249 H         1 UNK         0.0600 
    219 H219        2.7070  -22.3627  -52.1159 H         1 UNK         0.0600 
    220 H220        1.7571  -22.7698  -55.3718 H         1 UNK         0.3000 
    221 H221       -1.1386  -22.1017  -55.2715 H         1 UNK         0.0600 
    222 H222        0.9643  -21.7344  -57.4783 H         1 UNK         0.0600 
    223 H223       -0.2378  -23.0234  -57.4121 H         1 UNK         0.0600 
    224 H224       -0.7488  -21.3549  -57.6115 H         1 UNK         0.0600 
    225 H225       -1.7940  -19.9069  -55.4336 H         1 UNK         0.3000 
    226 H226        0.0278  -17.6867  -55.3551 H         1 UNK         0.0600 
    227 H227        0.0180  -18.3827  -52.9014 H         1 UNK         0.0600 
    228 H228       -0.7735  -16.8336  -53.1363 H         1 UNK         0.0600 
    229 H229       -1.7390  -18.2855  -52.9043 H         1 UNK         0.0600 
    230 H230       -1.3808  -15.6389  -55.2557 H         1 UNK         0.3000 
    231 H231       -3.4029  -15.7349  -57.2043 H         1 UNK         0.0600 
    232 H232       -2.7637  -13.5559  -55.1438 H         1 UNK         0.0600 
    233 H233       -3.7237  -13.3275  -56.6005 H         1 UNK         0.0600 
    234 H234       -2.0205  -13.7315  -56.7345 H         1 UNK         0.0600 
    235 H235       -3.6852  -16.2254  -53.7784 H         1 UNK         0.3000 
    236 H236       -6.5492  -15.7182  -53.5759 H         1 UNK         0.0600 
    237 H237       -5.0143  -15.2977  -51.6667 H         1 UNK         0.0600 
    238 H238       -6.1865  -16.5336  -51.2412 H         1 UNK         0.0600 
    239 H239       -4.5406  -16.9950  -51.6511 H         1 UNK         0.0600 
    240 H240       -4.7096  -18.3950  -54.7926 H         1 UNK         0.3000 
    241 H241       -7.0554  -20.1663  -54.5628 H         1 UNK         0.0600 
    242 H242       -4.7999  -20.3217  -57.8539 H         1 UNK         0.3800 
    243 H243       -4.3559  -19.1851  -56.6052 H         1 UNK         0.3800 
    244 H244       -5.8509  -20.7805  -52.5982 H         1 UNK         0.0800 
    245 H245       -5.7001  -22.0828  -53.7402 H         1 UNK         0.0800 
    246 H246       -4.2905  -21.4419  -51.1092 H         1 UNK         0.0800 
    247 H247       -2.9877  -22.4872  -51.6102 H         1 UNK         0.0800 
@<TRIPOS>BOND
     1    1    2 1    
     2    1  127 1    
     3    1  128 1    
     4    1  129 1    
     5    2    3 2    
     6    2    4 am   BACKBONE|DICT|INTERRES
     7    4    5 1    
     8    4  130 1    
     9    5    6 1    
    10    5   65 1    
    11    5  131 1    
    12    6    7 1    
    13    6  132 1    
    14    6  133 1    
    15    7    8 1    
    16    8    9 1    
    17    8  134 1    
    18    8  135 1    
    19    9   10 ar   
    20    9   14 ar   
    21   10   11 ar   
    22   10  136 1    
    23   11   12 ar   
    24   11  126 1    
    25   12   13 ar   
    26   12  137 1    
    27   13   14 ar   
    28   13   15 1    
    29   14  138 1    
    30   15   16 1    
    31   15  139 1    
    32   15  140 1    
    33   16   17 1    
    34   17   18 1    
    35   17  141 1    
    36   17  142 1    
    37   18   19 1    
    38   18   67 1    
    39   18  143 1    
    40   19   20 am   BACKBONE|DICT|INTERRES
    41   19  144 1    
    42   20   21 2    
    43   20   22 1    
    44   22   23 1    
    45   22   24 1    
    46   22  145 1    
    47   23  146 1    
    48   23  147 1    
    49   23  148 1    
    50   24   25 am   BACKBONE|DICT|INTERRES
    51   24  149 1    
    52   25   26 2    
    53   25   27 1    
    54   27   28 1    
    55   27   29 1    
    56   27  150 1    
    57   28  151 1    
    58   28  152 1    
    59   28  153 1    
    60   29   30 am   BACKBONE|DICT|INTERRES
    61   29  154 1    
    62   30   31 2    
    63   30   32 1    
    64   32   33 1    
    65   32   34 1    
    66   32  155 1    
    67   33  156 1    
    68   33  157 1    
    69   33  158 1    
    70   34   35 am   BACKBONE|DICT|INTERRES
    71   34  159 1    
    72   35   36 2    
    73   35   37 1    
    74   37   38 1    
    75   37   39 1    
    76   37  160 1    
    77   38  161 1    
    78   38  162 1    
    79   38  163 1    
    80   39   40 am   BACKBONE|DICT|INTERRES
    81   39  164 1    
    82   40   41 2    
    83   40   42 1    
    84   42   43 1    
    85   42   44 1    
    86   42  165 1    
    87   43  166 1    
    88   43  167 1    
    89   43  168 1    
    90   44   45 am   BACKBONE|DICT|INTERRES
    91   44  169 1    
    92   45   46 2    
    93   45   47 1    
    94   47   48 1    
    95   47   49 1    
    96   47  170 1    
    97   48  171 1    
    98   48  172 1    
    99   48  173 1    
   100   49   50 am   BACKBONE|DICT|INTERRES
   101   49  174 1    
   102   50   51 2    
   103   50   52 1    
   104   52   53 1    
   105   52   54 1    
   106   52  175 1    
   107   53  176 1    
   108   53  177 1    
   109   53  178 1    
   110   54   55 am   BACKBONE|DICT|INTERRES
   111   54  179 1    
   112   55   56 2    
   113   55   57 1    
   114   57   58 1    
   115   57   59 1    
   116   57  180 1    
   117   58  181 1    
   118   58  182 1    
   119   58  183 1    
   120   59   60 am   BACKBONE|DICT|INTERRES
   121   59  184 1    
   122   60   61 2    
   123   60   62 1    
   124   62   63 1    
   125   62   64 1    
   126   62  185 1    
   127   63  186 1    
   128   63  187 1    
   129   63  188 1    
   130   64   65 am   BACKBONE|DICT|INTERRES
   131   64  189 1    
   132   65   66 2    
   133   67   68 2    
   134   67   69 am   BACKBONE|DICT|INTERRES
   135   69   70 1    
   136   69  190 1    
   137   70   71 1    
   138   70   72 1    
   139   70  191 1    
   140   71  192 1    
   141   71  193 1    
   142   71  194 1    
   143   72   73 2    
   144   72   74 am   BACKBONE|DICT|INTERRES
   145   74   75 1    
   146   74  195 1    
   147   75   76 1    
   148   75   77 1    
   149   75  196 1    
   150   76  197 1    
   151   76  198 1    
   152   76  199 1    
   153   77   78 2    
   154   77   79 am   BACKBONE|DICT|INTERRES
   155   79   80 1    
   156   79  200 1    
   157   80   81 1    
   158   80   82 1    
   159   80  201 1    
   160   81  202 1    
   161   81  203 1    
   162   81  204 1    
   163   82   83 2    
   164   82   84 am   BACKBONE|DICT|INTERRES
   165   84   85 1    
   166   84  205 1    
   167   85   86 1    
   168   85   87 1    
   169   85  206 1    
   170   86  207 1    
   171   86  208 1    
   172   86  209 1    
   173   87   88 2    
   174   87   89 am   BACKBONE|DICT|INTERRES
   175   89   90 1    
   176   89  210 1    
   177   90   91 1    
   178   90   92 1    
   179   90  211 1    
   180   91  212 1    
   181   91  213 1    
   182   91  214 1    
   183   92   93 2    
   184   92   94 am   BACKBONE|DICT|INTERRES
   185   94   95 1    
   186   94  215 1    
   187   95   96 1    
   188   95   97 1    
   189   95  216 1    
   190   96  217 1    
   191   96  218 1    
   192   96  219 1    
   193   97   98 2    
   194   97   99 am   BACKBONE|DICT|INTERRES
   195   99  100 1    
   196   99  220 1    
   197  100  101 1    
   198  100  102 1    
   199  100  221 1    
   200  101  222 1    
   201  101  223 1    
   202  101  224 1    
   203  102  103 2    
   204  102  104 am   BACKBONE|DICT|INTERRES
   205  104  105 1    
   206  104  225 1    
   207  105  106 1    
   208  105  107 1    
   209  105  226 1    
   210  106  227 1    
   211  106  228 1    
   212  106  229 1    
   213  107  108 2    
   214  107  109 am   BACKBONE|DICT|INTERRES
   215  109  110 1    
   216  109  230 1    
   217  110  111 1    
   218  110  112 1    
   219  110  231 1    
   220  111  232 1    
   221  111  233 1    
   222  111  234 1    
   223  112  113 2    
   224  112  114 am   BACKBONE|DICT|INTERRES
   225  114  115 1    
   226  114  235 1    
   227  115  116 1    
   228  115  117 1    
   229  115  236 1    
   230  116  237 1    
   231  116  238 1    
   232  116  239 1    
   233  117  118 2    
   234  117  119 am   BACKBONE|DICT|INTERRES
   235  119  120 1    
   236  119  240 1    
   237  120  121 1    
   238  120  124 1    
   239  120  241 1    
   240  121  122 am   BACKBONE|DICT|INTERRES
   241  121  123 2    
   242  122  242 1    
   243  122  243 1    
   244  124  125 1    
   245  124  244 1    
   246  124  245 1    
   247  125  126 1    
   248  126  246 1    
   249  126  247 1    
@<TRIPOS>SUBSTRUCTURE
     1 UNK         1 GROUP             0       ****    0 ROOT    
