@<TRIPOS>MOLECULE
3R540
247   249    1
SMALL
USER_CHARGES


@<TRIPOS>ATOM
      1 CA         -0.6615  -13.0120  -42.8930 C.3       0 UNK        -0.1800 
      2 C          -1.6179  -12.3448  -43.8693 C.2       0 UNK         0.5000 
      3 O          -2.1489  -11.2776  -43.5621 O.2       0 UNK        -0.5000 
      4 N          -1.8230  -12.9530  -45.0472 N.am      1 UNK        -0.5000 
      5 CA         -2.7882  -12.5362  -46.0831 C.3       1 UNK         0.1400 
      6 C6         -2.8074  -13.5151  -47.2809 C.3       23 UNK        -0.0398 
      7 S7         -3.3932  -15.1757  -46.8189 S.3       23 UNK        -0.2404 
      8 C8         -3.4375  -15.9861  -48.4478 C.3       23 UNK        -0.0205 
      9 C9         -2.0489  -16.4104  -48.9000 C.ar      23 UNK        -0.0193 
     10 C10        -1.2775  -15.5778  -49.7150 C.ar      23 UNK        -0.1150 
     11 C11         0.0092  -15.9622  -50.1022 C.ar      23 UNK        -0.0193 
     12 C12         0.5189  -17.1921  -49.6745 C.ar      23 UNK        -0.1150 
     13 C13        -0.2455  -18.0381  -48.8665 C.ar      23 UNK        -0.0193 
     14 C14        -1.5322  -17.6409  -48.4904 C.ar      23 UNK        -0.1150 
     15 C15         0.3414  -19.3528  -48.3691 C.3       23 UNK        -0.0205 
     16 S16        -0.0691  -20.7565  -49.4491 S.3       23 UNK        -0.2404 
     17 C17        -1.7206  -21.2239  -48.8300 C.3       23 UNK        -0.0398 
     18 CA         -1.7122  -22.5556  -48.0488 C.3       11 UNK         0.1400 
     19 N          -0.7892  -22.5683  -46.9090 N.am      11 UNK        -0.5000 
     20 C          -0.4050  -23.6863  -46.2772 C.2       10 UNK         0.5000 
     21 O          -0.7715  -24.8153  -46.6008 O.2       10 UNK        -0.5000 
     22 CA          0.4949  -23.5087  -45.0453 C.3       10 UNK         0.1400 
     23 CB          1.9539  -23.2701  -45.4632 C.3       10 UNK        -0.1800 
     24 N           0.0315  -22.4172  -44.1881 N.am      10 UNK        -0.5000 
     25 C          -1.0862  -22.4723  -43.4487 C.2       9 UNK         0.5000 
     26 O          -1.8323  -23.4507  -43.4209 O.2       9 UNK        -0.5000 
     27 CA         -1.4565  -21.2288  -42.6170 C.3       9 UNK         0.1400 
     28 CB         -0.8508  -21.3291  -41.2094 C.3       9 UNK        -0.1800 
     29 N          -1.0523  -19.9596  -43.2202 N.am      9 UNK        -0.5000 
     30 C          -1.4670  -19.4984  -44.4075 C.2       8 UNK         0.5000 
     31 O          -2.2348  -20.1065  -45.1558 O.2       8 UNK        -0.5000 
     32 CA         -0.8778  -18.1471  -44.8530 C.3       8 UNK         0.1400 
     33 CB         -1.6271  -16.9909  -44.1746 C.3       8 UNK        -0.1800 
     34 N           0.5633  -17.9698  -44.6393 N.am      8 UNK        -0.5000 
     35 C           1.5527  -18.8626  -44.8113 C.2       7 UNK         0.5000 
     36 O           1.3670  -20.0326  -45.1434 O.2       7 UNK        -0.5000 
     37 CA          3.0040  -18.3825  -44.5911 C.3       7 UNK         0.1400 
     38 CB          3.8394  -18.5995  -45.8638 C.3       7 UNK        -0.1800 
     39 N           3.1165  -16.9767  -44.1999 N.am      7 UNK        -0.5000 
     40 C           2.7704  -16.4516  -43.0170 C.2       6 UNK         0.5000 
     41 O           2.3770  -17.1238  -42.0638 O.2       6 UNK        -0.5000 
     42 CA          2.8385  -14.9161  -42.8904 C.3       6 UNK         0.1400 
     43 CB          3.9926  -14.4960  -41.9680 C.3       6 UNK        -0.1800 
     44 N           2.9846  -14.2148  -44.1699 N.am      6 UNK        -0.5000 
     45 C           2.0738  -14.1417  -45.1489 C.2       5 UNK         0.5000 
     46 O           0.9783  -14.7032  -45.0986 O.2       5 UNK        -0.5000 
     47 CA          2.4618  -13.2870  -46.3753 C.3       5 UNK         0.1400 
     48 CB          1.3386  -13.2170  -47.4262 C.3       5 UNK        -0.1800 
     49 N           2.8447  -11.9251  -45.9904 N.am      5 UNK        -0.5000 
     50 C           4.0147  -11.5597  -45.4455 C.2       4 UNK         0.5000 
     51 O           4.9411  -12.3446  -45.2382 O.2       4 UNK        -0.5000 
     52 CA          4.1597  -10.0847  -45.0265 C.3       4 UNK         0.1400 
     53 CB          4.8054   -9.2667  -46.1545 C.3       4 UNK        -0.1800 
     54 N           2.8818   -9.4703  -44.6643 N.am      4 UNK        -0.5000 
     55 C           2.1698   -9.7402  -43.5632 C.2       3 UNK         0.5000 
     56 O           2.5382  -10.5243  -42.6889 O.2       3 UNK        -0.5000 
     57 CA          0.7987   -9.0464  -43.4328 C.3       3 UNK         0.1400 
     58 CB          0.9493   -7.5616  -43.0507 C.3       3 UNK        -0.1800 
     59 N          -0.0675   -9.2244  -44.6076 N.am      3 UNK        -0.5000 
     60 C           0.0941   -8.7643  -45.8597 C.2       2 UNK         0.5000 
     61 O           1.0232   -8.0324  -46.2041 O.2       2 UNK        -0.5000 
     62 CA         -0.9132   -9.2686  -46.9093 C.3       2 UNK         0.1400 
     63 CB         -0.3448   -9.2505  -48.3406 C.3       2 UNK        -0.1800 
     64 N          -1.3268  -10.6298  -46.5755 N.am      2 UNK        -0.5000 
     65 C          -2.5789  -11.0951  -46.6002 C.2       1 UNK         0.5000 
     66 O          -3.5466  -10.4421  -46.9929 O.2       1 UNK        -0.5000 
     67 C          -3.1390  -22.9337  -47.6075 C.2       11 UNK         0.5000 
     68 O          -3.8240  -23.6439  -48.3410 O.2       11 UNK        -0.5000 
     69 N          -3.5482  -22.4950  -46.4065 N.am      12 UNK        -0.5000 
     70 CA         -4.8244  -22.8561  -45.7867 C.3       12 UNK         0.1400 
     71 CB         -5.0409  -22.0245  -44.5144 C.3       12 UNK        -0.1800 
     72 C          -4.9293  -24.3634  -45.4873 C.2       12 UNK         0.5000 
     73 O          -5.9449  -24.9747  -45.8199 O.2       12 UNK        -0.5000 
     74 N          -3.8624  -24.9505  -44.9235 N.am      13 UNK        -0.5000 
     75 CA         -3.7354  -26.3926  -44.6829 C.3       13 UNK         0.1400 
     76 CB         -2.4717  -26.6635  -43.8532 C.3       13 UNK        -0.1800 
     77 C          -3.7178  -27.2199  -45.9838 C.2       13 UNK         0.5000 
     78 O          -4.2527  -28.3281  -46.0128 O.2       13 UNK        -0.5000 
     79 N          -3.1439  -26.6416  -47.0458 N.am      14 UNK        -0.5000 
     80 CA         -3.1222  -27.1726  -48.4087 C.3       14 UNK         0.1400 
     81 CB         -1.9297  -26.5424  -49.1399 C.3       14 UNK        -0.1800 
     82 C          -4.4306  -26.9292  -49.1946 C.2       14 UNK         0.5000 
     83 O          -4.4797  -27.2490  -50.3862 O.2       14 UNK        -0.5000 
     84 N          -5.4440  -26.3349  -48.5419 N.am      15 UNK        -0.5000 
     85 CA         -6.7789  -25.9926  -49.0500 C.3       15 UNK         0.1400 
     86 CB         -7.5773  -27.2779  -49.3507 C.3       15 UNK        -0.1800 
     87 C          -6.7617  -25.0181  -50.2475 C.2       15 UNK         0.5000 
     88 O          -7.6974  -25.0170  -51.0489 O.2       15 UNK        -0.5000 
     89 N          -5.6758  -24.2390  -50.3690 N.am      16 UNK        -0.5000 
     90 CA         -5.2950  -23.3864  -51.4996 C.3       16 UNK         0.1400 
     91 CB         -6.2617  -22.1924  -51.6334 C.3       16 UNK        -0.1800 
     92 C          -5.1137  -24.1580  -52.8299 C.2       16 UNK         0.5000 
     93 O          -5.1149  -23.5349  -53.8929 O.2       16 UNK        -0.5000 
     94 N          -4.9775  -25.4902  -52.7564 N.am      17 UNK        -0.5000 
     95 CA         -4.9694  -26.4004  -53.8974 C.3       17 UNK         0.1400 
     96 CB         -6.0371  -27.4859  -53.6811 C.3       17 UNK        -0.1800 
     97 C          -3.5826  -27.0246  -54.0875 C.2       17 UNK         0.5000 
     98 O          -3.0214  -26.9245  -55.1791 O.2       17 UNK        -0.5000 
     99 N          -3.0409  -27.6420  -53.0263 N.am      18 UNK        -0.5000 
    100 CA        -1.7122  -28.2677  -53.0466 C.3       18 UNK         0.1400 
    101 CB        -1.6361  -29.3582  -51.9652 C.3       18 UNK        -0.1800 
    102 C         -0.5637  -27.2434  -52.9230 C.2       18 UNK         0.5000 
    103 O          0.5725  -27.5547  -53.2814 O.2       18 UNK        -0.5000 
    104 N         -0.8899  -26.0353  -52.4543 N.am      19 UNK        -0.5000 
    105 CA        -0.0458  -24.8512  -52.4333 C.3       19 UNK         0.1400 
    106 CB         0.7287  -24.7611  -51.1068 C.3       19 UNK        -0.1800 
    107 C         -1.0030  -23.6717  -52.6221 C.2       19 UNK         0.5000 
    108 O         -1.8934  -23.4862  -51.7905 O.2       19 UNK        -0.5000 
    109 N         -0.8597  -22.9503  -53.7391 N.am      20 UNK        -0.5000 
    110 CA        -1.7378  -21.8458  -54.1200 C.3       20 UNK         0.1400 
    111 CB        -1.4727  -21.4688  -55.5857 C.3       20 UNK        -0.1800 
    112 C         -1.5462  -20.6270  -53.2036 C.2       20 UNK         0.5000 
    113 O         -0.4111  -20.1971  -52.9899 O.2       20 UNK        -0.5000 
    114 N         -2.6603  -20.0617  -52.7257 N.am      21 UNK        -0.5000 
    115 CA        -2.7177  -18.9102  -51.8213 C.3       21 UNK         0.1400 
    116 CB        -4.0509  -18.9745  -51.0530 C.3       21 UNK        -0.1800 
    117 C         -2.5141  -17.5626  -52.5512 C.2       21 UNK         0.5000 
    118 O         -3.2870  -16.6258  -52.3441 O.2       21 UNK        -0.5000 
    119 N         -1.4961  -17.5028  -53.4195 N.am      22 UNK        -0.5000 
    120 CA        -1.1090  -16.3505  -54.2550 C.3       22 UNK         0.1400 
    121 C         -2.1864  -15.8822  -55.2849 C.2       22 UNK         0.5000 
    122 N         -3.1726  -16.7012  -55.6301 N.am      22 UNK        -0.7600 
    123 O         -2.1119  -14.7762  -55.8141 O.2       22 UNK        -0.5000 
    124 C124       -0.5131  -15.1804  -53.4217 C.3       23 UNK        -0.0398 
    125 S125        1.0764  -15.6377  -52.6476 S.3       23 UNK        -0.2404 
    126 C126        0.8699  -15.0336  -50.9440 C.3       23 UNK        -0.0205 
    127 H127        0.3380  -12.5900  -42.9973 H         1 UNK         0.0600 
    128 H128       -0.6067  -14.0874  -43.0608 H         1 UNK         0.0600 
    129 H129       -0.9942  -12.8521  -41.8675 H         1 UNK         0.0600 
    130 H130       -1.3291  -13.8157  -45.2378 H         1 UNK         0.3000 
    131 H131       -3.7753  -12.5527  -45.6165 H         1 UNK         0.0600 
    132 H132       -1.8124  -13.5994  -47.7196 H         1 UNK         0.0800 
    133 H133       -3.4647  -13.1454  -48.0707 H         1 UNK         0.0800 
    134 H134       -4.0839  -16.8613  -48.3747 H         1 UNK         0.0800 
    135 H135       -3.8993  -15.3292  -49.1866 H         1 UNK         0.0800 
    136 H136       -1.6753  -14.6260  -50.0372 H         1 UNK         0.1150 
    137 H137        1.5173  -17.4862  -49.9666 H         1 UNK         0.1150 
    138 H138       -2.1357  -18.2739  -47.8581 H         1 UNK         0.1150 
    139 H139        1.4272  -19.2709  -48.3018 H         1 UNK         0.0800 
    140 H140       -0.0042  -19.5651  -47.3592 H         1 UNK         0.0800 
    141 H141       -2.3723  -21.3124  -49.7008 H         1 UNK         0.0800 
    142 H142       -2.1374  -20.4282  -48.2153 H         1 UNK         0.0800 
    143 H143       -1.3771  -23.3262  -48.7450 H         1 UNK         0.0600 
    144 H144       -0.4614  -21.6766  -46.5672 H         1 UNK         0.3000 
    145 H145        0.4582  -24.4341  -44.4664 H         1 UNK         0.0600 
    146 H146        2.5974  -23.1349  -44.5938 H         1 UNK         0.0600 
    147 H147        2.3392  -24.1218  -46.0250 H         1 UNK         0.0600 
    148 H148        2.0574  -22.3895  -46.0978 H         1 UNK         0.0600 
    149 H149        0.5542  -21.5476  -44.2388 H         1 UNK         0.3000 
    150 H150       -2.5430  -21.2118  -42.5172 H         1 UNK         0.0600 
    151 H151       -1.1530  -22.2554  -40.7189 H         1 UNK         0.0600 
    152 H152       -1.1821  -20.5053  -40.5769 H         1 UNK         0.0600 
    153 H153        0.2395  -21.3135  -41.2390 H         1 UNK         0.0600 
    154 H154       -0.3949  -19.3994  -42.6975 H         1 UNK         0.3000 
    155 H155       -1.0440  -18.0597  -45.9213 H         1 UNK         0.0600 
    156 H156       -1.4273  -16.9529  -43.1032 H         1 UNK         0.0600 
    157 H157       -2.7055  -17.0891  -44.3071 H         1 UNK         0.0600 
    158 H158       -1.3382  -16.0321  -44.6035 H         1 UNK         0.0600 
    159 H159        0.8436  -17.0259  -44.4108 H         1 UNK         0.3000 
    160 H160        3.4272  -18.9955  -43.7930 H         1 UNK         0.0600 
    161 H161        3.4528  -18.0180  -46.7018 H         1 UNK         0.0600 
    162 H162        3.8356  -19.6484  -46.1638 H         1 UNK         0.0600 
    163 H163        4.8799  -18.3144  -45.7072 H         1 UNK         0.0600 
    164 H164        3.4249  -16.3378  -44.9174 H         1 UNK         0.3000 
    165 H165        1.9017  -14.5906  -42.4347 H         1 UNK         0.0600 
    166 H166        3.9042  -14.9669  -40.9880 H         1 UNK         0.0600 
    167 H167        4.9611  -14.7776  -42.3831 H         1 UNK         0.0600 
    168 H168        3.9958  -13.4171  -41.8095 H         1 UNK         0.0600 
    169 H169        3.8517  -13.7050  -44.3093 H         1 UNK         0.3000 
    170 H170        3.3206  -13.7719  -46.8440 H         1 UNK         0.0600 
    171 H171        1.0625  -14.2148  -47.7705 H         1 UNK         0.0600 
    172 H172        0.4406  -12.7516  -47.0246 H         1 UNK         0.0600 
    173 H173        1.6500  -12.6482  -48.3025 H         1 UNK         0.0600 
    174 H174        2.1445  -11.2096  -46.1028 H         1 UNK         0.3000 
    175 H175        4.8170  -10.0497  -44.1552 H         1 UNK         0.0600 
    176 H176        4.1785   -9.2468  -47.0470 H         1 UNK         0.0600 
    177 H177        4.9786   -8.2362  -45.8439 H         1 UNK         0.0600 
    178 H178        5.7711   -9.6866  -46.4392 H         1 UNK         0.0600 
    179 H179        2.4749   -8.8179  -45.3305 H         1 UNK         0.3000 
    180 H180        0.2773   -9.5398  -42.6107 H         1 UNK         0.0600 
    181 H181       -0.0239   -7.0934  -42.9030 H         1 UNK         0.0600 
    182 H182        1.4835   -6.9913  -43.8107 H         1 UNK         0.0600 
    183 H183        1.5049   -7.4569  -42.1180 H         1 UNK         0.0600 
    184 H184       -0.8792   -9.8081  -44.4337 H         1 UNK         0.3000 
    185 H185       -1.7686   -8.5916  -46.8651 H         1 UNK         0.0600 
    186 H186       -1.0809   -9.6098  -49.0600 H         1 UNK         0.0600 
    187 H187       -0.0666   -8.2398  -48.6417 H         1 UNK         0.0600 
    188 H188        0.5426   -9.8786  -48.4282 H         1 UNK         0.0600 
    189 H189       -0.6076  -11.2388  -46.2158 H         1 UNK         0.3000 
    190 H190       -2.9477  -21.8681  -45.8807 H         1 UNK         0.3000 
    191 H191       -5.6170  -22.6022  -46.4939 H         1 UNK         0.0600 
    192 H192       -6.0206  -22.2268  -44.0801 H         1 UNK         0.0600 
    193 H193       -4.9925  -20.9562  -44.7269 H         1 UNK         0.0600 
    194 H194       -4.2942  -22.2494  -43.7540 H         1 UNK         0.0600 
    195 H195       -3.0797  -24.3741  -44.6282 H         1 UNK         0.3000 
    196 H196       -4.6015  -26.7122  -44.0998 H         1 UNK         0.0600 
    197 H197       -1.5720  -26.3267  -44.3694 H         1 UNK         0.0600 
    198 H198       -2.5156  -26.1529  -42.8911 H         1 UNK         0.0600 
    199 H199       -2.3565  -27.7291  -43.6508 H         1 UNK         0.0600 
    200 H200       -2.6737  -25.7541  -46.9093 H         1 UNK         0.3000 
    201 H201       -2.9660  -28.2520  -48.3647 H         1 UNK         0.0600 
    202 H202       -0.9942  -26.7232  -48.6105 H         1 UNK         0.0600 
    203 H203       -2.0535  -25.4669  -49.2524 H         1 UNK         0.0600 
    204 H204       -1.8183  -26.9542  -50.1372 H         1 UNK         0.0600 
    205 H205       -5.2800  -26.0595  -47.5813 H         1 UNK         0.3000 
    206 H206       -7.2872  -25.4668  -48.2408 H         1 UNK         0.0600 
    207 H207       -7.5797  -27.9499  -48.4925 H         1 UNK         0.0600 
    208 H208       -8.6178  -27.0493  -49.5839 H         1 UNK         0.0600 
    209 H209       -7.1631  -27.8206  -50.2012 H         1 UNK         0.0600 
    210 H210       -4.9873  -24.2712  -49.6185 H         1 UNK         0.3000 
    211 H211       -4.3182  -22.9783  -51.2439 H         1 UNK         0.0600 
    212 H212       -5.8998  -21.4745  -52.3701 H         1 UNK         0.0600 
    213 H213       -6.3619  -21.6599  -50.6876 H         1 UNK         0.0600 
    214 H214       -7.2561  -22.5094  -51.9483 H         1 UNK         0.0600 
    215 H215       -4.9516  -25.9237  -51.8396 H         1 UNK         0.3000 
    216 H216       -5.2214  -25.8663  -54.8160 H         1 UNK         0.0600 
    217 H217       -5.8653  -28.0518  -52.7645 H         1 UNK         0.0600 
    218 H218       -6.0486  -28.1949  -54.5099 H         1 UNK         0.0600 
    219 H219       -7.0324  -27.0458  -53.6150 H         1 UNK         0.0600 
    220 H220       -3.5569  -27.6762  -52.1526 H         1 UNK         0.3000 
    221 H221       -1.5790  -28.7649  -54.0099 H         1 UNK         0.0600 
    222 H222       -2.3383  -30.1641  -52.1792 H         1 UNK         0.0600 
    223 H223       -1.8675  -28.9803  -50.9717 H         1 UNK         0.0600 
    224 H224       -0.6404  -29.8017  -51.9247 H         1 UNK         0.0600 
    225 H225       -1.8552  -25.8617  -52.2089 H         1 UNK         0.3000 
    226 H226        0.6630  -24.8843  -53.2636 H         1 UNK         0.0600 
    227 H227        0.0603  -24.7074  -50.2478 H         1 UNK         0.0600 
    228 H228        1.3788  -25.6252  -50.9702 H         1 UNK         0.0600 
    229 H229        1.3575  -23.8704  -51.0858 H         1 UNK         0.0600 
    230 H230       -0.0961  -23.1539  -54.3670 H         1 UNK         0.3000 
    231 H231       -2.7701  -22.1912  -54.0403 H         1 UNK         0.0600 
    232 H232       -0.4439  -21.1397  -55.7381 H         1 UNK         0.0600 
    233 H233       -2.1275  -20.6568  -55.9045 H         1 UNK         0.0600 
    234 H234       -1.6576  -22.3135  -56.2497 H         1 UNK         0.0600 
    235 H235       -3.5515  -20.4509  -52.9957 H         1 UNK         0.3000 
    236 H236       -1.9085  -18.9968  -51.0950 H         1 UNK         0.0600 
    237 H237       -4.1539  -19.9129  -50.5088 H         1 UNK         0.0600 
    238 H238       -4.1215  -18.1704  -50.3223 H         1 UNK         0.0600 
    239 H239       -4.9057  -18.8819  -51.7239 H         1 UNK         0.0600 
    240 H240       -0.9042  -18.3237  -53.4926 H         1 UNK         0.3000 
    241 H241       -0.3059  -16.7249  -54.8905 H         1 UNK         0.0600 
    242 H242       -3.8569  -16.3963  -56.3046 H         1 UNK         0.3800 
    243 H243       -3.2523  -17.6126  -55.2103 H         1 UNK         0.3800 
    244 H244       -1.2252  -14.8456  -52.6668 H         1 UNK         0.0800 
    245 H245       -0.3103  -14.3124  -54.0507 H         1 UNK         0.0800 
    246 H246        1.8545  -14.9516  -50.4815 H         1 UNK         0.0800 
    247 H247        0.4595  -14.0227  -50.9595 H         1 UNK         0.0800 
@<TRIPOS>BOND
     1    1    2 1    
     2    1  127 1    
     3    1  128 1    
     4    1  129 1    
     5    2    3 2    
     6    2    4 am   BACKBONE|DICT|INTERRES
     7    4    5 1    
     8    4  130 1    
     9    5    6 1    
    10    5   65 1    
    11    5  131 1    
    12    6    7 1    
    13    6  132 1    
    14    6  133 1    
    15    7    8 1    
    16    8    9 1    
    17    8  134 1    
    18    8  135 1    
    19    9   10 ar   
    20    9   14 ar   
    21   10   11 ar   
    22   10  136 1    
    23   11   12 ar   
    24   11  126 1    
    25   12   13 ar   
    26   12  137 1    
    27   13   14 ar   
    28   13   15 1    
    29   14  138 1    
    30   15   16 1    
    31   15  139 1    
    32   15  140 1    
    33   16   17 1    
    34   17   18 1    
    35   17  141 1    
    36   17  142 1    
    37   18   19 1    
    38   18   67 1    
    39   18  143 1    
    40   19   20 am   BACKBONE|DICT|INTERRES
    41   19  144 1    
    42   20   21 2    
    43   20   22 1    
    44   22   23 1    
    45   22   24 1    
    46   22  145 1    
    47   23  146 1    
    48   23  147 1    
    49   23  148 1    
    50   24   25 am   BACKBONE|DICT|INTERRES
    51   24  149 1    
    52   25   26 2    
    53   25   27 1    
    54   27   28 1    
    55   27   29 1    
    56   27  150 1    
    57   28  151 1    
    58   28  152 1    
    59   28  153 1    
    60   29   30 am   BACKBONE|DICT|INTERRES
    61   29  154 1    
    62   30   31 2    
    63   30   32 1    
    64   32   33 1    
    65   32   34 1    
    66   32  155 1    
    67   33  156 1    
    68   33  157 1    
    69   33  158 1    
    70   34   35 am   BACKBONE|DICT|INTERRES
    71   34  159 1    
    72   35   36 2    
    73   35   37 1    
    74   37   38 1    
    75   37   39 1    
    76   37  160 1    
    77   38  161 1    
    78   38  162 1    
    79   38  163 1    
    80   39   40 am   BACKBONE|DICT|INTERRES
    81   39  164 1    
    82   40   41 2    
    83   40   42 1    
    84   42   43 1    
    85   42   44 1    
    86   42  165 1    
    87   43  166 1    
    88   43  167 1    
    89   43  168 1    
    90   44   45 am   BACKBONE|DICT|INTERRES
    91   44  169 1    
    92   45   46 2    
    93   45   47 1    
    94   47   48 1    
    95   47   49 1    
    96   47  170 1    
    97   48  171 1    
    98   48  172 1    
    99   48  173 1    
   100   49   50 am   BACKBONE|DICT|INTERRES
   101   49  174 1    
   102   50   51 2    
   103   50   52 1    
   104   52   53 1    
   105   52   54 1    
   106   52  175 1    
   107   53  176 1    
   108   53  177 1    
   109   53  178 1    
   110   54   55 am   BACKBONE|DICT|INTERRES
   111   54  179 1    
   112   55   56 2    
   113   55   57 1    
   114   57   58 1    
   115   57   59 1    
   116   57  180 1    
   117   58  181 1    
   118   58  182 1    
   119   58  183 1    
   120   59   60 am   BACKBONE|DICT|INTERRES
   121   59  184 1    
   122   60   61 2    
   123   60   62 1    
   124   62   63 1    
   125   62   64 1    
   126   62  185 1    
   127   63  186 1    
   128   63  187 1    
   129   63  188 1    
   130   64   65 am   BACKBONE|DICT|INTERRES
   131   64  189 1    
   132   65   66 2    
   133   67   68 2    
   134   67   69 am   BACKBONE|DICT|INTERRES
   135   69   70 1    
   136   69  190 1    
   137   70   71 1    
   138   70   72 1    
   139   70  191 1    
   140   71  192 1    
   141   71  193 1    
   142   71  194 1    
   143   72   73 2    
   144   72   74 am   BACKBONE|DICT|INTERRES
   145   74   75 1    
   146   74  195 1    
   147   75   76 1    
   148   75   77 1    
   149   75  196 1    
   150   76  197 1    
   151   76  198 1    
   152   76  199 1    
   153   77   78 2    
   154   77   79 am   BACKBONE|DICT|INTERRES
   155   79   80 1    
   156   79  200 1    
   157   80   81 1    
   158   80   82 1    
   159   80  201 1    
   160   81  202 1    
   161   81  203 1    
   162   81  204 1    
   163   82   83 2    
   164   82   84 am   BACKBONE|DICT|INTERRES
   165   84   85 1    
   166   84  205 1    
   167   85   86 1    
   168   85   87 1    
   169   85  206 1    
   170   86  207 1    
   171   86  208 1    
   172   86  209 1    
   173   87   88 2    
   174   87   89 am   BACKBONE|DICT|INTERRES
   175   89   90 1    
   176   89  210 1    
   177   90   91 1    
   178   90   92 1    
   179   90  211 1    
   180   91  212 1    
   181   91  213 1    
   182   91  214 1    
   183   92   93 2    
   184   92   94 am   BACKBONE|DICT|INTERRES
   185   94   95 1    
   186   94  215 1    
   187   95   96 1    
   188   95   97 1    
   189   95  216 1    
   190   96  217 1    
   191   96  218 1    
   192   96  219 1    
   193   97   98 2    
   194   97   99 am   BACKBONE|DICT|INTERRES
   195   99  100 1    
   196   99  220 1    
   197  100  101 1    
   198  100  102 1    
   199  100  221 1    
   200  101  222 1    
   201  101  223 1    
   202  101  224 1    
   203  102  103 2    
   204  102  104 am   BACKBONE|DICT|INTERRES
   205  104  105 1    
   206  104  225 1    
   207  105  106 1    
   208  105  107 1    
   209  105  226 1    
   210  106  227 1    
   211  106  228 1    
   212  106  229 1    
   213  107  108 2    
   214  107  109 am   BACKBONE|DICT|INTERRES
   215  109  110 1    
   216  109  230 1    
   217  110  111 1    
   218  110  112 1    
   219  110  231 1    
   220  111  232 1    
   221  111  233 1    
   222  111  234 1    
   223  112  113 2    
   224  112  114 am   BACKBONE|DICT|INTERRES
   225  114  115 1    
   226  114  235 1    
   227  115  116 1    
   228  115  117 1    
   229  115  236 1    
   230  116  237 1    
   231  116  238 1    
   232  116  239 1    
   233  117  118 2    
   234  117  119 am   BACKBONE|DICT|INTERRES
   235  119  120 1    
   236  119  240 1    
   237  120  121 1    
   238  120  124 1    
   239  120  241 1    
   240  121  122 am   BACKBONE|DICT|INTERRES
   241  121  123 2    
   242  122  242 1    
   243  122  243 1    
   244  124  125 1    
   245  124  244 1    
   246  124  245 1    
   247  125  126 1    
   248  126  246 1    
   249  126  247 1    
@<TRIPOS>SUBSTRUCTURE
     1 UNK         1 GROUP             0       ****    0 ROOT    
