@<TRIPOS>MOLECULE
3R540
247   249    1
SMALL
USER_CHARGES


@<TRIPOS>ATOM
      1 CA          2.4509   -9.7274  -53.6433 C.3       0 UNK        -0.1800 
      2 C           2.7276  -11.1558  -53.1962 C.2       0 UNK         0.5000 
      3 O           3.8285  -11.6632  -53.4099 O.2       0 UNK        -0.5000 
      4 N           1.7363  -11.8027  -52.5706 N.am      1 UNK        -0.5000 
      5 CA          1.8106  -13.1820  -52.0693 C.3       1 UNK         0.1400 
      6 C6          0.4159  -13.8549  -52.0330 C.3       23 UNK        -0.0398 
      7 S7         -0.8312  -12.9747  -51.0223 S.3       23 UNK        -0.2404 
      8 C8         -0.8902  -13.9858  -49.5066 C.3       23 UNK        -0.0205 
      9 C9         -1.4202  -15.3863  -49.7675 C.ar      23 UNK        -0.0193 
     10 C10        -2.7767  -15.5852  -50.0412 C.ar      23 UNK        -0.1150 
     11 C11        -3.2619  -16.8671  -50.3146 C.ar      23 UNK        -0.0193 
     12 C12        -2.3865  -17.9556  -50.2728 C.ar      23 UNK        -0.1150 
     13 C13        -1.0277  -17.7671  -50.0194 C.ar      23 UNK        -0.0193 
     14 C14        -0.5510  -16.4810  -49.7554 C.ar      23 UNK        -0.1150 
     15 C15        -0.0657  -18.9405  -50.0829 C.3       23 UNK        -0.0205 
     16 S16         0.3206  -19.5871  -48.4356 S.3       23 UNK        -0.2404 
     17 C17        -1.1913  -20.5061  -47.9746 C.3       23 UNK        -0.0398 
     18 CA         -0.8557  -21.9421  -47.5072 C.3       11 UNK         0.1400 
     19 N           0.0524  -21.9539  -46.3532 N.am      11 UNK        -0.5000 
     20 C           0.7034  -23.0331  -45.9018 C.2       10 UNK         0.5000 
     21 O           0.6152  -24.1432  -46.4224 O.2       10 UNK        -0.5000 
     22 CA          1.5561  -22.8597  -44.6315 C.3       10 UNK         0.1400 
     23 CB          2.9291  -22.2545  -44.9602 C.3       10 UNK        -0.1800 
     24 N           0.8826  -22.0503  -43.6150 N.am      10 UNK        -0.5000 
     25 C          -0.2144  -22.4425  -42.9521 C.2       9 UNK         0.5000 
     26 O          -0.7391  -23.5466  -43.1020 O.2       9 UNK        -0.5000 
     27 CA         -0.8578  -21.4214  -41.9931 C.3       9 UNK         0.1400 
     28 CB         -0.1321  -21.4104  -40.6397 C.3       9 UNK        -0.1800 
     29 N          -0.8940  -20.0644  -42.5409 N.am      9 UNK        -0.5000 
     30 C          -1.5700  -19.7107  -43.6439 C.2       8 UNK         0.5000 
     31 O          -2.2795  -20.4812  -44.2877 O.2       8 UNK        -0.5000 
     32 CA         -1.3728  -18.2734  -44.1559 C.3       8 UNK         0.1400 
     33 CB         -2.2851  -17.2945  -43.4027 C.3       8 UNK        -0.1800 
     34 N           0.0154  -17.8194  -44.0715 N.am      8 UNK        -0.5000 
     35 C           1.0564  -18.4251  -44.6599 C.2       7 UNK         0.5000 
     36 O           0.9589  -19.4489  -45.3298 O.2       7 UNK        -0.5000 
     37 CA          2.4489  -17.8377  -44.3893 C.3       7 UNK         0.1400 
     38 CB          2.6692  -16.5338  -45.1714 C.3       7 UNK        -0.1800 
     39 N           2.6592  -17.6152  -42.9602 N.am      7 UNK        -0.5000 
     40 C           2.7586  -18.5977  -42.0524 C.2       6 UNK         0.5000 
     41 O           2.7466  -19.7965  -42.3341 O.2       6 UNK        -0.5000 
     42 CA          2.8505  -18.1637  -40.5785 C.3       6 UNK         0.1400 
     43 CB          4.3074  -17.8718  -40.1895 C.3       6 UNK        -0.1800 
     44 N           2.0261  -16.9891  -40.2875 N.am      6 UNK        -0.5000 
     45 C           0.6856  -16.9854  -40.2969 C.2       5 UNK         0.5000 
     46 O          -0.0010  -17.9805  -40.5310 O.2       5 UNK        -0.5000 
     47 CA          0.0051  -15.6242  -40.0536 C.3       5 UNK         0.1400 
     48 CB         -0.0505  -15.3036  -38.5524 C.3       5 UNK        -0.1800 
     49 N           0.6565  -14.5196  -40.7685 N.am      5 UNK        -0.5000 
     50 C           0.7309  -14.4378  -42.1026 C.2       4 UNK         0.5000 
     51 O           0.2734  -15.2973  -42.8601 O.2       4 UNK        -0.5000 
     52 CA          1.4589  -13.2258  -42.7006 C.3       4 UNK         0.1400 
     53 CB          2.9857  -13.4072  -42.5909 C.3       4 UNK        -0.1800 
     54 N           1.0479  -13.1354  -44.0977 N.am      4 UNK        -0.5000 
     55 C           1.3020  -12.1545  -44.9656 C.2       3 UNK         0.5000 
     56 O           1.9359  -11.1320  -44.6938 O.2       3 UNK        -0.5000 
     57 CA          0.7061  -12.3407  -46.3756 C.3       3 UNK         0.1400 
     58 CB         -0.5586  -11.4818  -46.5351 C.3       3 UNK        -0.1800 
     59 N           1.6489  -11.9972  -47.4401 N.am      3 UNK        -0.5000 
     60 C           2.8295  -12.5946  -47.6527 C.2       2 UNK         0.5000 
     61 O           3.2501  -13.5447  -46.9901 O.2       2 UNK        -0.5000 
     62 CA          3.6476  -12.0365  -48.8340 C.3       2 UNK         0.1400 
     63 CB          5.0689  -12.6314  -48.9276 C.3       2 UNK        -0.1800 
     64 N           2.9337  -12.1750  -50.1090 N.am      2 UNK        -0.5000 
     65 C           2.5561  -13.3116  -50.7190 C.2       1 UNK         0.5000 
     66 O           2.7740  -14.4365  -50.2681 O.2       1 UNK        -0.5000 
     67 C          -2.1347  -22.7672  -47.2413 C.2       11 UNK         0.5000 
     68 O          -2.6321  -23.4339  -48.1540 O.2       11 UNK        -0.5000 
     69 N          -2.6176  -22.7483  -45.9897 N.am      12 UNK        -0.5000 
     70 CA         -3.7043  -23.5931  -45.4995 C.3       12 UNK         0.1400 
     71 CB         -4.1612  -23.1302  -44.1091 C.3       12 UNK        -0.1800 
     72 C          -3.3335  -25.0848  -45.4984 C.2       12 UNK         0.5000 
     73 O          -4.1304  -25.9053  -45.9535 O.2       12 UNK        -0.5000 
     74 N          -2.1195  -25.4081  -45.0337 N.am      13 UNK        -0.5000 
     75 CA         -1.5670  -26.7631  -45.0699 C.3       13 UNK         0.1400 
     76 CB         -0.2716  -26.8126  -44.2455 C.3       13 UNK        -0.1800 
     77 C          -1.3288  -27.2744  -46.5051 C.2       13 UNK         0.5000 
     78 O          -1.5419  -28.4588  -46.7669 O.2       13 UNK        -0.5000 
     79 N          -0.9024  -26.3752  -47.4030 N.am      14 UNK        -0.5000 
     80 CA         -0.6397  -26.6563  -48.8118 C.3       14 UNK         0.1400 
     81 CB          0.1255  -25.4834  -49.4463 C.3       14 UNK        -0.1800 
     82 C          -1.9140  -26.9754  -49.6123 C.2       14 UNK         0.5000 
     83 O          -1.9777  -28.0370  -50.2347 O.2       14 UNK        -0.5000 
     84 N          -2.8919  -26.0575  -49.6059 N.am      15 UNK        -0.5000 
     85 CA         -4.0917  -26.1551  -50.4429 C.3       15 UNK         0.1400 
     86 CB         -3.7497  -25.8228  -51.9116 C.3       15 UNK        -0.1800 
     87 C          -5.2457  -25.2976  -49.8981 C.2       15 UNK         0.5000 
     88 O          -5.9131  -24.6036  -50.6698 O.2       15 UNK        -0.5000 
     89 N          -5.4541  -25.3340  -48.5724 N.am      16 UNK        -0.5000 
     90 CA         -6.5656  -24.7113  -47.8313 C.3       16 UNK         0.1400 
     91 CB         -7.8979  -25.3880  -48.2164 C.3       16 UNK        -0.1800 
     92 C          -6.6556  -23.1730  -47.9544 C.2       16 UNK         0.5000 
     93 O          -7.6733  -22.5963  -47.5692 O.2       16 UNK        -0.5000 
     94 N          -5.6074  -22.5438  -48.5121 N.am      17 UNK        -0.5000 
     95 CA         -5.5480  -21.1543  -48.9767 C.3       17 UNK         0.1400 
     96 CB         -5.5115  -20.1864  -47.7768 C.3       17 UNK        -0.1800 
     97 C          -6.6546  -20.8214  -50.0089 C.2       17 UNK         0.5000 
     98 O          -7.0971  -19.6755  -50.0902 O.2       17 UNK        -0.5000 
     99 N          -7.0982  -21.8398  -50.7627 N.am      18 UNK        -0.5000 
    100 CA        -8.2006  -21.7541  -51.7224 C.3       18 UNK         0.1400 
    101 CB        -8.9574  -23.0915  -51.7165 C.3       18 UNK        -0.1800 
    102 C         -7.7175  -21.4189  -53.1438 C.2       18 UNK         0.5000 
    103 O         -8.5057  -20.9264  -53.9522 O.2       18 UNK        -0.5000 
    104 N         -6.4385  -21.6895  -53.4206 N.am      19 UNK        -0.5000 
    105 CA        -5.7568  -21.3788  -54.6716 C.3       19 UNK         0.1400 
    106 CB        -5.9846  -22.4902  -55.7122 C.3       19 UNK        -0.1800 
    107 C         -4.2739  -21.1621  -54.3626 C.2       19 UNK         0.5000 
    108 O         -3.7694  -20.0654  -54.6027 O.2       19 UNK        -0.5000 
    109 N         -3.6463  -22.1991  -53.7773 N.am      20 UNK        -0.5000 
    110 CA        -2.3014  -22.2588  -53.1875 C.3       20 UNK         0.1400 
    111 CB        -2.3912  -21.8803  -51.6934 C.3       20 UNK        -0.1800 
    112 C         -1.2351  -21.4591  -53.9661 C.2       20 UNK         0.5000 
    113 O         -0.6933  -21.9666  -54.9492 O.2       20 UNK        -0.5000 
    114 N         -0.9947  -20.2173  -53.5336 N.am      21 UNK        -0.5000 
    115 CA        -0.1999  -19.2139  -54.2321 C.3       21 UNK         0.1400 
    116 CB         1.2879  -19.3596  -53.8570 C.3       21 UNK        -0.1800 
    117 C         -0.7768  -17.8155  -53.9421 C.2       21 UNK         0.5000 
    118 O         -0.0155  -16.8800  -53.6903 O.2       21 UNK        -0.5000 
    119 N         -2.1144  -17.7045  -53.9437 N.am      22 UNK        -0.5000 
    120 CA        -2.8436  -16.4517  -53.6852 C.3       22 UNK         0.1400 
    121 C         -2.5837  -15.3565  -54.7580 C.2       22 UNK         0.5000 
    122 N         -2.5596  -14.0894  -54.3658 N.am      22 UNK        -0.7600 
    123 O         -2.4534  -15.6390  -55.9473 O.2       22 UNK        -0.5000 
    124 C124       -4.3735  -16.6669  -53.5132 C.3       23 UNK        -0.0398 
    125 S125       -4.8624  -17.9486  -52.3055 S.3       23 UNK        -0.2404 
    126 C126       -4.7157  -17.0750  -50.7111 C.3       23 UNK        -0.0205 
    127 H127        3.1543   -9.0427  -53.1696 H         1 UNK         0.0600 
    128 H128        1.4404   -9.4100  -53.3848 H         1 UNK         0.0600 
    129 H129        2.5672   -9.6437  -54.7239 H         1 UNK         0.0600 
    130 H130        0.8515  -11.3377  -52.4190 H         1 UNK         0.3000 
    131 H131        2.4062  -13.7568  -52.7821 H         1 UNK         0.0600 
    132 H132        0.0271  -13.9100  -53.0504 H         1 UNK         0.0800 
    133 H133        0.5024  -14.8941  -51.7166 H         1 UNK         0.0800 
    134 H134       -1.5403  -13.4959  -48.7817 H         1 UNK         0.0800 
    135 H135        0.1015  -14.0241  -49.0538 H         1 UNK         0.0800 
    136 H136       -3.4444  -14.7356  -50.0729 H         1 UNK         0.1150 
    137 H137       -2.7633  -18.9435  -50.4840 H         1 UNK         0.1150 
    138 H138        0.5023  -16.3309  -49.5617 H         1 UNK         0.1150 
    139 H139       -0.4557  -19.7388  -50.7126 H         1 UNK         0.0800 
    140 H140        0.8641  -18.6130  -50.5496 H         1 UNK         0.0800 
    141 H141       -1.8722  -20.5348  -48.8261 H         1 UNK         0.0800 
    142 H142       -1.7043  -19.9525  -47.1863 H         1 UNK         0.0800 
    143 H143       -0.3339  -22.4361  -48.3290 H         1 UNK         0.0600 
    144 H144        0.2362  -21.0552  -45.9104 H         1 UNK         0.3000 
    145 H145        1.7236  -23.8528  -44.2093 H         1 UNK         0.0600 
    146 H146        3.5467  -22.1706  -44.0658 H         1 UNK         0.0600 
    147 H147        3.4684  -22.8806  -45.6720 H         1 UNK         0.0600 
    148 H148        2.8430  -21.2612  -45.3998 H         1 UNK         0.0600 
    149 H149        1.2569  -21.1244  -43.4462 H         1 UNK         0.3000 
    150 H150       -1.8891  -21.7357  -41.8207 H         1 UNK         0.0600 
    151 H151       -0.1118  -22.4080  -40.1992 H         1 UNK         0.0600 
    152 H152       -0.6324  -20.7512  -39.9301 H         1 UNK         0.0600 
    153 H153        0.8999  -21.0730  -40.7379 H         1 UNK         0.0600 
    154 H154       -0.3677  -19.3546  -42.0427 H         1 UNK         0.3000 
    155 H155       -1.6557  -18.2584  -45.2104 H         1 UNK         0.0600 
    156 H156       -2.0210  -17.2303  -42.3468 H         1 UNK         0.0600 
    157 H157       -3.3285  -17.6061  -43.4638 H         1 UNK         0.0600 
    158 H158       -2.2197  -16.2916  -43.8248 H         1 UNK         0.0600 
    159 H159        0.1776  -16.9677  -43.5382 H         1 UNK         0.3000 
    160 H160        3.1901  -18.5632  -44.7319 H         1 UNK         0.0600 
    161 H161        1.9606  -15.7583  -44.8847 H         1 UNK         0.0600 
    162 H162        2.5502  -16.6995  -46.2431 H         1 UNK         0.0600 
    163 H163        3.6744  -16.1424  -45.0151 H         1 UNK         0.0600 
    164 H164        2.6372  -16.6605  -42.6378 H         1 UNK         0.3000 
    165 H165        2.4922  -18.9931  -39.9648 H         1 UNK         0.0600 
    166 H166        4.3923  -17.6351  -39.1287 H         1 UNK         0.0600 
    167 H167        4.9426  -18.7380  -40.3799 H         1 UNK         0.0600 
    168 H168        4.7168  -17.0337  -40.7550 H         1 UNK         0.0600 
    169 H169        2.5107  -16.1269  -40.0864 H         1 UNK         0.3000 
    170 H170       -1.0206  -15.7009  -40.4210 H         1 UNK         0.0600 
    171 H171       -0.5432  -16.1052  -38.0004 H         1 UNK         0.0600 
    172 H172        0.9463  -15.1773  -38.1281 H         1 UNK         0.0600 
    173 H173       -0.6135  -14.3890  -38.3654 H         1 UNK         0.0600 
    174 H174        1.0549  -13.7837  -40.2030 H         1 UNK         0.3000 
    175 H175        1.1444  -12.3235  -42.1730 H         1 UNK         0.0600 
    176 H176        3.3274  -14.2836  -43.1424 H         1 UNK         0.0600 
    177 H177        3.5200  -12.5415  -42.9817 H         1 UNK         0.0600 
    178 H178        3.2953  -13.5297  -41.5525 H         1 UNK         0.0600 
    179 H179        0.4921  -13.9324  -44.3854 H         1 UNK         0.3000 
    180 H180        0.4317  -13.3894  -46.5095 H         1 UNK         0.0600 
    181 H181       -0.9966  -11.5908  -47.5265 H         1 UNK         0.0600 
    182 H182       -0.3456  -10.4229  -46.3825 H         1 UNK         0.0600 
    183 H183       -1.3197  -11.7707  -45.8091 H         1 UNK         0.0600 
    184 H184        1.3910  -11.2191  -48.0285 H         1 UNK         0.3000 
    185 H185        3.7585  -10.9659  -48.6554 H         1 UNK         0.0600 
    186 H186        5.0533  -13.7112  -49.0777 H         1 UNK         0.0600 
    187 H187        5.6278  -12.1872  -49.7512 H         1 UNK         0.0600 
    188 H188        5.6302  -12.4393  -48.0125 H         1 UNK         0.0600 
    189 H189        2.6921  -11.3099  -50.5707 H         1 UNK         0.3000 
    190 H190       -2.2087  -22.1066  -45.3160 H         1 UNK         0.3000 
    191 H191       -4.5452  -23.4634  -46.1739 H         1 UNK         0.0600 
    192 H192       -3.3566  -23.1864  -43.3770 H         1 UNK         0.0600 
    193 H193       -4.9821  -23.7478  -43.7427 H         1 UNK         0.0600 
    194 H194       -4.5179  -22.1005  -44.1363 H         1 UNK         0.0600 
    195 H195       -1.5350  -24.6835  -44.6303 H         1 UNK         0.3000 
    196 H196       -2.2912  -27.4308  -44.5983 H         1 UNK         0.0600 
    197 H197        0.1366  -27.8236  -44.2213 H         1 UNK         0.0600 
    198 H198       -0.4493  -26.5079  -43.2139 H         1 UNK         0.0600 
    199 H199        0.4964  -26.1589  -44.6585 H         1 UNK         0.0600 
    200 H200       -0.6622  -25.4452  -47.0731 H         1 UNK         0.3000 
    201 H201        0.0078  -27.5346  -48.8571 H         1 UNK         0.0600 
    202 H202        1.0689  -25.3027  -48.9308 H         1 UNK         0.0600 
    203 H203       -0.4521  -24.5600  -49.4206 H         1 UNK         0.0600 
    204 H204        0.3612  -25.6916  -50.4906 H         1 UNK         0.0600 
    205 H205       -2.7779  -25.2040  -49.0649 H         1 UNK         0.3000 
    206 H206       -4.4562  -27.1837  -50.4076 H         1 UNK         0.0600 
    207 H207       -2.9948  -26.4985  -52.3131 H         1 UNK         0.0600 
    208 H208       -4.6274  -25.9123  -52.5528 H         1 UNK         0.0600 
    209 H209       -3.3725  -24.8067  -52.0071 H         1 UNK         0.0600 
    210 H210       -4.8234  -25.8825  -47.9980 H         1 UNK         0.3000 
    211 H211       -6.3956  -24.9188  -46.7752 H         1 UNK         0.0600 
    212 H212       -8.1797  -25.1713  -49.2473 H         1 UNK         0.0600 
    213 H213       -8.7132  -25.0468  -47.5774 H         1 UNK         0.0600 
    214 H214       -7.8360  -26.4706  -48.1062 H         1 UNK         0.0600 
    215 H215       -4.8047  -23.1131  -48.7497 H         1 UNK         0.3000 
    216 H216       -4.6012  -21.0520  -49.5085 H         1 UNK         0.0600 
    217 H217       -5.3141  -19.1647  -48.1005 H         1 UNK         0.0600 
    218 H218       -4.7232  -20.4597  -47.0748 H         1 UNK         0.0600 
    219 H219       -6.4567  -20.1808  -47.2336 H         1 UNK         0.0600 
    220 H220       -6.6920  -22.7617  -50.6287 H         1 UNK         0.3000 
    221 H221       -8.8960  -20.9706  -51.4141 H         1 UNK         0.0600 
    222 H222       -8.3152  -23.9192  -52.0205 H         1 UNK         0.0600 
    223 H223       -9.3470  -23.3178  -50.7238 H         1 UNK         0.0600 
    224 H224       -9.8062  -23.0646  -52.4009 H         1 UNK         0.0600 
    225 H225       -5.8591  -22.0429  -52.6730 H         1 UNK         0.3000 
    226 H226       -6.1474  -20.4400  -55.0709 H         1 UNK         0.0600 
    227 H227       -7.0369  -22.5576  -55.9882 H         1 UNK         0.0600 
    228 H228       -5.4222  -22.2904  -56.6250 H         1 UNK         0.0600 
    229 H229       -5.6768  -23.4680  -55.3408 H         1 UNK         0.0600 
    230 H230       -4.1639  -23.0637  -53.7156 H         1 UNK         0.3000 
    231 H231       -1.9839  -23.3011  -53.2408 H         1 UNK         0.0600 
    232 H232       -3.0113  -22.5894  -51.1450 H         1 UNK         0.0600 
    233 H233       -2.8307  -20.8942  -51.5548 H         1 UNK         0.0600 
    234 H234       -1.4081  -21.8899  -51.2214 H         1 UNK         0.0600 
    235 H235       -1.5377  -19.8695  -52.7569 H         1 UNK         0.3000 
    236 H236       -0.2993  -19.3647  -55.3091 H         1 UNK         0.0600 
    237 H237        1.9007  -18.6359  -54.3956 H         1 UNK         0.0600 
    238 H238        1.4508  -19.2016  -52.7914 H         1 UNK         0.0600 
    239 H239        1.6639  -20.3510  -54.1094 H         1 UNK         0.0600 
    240 H240       -2.6845  -18.5116  -54.1841 H         1 UNK         0.3000 
    241 H241       -2.4491  -16.0616  -52.7480 H         1 UNK         0.0600 
    242 H242       -2.4138  -13.3691  -55.0558 H         1 UNK         0.3800 
    243 H243       -2.6706  -13.8305  -53.3978 H         1 UNK         0.3800 
    244 H244       -4.8582  -15.7311  -53.2298 H         1 UNK         0.0800 
    245 H245       -4.8134  -16.9528  -54.4703 H         1 UNK         0.0800 
    246 H246       -5.2522  -16.1268  -50.7663 H         1 UNK         0.0800 
    247 H247       -5.2096  -17.6641  -49.9392 H         1 UNK         0.0800 
@<TRIPOS>BOND
     1    1    2 1    
     2    1  127 1    
     3    1  128 1    
     4    1  129 1    
     5    2    3 2    
     6    2    4 am   BACKBONE|DICT|INTERRES
     7    4    5 1    
     8    4  130 1    
     9    5    6 1    
    10    5   65 1    
    11    5  131 1    
    12    6    7 1    
    13    6  132 1    
    14    6  133 1    
    15    7    8 1    
    16    8    9 1    
    17    8  134 1    
    18    8  135 1    
    19    9   10 ar   
    20    9   14 ar   
    21   10   11 ar   
    22   10  136 1    
    23   11   12 ar   
    24   11  126 1    
    25   12   13 ar   
    26   12  137 1    
    27   13   14 ar   
    28   13   15 1    
    29   14  138 1    
    30   15   16 1    
    31   15  139 1    
    32   15  140 1    
    33   16   17 1    
    34   17   18 1    
    35   17  141 1    
    36   17  142 1    
    37   18   19 1    
    38   18   67 1    
    39   18  143 1    
    40   19   20 am   BACKBONE|DICT|INTERRES
    41   19  144 1    
    42   20   21 2    
    43   20   22 1    
    44   22   23 1    
    45   22   24 1    
    46   22  145 1    
    47   23  146 1    
    48   23  147 1    
    49   23  148 1    
    50   24   25 am   BACKBONE|DICT|INTERRES
    51   24  149 1    
    52   25   26 2    
    53   25   27 1    
    54   27   28 1    
    55   27   29 1    
    56   27  150 1    
    57   28  151 1    
    58   28  152 1    
    59   28  153 1    
    60   29   30 am   BACKBONE|DICT|INTERRES
    61   29  154 1    
    62   30   31 2    
    63   30   32 1    
    64   32   33 1    
    65   32   34 1    
    66   32  155 1    
    67   33  156 1    
    68   33  157 1    
    69   33  158 1    
    70   34   35 am   BACKBONE|DICT|INTERRES
    71   34  159 1    
    72   35   36 2    
    73   35   37 1    
    74   37   38 1    
    75   37   39 1    
    76   37  160 1    
    77   38  161 1    
    78   38  162 1    
    79   38  163 1    
    80   39   40 am   BACKBONE|DICT|INTERRES
    81   39  164 1    
    82   40   41 2    
    83   40   42 1    
    84   42   43 1    
    85   42   44 1    
    86   42  165 1    
    87   43  166 1    
    88   43  167 1    
    89   43  168 1    
    90   44   45 am   BACKBONE|DICT|INTERRES
    91   44  169 1    
    92   45   46 2    
    93   45   47 1    
    94   47   48 1    
    95   47   49 1    
    96   47  170 1    
    97   48  171 1    
    98   48  172 1    
    99   48  173 1    
   100   49   50 am   BACKBONE|DICT|INTERRES
   101   49  174 1    
   102   50   51 2    
   103   50   52 1    
   104   52   53 1    
   105   52   54 1    
   106   52  175 1    
   107   53  176 1    
   108   53  177 1    
   109   53  178 1    
   110   54   55 am   BACKBONE|DICT|INTERRES
   111   54  179 1    
   112   55   56 2    
   113   55   57 1    
   114   57   58 1    
   115   57   59 1    
   116   57  180 1    
   117   58  181 1    
   118   58  182 1    
   119   58  183 1    
   120   59   60 am   BACKBONE|DICT|INTERRES
   121   59  184 1    
   122   60   61 2    
   123   60   62 1    
   124   62   63 1    
   125   62   64 1    
   126   62  185 1    
   127   63  186 1    
   128   63  187 1    
   129   63  188 1    
   130   64   65 am   BACKBONE|DICT|INTERRES
   131   64  189 1    
   132   65   66 2    
   133   67   68 2    
   134   67   69 am   BACKBONE|DICT|INTERRES
   135   69   70 1    
   136   69  190 1    
   137   70   71 1    
   138   70   72 1    
   139   70  191 1    
   140   71  192 1    
   141   71  193 1    
   142   71  194 1    
   143   72   73 2    
   144   72   74 am   BACKBONE|DICT|INTERRES
   145   74   75 1    
   146   74  195 1    
   147   75   76 1    
   148   75   77 1    
   149   75  196 1    
   150   76  197 1    
   151   76  198 1    
   152   76  199 1    
   153   77   78 2    
   154   77   79 am   BACKBONE|DICT|INTERRES
   155   79   80 1    
   156   79  200 1    
   157   80   81 1    
   158   80   82 1    
   159   80  201 1    
   160   81  202 1    
   161   81  203 1    
   162   81  204 1    
   163   82   83 2    
   164   82   84 am   BACKBONE|DICT|INTERRES
   165   84   85 1    
   166   84  205 1    
   167   85   86 1    
   168   85   87 1    
   169   85  206 1    
   170   86  207 1    
   171   86  208 1    
   172   86  209 1    
   173   87   88 2    
   174   87   89 am   BACKBONE|DICT|INTERRES
   175   89   90 1    
   176   89  210 1    
   177   90   91 1    
   178   90   92 1    
   179   90  211 1    
   180   91  212 1    
   181   91  213 1    
   182   91  214 1    
   183   92   93 2    
   184   92   94 am   BACKBONE|DICT|INTERRES
   185   94   95 1    
   186   94  215 1    
   187   95   96 1    
   188   95   97 1    
   189   95  216 1    
   190   96  217 1    
   191   96  218 1    
   192   96  219 1    
   193   97   98 2    
   194   97   99 am   BACKBONE|DICT|INTERRES
   195   99  100 1    
   196   99  220 1    
   197  100  101 1    
   198  100  102 1    
   199  100  221 1    
   200  101  222 1    
   201  101  223 1    
   202  101  224 1    
   203  102  103 2    
   204  102  104 am   BACKBONE|DICT|INTERRES
   205  104  105 1    
   206  104  225 1    
   207  105  106 1    
   208  105  107 1    
   209  105  226 1    
   210  106  227 1    
   211  106  228 1    
   212  106  229 1    
   213  107  108 2    
   214  107  109 am   BACKBONE|DICT|INTERRES
   215  109  110 1    
   216  109  230 1    
   217  110  111 1    
   218  110  112 1    
   219  110  231 1    
   220  111  232 1    
   221  111  233 1    
   222  111  234 1    
   223  112  113 2    
   224  112  114 am   BACKBONE|DICT|INTERRES
   225  114  115 1    
   226  114  235 1    
   227  115  116 1    
   228  115  117 1    
   229  115  236 1    
   230  116  237 1    
   231  116  238 1    
   232  116  239 1    
   233  117  118 2    
   234  117  119 am   BACKBONE|DICT|INTERRES
   235  119  120 1    
   236  119  240 1    
   237  120  121 1    
   238  120  124 1    
   239  120  241 1    
   240  121  122 am   BACKBONE|DICT|INTERRES
   241  121  123 2    
   242  122  242 1    
   243  122  243 1    
   244  124  125 1    
   245  124  244 1    
   246  124  245 1    
   247  125  126 1    
   248  126  246 1    
   249  126  247 1    
@<TRIPOS>SUBSTRUCTURE
     1 UNK         1 GROUP             0       ****    0 ROOT    
