@<TRIPOS>MOLECULE
3R540
247   249    1
SMALL
USER_CHARGES


@<TRIPOS>ATOM
      1 CA         -0.7589   -9.1968  -47.2656 C.3       0 UNK        -0.1800 
      2 C           0.0266  -10.4274  -46.8348 C.2       0 UNK         0.5000 
      3 O           1.1986  -10.3116  -46.4811 O.2       0 UNK        -0.5000 
      4 N          -0.6143  -11.6021  -46.8695 N.am      1 UNK        -0.5000 
      5 CA         -0.0305  -12.8930  -46.4794 C.3       1 UNK         0.1400 
      6 C6         -0.8312  -14.0758  -47.0813 C.3       23 UNK        -0.0398 
      7 S7         -0.7691  -14.0938  -48.9083 S.3       23 UNK        -0.2404 
      8 C8         -0.1950  -15.7906  -49.2677 C.3       23 UNK        -0.0205 
      9 C9         -1.3215  -16.7926  -49.5058 C.ar      23 UNK        -0.0193 
     10 C10        -1.2281  -17.6946  -50.5695 C.ar      23 UNK        -0.1150 
     11 C11        -2.2269  -18.6467  -50.7938 C.ar      23 UNK        -0.0193 
     12 C12        -3.3257  -18.7040  -49.9289 C.ar      23 UNK        -0.1150 
     13 C13        -3.4466  -17.7964  -48.8734 C.ar      23 UNK        -0.0193 
     14 C14        -2.4375  -16.8500  -48.6660 C.ar      23 UNK        -0.1150 
     15 C15        -4.6902  -17.7998  -47.9932 C.3       23 UNK        -0.0205 
     16 S16        -4.2763  -17.8010  -46.2210 S.3       23 UNK        -0.2404 
     17 C17        -4.9706  -19.3784  -45.6275 C.3       23 UNK        -0.0398 
     18 CA         -4.4010  -20.6689  -46.2775 C.3       11 UNK         0.1400 
     19 N          -2.9469  -20.6613  -46.4586 N.am      11 UNK        -0.5000 
     20 C          -2.2688  -21.5406  -47.2132 C.2       10 UNK         0.5000 
     21 O          -2.8057  -22.4315  -47.8719 O.2       10 UNK        -0.5000 
     22 CA         -0.7316  -21.4435  -47.2099 C.3       10 UNK         0.1400 
     23 CB         -0.2550  -20.5469  -48.3599 C.3       10 UNK        -0.1800 
     24 N          -0.1889  -20.9495  -45.9439 N.am      10 UNK        -0.5000 
     25 C          -0.3058  -21.5835  -44.7653 C.2       9 UNK         0.5000 
     26 O          -0.8157  -22.6967  -44.6440 O.2       9 UNK        -0.5000 
     27 CA          0.1566  -20.8257  -43.5015 C.3       9 UNK         0.1400 
     28 CB          1.6059  -21.1934  -43.1535 C.3       9 UNK        -0.1800 
     29 N           0.0516  -19.3712  -43.6346 N.am      9 UNK        -0.5000 
     30 C          -1.0788  -18.7060  -43.9121 C.2       8 UNK         0.5000 
     31 O          -2.1881  -19.2393  -43.8949 O.2       8 UNK        -0.5000 
     32 CA         -0.9522  -17.2324  -44.3564 C.3       8 UNK         0.1400 
     33 CB         -1.5752  -16.2894  -43.3175 C.3       8 UNK        -0.1800 
     34 N           0.4149  -16.7882  -44.6525 N.am      8 UNK        -0.5000 
     35 C           1.2292  -17.2869  -45.5958 C.2       7 UNK         0.5000 
     36 O           0.9077  -18.2024  -46.3521 O.2       7 UNK        -0.5000 
     37 CA          2.6496  -16.6998  -45.6824 C.3       7 UNK         0.1400 
     38 CB          2.8229  -15.8317  -46.9363 C.3       7 UNK        -0.1800 
     39 N           2.9970  -15.9021  -44.5071 N.am      7 UNK        -0.5000 
     40 C           3.5034  -16.3926  -43.3695 C.2       6 UNK         0.5000 
     41 O           3.6698  -17.5980  -43.1751 O.2       6 UNK        -0.5000 
     42 CA          3.8685  -15.3772  -42.2610 C.3       6 UNK         0.1400 
     43 CB          5.1099  -15.8144  -41.4576 C.3       6 UNK        -0.1800 
     44 N           4.0287  -13.9885  -42.7142 N.am      6 UNK        -0.5000 
     45 C           4.8786  -13.5132  -43.6401 C.2       5 UNK         0.5000 
     46 O           5.6452  -14.2130  -44.3024 O.2       5 UNK        -0.5000 
     47 CA          4.8768  -11.9879  -43.8575 C.3       5 UNK         0.1400 
     48 CB          3.8386  -11.5974  -44.9179 C.3       5 UNK        -0.1800 
     49 N           4.6154  -11.2420  -42.6254 N.am      5 UNK        -0.5000 
     50 C           5.4680  -11.1778  -41.5923 C.2       4 UNK         0.5000 
     51 O           6.6004  -11.6621  -41.6153 O.2       4 UNK        -0.5000 
     52 CA          4.9877  -10.4659  -40.3118 C.3       4 UNK         0.1400 
     53 CB          5.5944   -9.0567  -40.2233 C.3       4 UNK        -0.1800 
     54 N           3.5332  -10.3611  -40.1621 N.am      4 UNK        -0.5000 
     55 C           2.6707  -11.3832  -40.0776 C.2       3 UNK         0.5000 
     56 O           2.9960  -12.5651  -40.2065 O.2       3 UNK        -0.5000 
     57 CA          1.1937  -11.0412  -39.7920 C.3       3 UNK         0.1400 
     58 CB          0.8826   -9.5271  -39.7372 C.3       3 UNK        -0.1800 
     59 N           0.2852  -11.7212  -40.7183 N.am      3 UNK        -0.5000 
     60 C           0.2332  -11.5802  -42.0500 C.2       2 UNK         0.5000 
     61 O           0.9838  -10.8455  -42.6970 O.2       2 UNK        -0.5000 
     62 CA         -0.8842  -12.3791  -42.7491 C.3       2 UNK         0.1400 
     63 CB         -2.2717  -11.8458  -42.3524 C.3       2 UNK        -0.1800 
     64 N          -0.7880  -12.3441  -44.2065 N.am      2 UNK        -0.5000 
     65 C           0.0755  -13.0502  -44.9459 C.2       1 UNK         0.5000 
     66 O           0.9076  -13.8249  -44.4698 O.2       1 UNK        -0.5000 
     67 C          -4.8278  -21.8930  -45.4470 C.2       11 UNK         0.5000 
     68 O          -5.7404  -22.6172  -45.8448 O.2       11 UNK        -0.5000 
     69 N          -4.1225  -22.1191  -44.3273 N.am      12 UNK        -0.5000 
     70 CA         -4.3183  -23.2535  -43.4199 C.3       12 UNK         0.1400 
     71 CB         -3.4511  -23.0556  -42.1675 C.3       12 UNK        -0.1800 
     72 C          -4.0166  -24.6087  -44.0867 C.2       12 UNK         0.5000 
     73 O          -4.6901  -25.5976  -43.7976 O.2       12 UNK        -0.5000 
     74 N          -3.0455  -24.6095  -45.0080 N.am      13 UNK        -0.5000 
     75 CA         -2.6883  -25.7313  -45.8739 C.3       13 UNK         0.1400 
     76 CB         -1.2399  -25.5360  -46.3497 C.3       13 UNK        -0.1800 
     77 C          -3.6450  -25.9285  -47.0713 C.2       13 UNK         0.5000 
     78 O          -3.3595  -26.7782  -47.9133 O.2       13 UNK        -0.5000 
     79 N          -4.7419  -25.1581  -47.1478 N.am      14 UNK        -0.5000 
     80 CA         -5.7885  -25.2005  -48.1745 C.3       14 UNK         0.1400 
     81 CB         -6.5433  -26.5463  -48.1393 C.3       14 UNK        -0.1800 
     82 C          -5.2377  -24.8537  -49.5696 C.2       14 UNK         0.5000 
     83 O          -5.2161  -25.7020  -50.4640 O.2       14 UNK        -0.5000 
     84 N          -4.7582  -23.6093  -49.7038 N.am      15 UNK        -0.5000 
     85 CA         -4.1111  -23.0381  -50.8907 C.3       15 UNK         0.1400 
     86 CB         -5.1059  -22.9393  -52.0665 C.3       15 UNK        -0.1800 
     87 C          -2.8082  -23.7821  -51.2461 C.2       15 UNK         0.5000 
     88 O          -2.5519  -24.0676  -52.4172 O.2       15 UNK        -0.5000 
     89 N          -2.0345  -24.1151  -50.2006 N.am      16 UNK        -0.5000 
     90 CA         -0.8087  -24.9208  -50.2252 C.3       16 UNK         0.1400 
     91 CB          0.3448  -24.1169  -50.8585 C.3       16 UNK        -0.1800 
     92 C          -1.0268  -26.3041  -50.8788 C.2       16 UNK         0.5000 
     93 O          -0.2745  -26.6941  -51.7717 O.2       16 UNK        -0.5000 
     94 N          -2.0801  -27.0018  -50.4289 N.am      17 UNK        -0.5000 
     95 CA         -2.6111  -28.2613  -50.9575 C.3       17 UNK         0.1400 
     96 CB         -1.6096  -29.4172  -50.7515 C.3       17 UNK        -0.1800 
     97 C          -3.1020  -28.1207  -52.4138 C.2       17 UNK         0.5000 
     98 O          -2.7810  -28.9569  -53.2607 O.2       17 UNK        -0.5000 
     99 N          -3.8745  -27.0522  -52.6641 N.am      18 UNK        -0.5000 
    100 CA        -4.4567  -26.6476  -53.9480 C.3       18 UNK         0.1400 
    101 CB        -5.5959  -27.6090  -54.3442 C.3       18 UNK        -0.1800 
    102 C         -3.4042  -26.4609  -55.0624 C.2       18 UNK         0.5000 
    103 O         -3.5811  -26.9611  -56.1755 O.2       18 UNK        -0.5000 
    104 N         -2.3150  -25.7524  -54.7376 N.am      19 UNK        -0.5000 
    105 CA        -1.1994  -25.4881  -55.6485 C.3       19 UNK         0.1400 
    106 CB         0.0173  -25.0162  -54.8392 C.3       19 UNK        -0.1800 
    107 C         -1.5372  -24.4538  -56.7364 C.2       19 UNK         0.5000 
    108 O         -0.9732  -24.5184  -57.8298 O.2       19 UNK        -0.5000 
    109 N         -2.4366  -23.5175  -56.4184 N.am      20 UNK        -0.5000 
    110 CA        -2.8652  -22.4177  -57.2735 C.3       20 UNK         0.1400 
    111 CB        -1.7699  -21.3310  -57.3112 C.3       20 UNK        -0.1800 
    112 C         -4.1855  -21.8496  -56.7329 C.2       20 UNK         0.5000 
    113 O         -4.6380  -22.2518  -55.6583 O.2       20 UNK        -0.5000 
    114 N         -4.7618  -20.8962  -57.4757 N.am      21 UNK        -0.5000 
    115 CA        -5.9226  -20.1037  -57.0562 C.3       21 UNK         0.1400 
    116 CB        -6.5791  -19.4922  -58.3042 C.3       21 UNK        -0.1800 
    117 C         -5.5650  -18.9996  -56.0362 C.2       21 UNK         0.5000 
    118 O         -6.4691  -18.4401  -55.4150 O.2       21 UNK        -0.5000 
    119 N         -4.2639  -18.7049  -55.8936 N.am      22 UNK        -0.5000 
    120 CA        -3.6671  -17.7284  -54.9620 C.3       22 UNK         0.1400 
    121 C         -3.9166  -16.2342  -55.3353 C.2       22 UNK         0.5000 
    122 N         -4.3909  -15.9197  -56.5348 N.am      22 UNK        -0.7600 
    123 O         -3.6459  -15.3376  -54.5410 O.2       22 UNK        -0.5000 
    124 C124       -3.9760  -18.0197  -53.4650 C.3       23 UNK        -0.0398 
    125 S125       -3.6321  -19.7451  -52.9631 S.3       23 UNK        -0.2404 
    126 C126       -2.1037  -19.5991  -51.9789 C.3       23 UNK        -0.0205 
    127 H127       -0.2689   -8.7169  -48.1128 H         1 UNK         0.0600 
    128 H128       -0.8084   -8.4786  -46.4472 H         1 UNK         0.0600 
    129 H129       -1.7782   -9.4480  -47.5601 H         1 UNK         0.0600 
    130 H130       -1.5661  -11.6356  -47.2063 H         1 UNK         0.3000 
    131 H131        0.9883  -12.9348  -46.8699 H         1 UNK         0.0600 
    132 H132       -1.8768  -14.0268  -46.7725 H         1 UNK         0.0800 
    133 H133       -0.4551  -15.0261  -46.7030 H         1 UNK         0.0800 
    134 H134        0.4333  -16.1632  -48.4613 H         1 UNK         0.0800 
    135 H135        0.4465  -15.7373  -50.1484 H         1 UNK         0.0800 
    136 H136       -0.3704  -17.6569  -51.2264 H         1 UNK         0.1150 
    137 H137       -4.1023  -19.4362  -50.0986 H         1 UNK         0.1150 
    138 H138       -2.5297  -16.1531  -47.8471 H         1 UNK         0.1150 
    139 H139       -5.2687  -16.9017  -48.2124 H         1 UNK         0.0800 
    140 H140       -5.3386  -18.6430  -48.2329 H         1 UNK         0.0800 
    141 H141       -6.0533  -19.3439  -45.7596 H         1 UNK         0.0800 
    142 H142       -4.8077  -19.3843  -44.5480 H         1 UNK         0.0800 
    143 H143       -4.8497  -20.7716  -47.2675 H         1 UNK         0.0600 
    144 H144       -2.4395  -19.9773  -45.9127 H         1 UNK         0.3000 
    145 H145       -0.3332  -22.4456  -47.3762 H         1 UNK         0.0600 
    146 H146       -0.6196  -19.5252  -48.2465 H         1 UNK         0.0600 
    147 H147        0.8332  -20.5097  -48.4093 H         1 UNK         0.0600 
    148 H148       -0.6132  -20.9190  -49.3205 H         1 UNK         0.0600 
    149 H149        0.2357  -20.0267  -45.9706 H         1 UNK         0.3000 
    150 H150       -0.4882  -21.1343  -42.6763 H         1 UNK         0.0600 
    151 H151        1.7157  -22.2713  -43.0265 H         1 UNK         0.0600 
    152 H152        1.9197  -20.7231  -42.2213 H         1 UNK         0.0600 
    153 H153        2.2989  -20.8814  -43.9361 H         1 UNK         0.0600 
    154 H154        0.9205  -18.8581  -43.6648 H         1 UNK         0.3000 
    155 H155       -1.5236  -17.1395  -45.2813 H         1 UNK         0.0600 
    156 H156       -2.5846  -16.6073  -43.0523 H         1 UNK         0.0600 
    157 H157       -1.6547  -15.2764  -43.7097 H         1 UNK         0.0600 
    158 H158       -0.9873  -16.2551  -42.3997 H         1 UNK         0.0600 
    159 H159        0.7570  -15.9990  -44.1187 H         1 UNK         0.3000 
    160 H160        3.3440  -17.5391  -45.7606 H         1 UNK         0.0600 
    161 H161        3.8279  -15.4121  -46.9873 H         1 UNK         0.0600 
    162 H162        2.1155  -15.0044  -46.9568 H         1 UNK         0.0600 
    163 H163        2.6762  -16.4221  -47.8412 H         1 UNK         0.0600 
    164 H164        2.8030  -14.9096  -44.5581 H         1 UNK         0.3000 
    165 H165        3.0199  -15.3687  -41.5756 H         1 UNK         0.0600 
    166 H166        5.9928  -15.8949  -42.0924 H         1 UNK         0.0600 
    167 H167        5.3327  -15.1031  -40.6620 H         1 UNK         0.0600 
    168 H168        4.9544  -16.7858  -40.9870 H         1 UNK         0.0600 
    169 H169        3.4758  -13.3133  -42.1995 H         1 UNK         0.3000 
    170 H170        5.8640  -11.7038  -44.2282 H         1 UNK         0.0600 
    171 H171        2.8234  -11.8069  -44.5811 H         1 UNK         0.0600 
    172 H172        3.8961  -10.5351  -45.1554 H         1 UNK         0.0600 
    173 H173        3.9960  -12.1473  -45.8467 H         1 UNK         0.0600 
    174 H174        3.7007  -10.8225  -42.5279 H         1 UNK         0.3000 
    175 H175        5.3590  -11.0494  -39.4669 H         1 UNK         0.0600 
    176 H176        5.2327   -8.4132  -41.0263 H         1 UNK         0.0600 
    177 H177        5.3509   -8.5799  -39.2736 H         1 UNK         0.0600 
    178 H178        6.6823   -9.0924  -40.2963 H         1 UNK         0.0600 
    179 H179        3.1651   -9.4257  -40.0671 H         1 UNK         0.3000 
    180 H180        0.9817  -11.4515  -38.8037 H         1 UNK         0.0600 
    181 H181        1.1041   -9.0251  -40.6798 H         1 UNK         0.0600 
    182 H182        1.4544   -9.0327  -38.9511 H         1 UNK         0.0600 
    183 H183       -0.1709   -9.3562  -39.5154 H         1 UNK         0.0600 
    184 H184       -0.3542  -12.3717  -40.2843 H         1 UNK         0.3000 
    185 H185       -0.8031  -13.4169  -42.4205 H         1 UNK         0.0600 
    186 H186       -3.0655  -12.4215  -42.8291 H         1 UNK         0.0600 
    187 H187       -2.4334  -11.9112  -41.2759 H         1 UNK         0.0600 
    188 H188       -2.3968  -10.8008  -42.6394 H         1 UNK         0.0600 
    189 H189       -1.3948  -11.6925  -44.6806 H         1 UNK         0.3000 
    190 H190       -3.3791  -21.4751  -44.0922 H         1 UNK         0.3000 
    191 H191       -5.3665  -23.2602  -43.1143 H         1 UNK         0.0600 
    192 H192       -2.3885  -23.0346  -42.4111 H         1 UNK         0.0600 
    193 H193       -3.6973  -22.1228  -41.6598 H         1 UNK         0.0600 
    194 H194       -3.6074  -23.8653  -41.4537 H         1 UNK         0.0600 
    195 H195       -2.4916  -23.7667  -45.1175 H         1 UNK         0.3000 
    196 H196       -2.7267  -26.6496  -45.2847 H         1 UNK         0.0600 
    197 H197       -0.5556  -25.4586  -45.5046 H         1 UNK         0.0600 
    198 H198       -1.1380  -24.6290  -46.9436 H         1 UNK         0.0600 
    199 H199       -0.9038  -26.3750  -46.9603 H         1 UNK         0.0600 
    200 H200       -4.8756  -24.4500  -46.4359 H         1 UNK         0.3000 
    201 H201       -6.5060  -24.4196  -47.9180 H         1 UNK         0.0600 
    202 H202       -7.3791  -26.5393  -48.8397 H         1 UNK         0.0600 
    203 H203       -6.9513  -26.7421  -47.1478 H         1 UNK         0.0600 
    204 H204       -5.9018  -27.3857  -48.4092 H         1 UNK         0.0600 
    205 H205       -4.7102  -23.0317  -48.8740 H         1 UNK         0.3000 
    206 H206       -3.8136  -22.0229  -50.6251 H         1 UNK         0.0600 
    207 H207       -5.9510  -22.3007  -51.8106 H         1 UNK         0.0600 
    208 H208       -5.4994  -23.9114  -52.3587 H         1 UNK         0.0600 
    209 H209       -4.6321  -22.5082  -52.9479 H         1 UNK         0.0600 
    210 H210       -2.3442  -23.7991  -49.2870 H         1 UNK         0.3000 
    211 H211       -0.5381  -25.1152  -49.1881 H         1 UNK         0.0600 
    212 H212        0.5027  -23.1758  -50.3319 H         1 UNK         0.0600 
    213 H213        1.2810  -24.6744  -50.8148 H         1 UNK         0.0600 
    214 H214        0.1499  -23.8850  -51.9051 H         1 UNK         0.0600 
    215 H215       -2.6143  -26.6256  -49.6497 H         1 UNK         0.3000 
    216 H216       -3.4961  -28.4867  -50.3605 H         1 UNK         0.0600 
    217 H217       -2.0582  -30.3730  -51.0243 H         1 UNK         0.0600 
    218 H218       -0.7125  -29.2936  -51.3585 H         1 UNK         0.0600 
    219 H219       -1.3023  -29.4894  -49.7082 H         1 UNK         0.0600 
    220 H220       -4.1139  -26.4527  -51.8784 H         1 UNK         0.3000 
    221 H221       -4.8994  -25.6647  -53.7872 H         1 UNK         0.0600 
    222 H222       -5.2249  -28.6135  -54.5501 H         1 UNK         0.0600 
    223 H223       -6.3410  -27.6824  -53.5519 H         1 UNK         0.0600 
    224 H224       -6.1098  -27.2587  -55.2400 H         1 UNK         0.0600 
    225 H225       -2.2656  -25.3266  -53.8144 H         1 UNK         0.3000 
    226 H226       -0.9335  -26.4217  -56.1487 H         1 UNK         0.0600 
    227 H227        0.3478  -25.7838  -54.1410 H         1 UNK         0.0600 
    228 H228        0.8612  -24.7919  -55.4928 H         1 UNK         0.0600 
    229 H229       -0.2071  -24.1135  -54.2702 H         1 UNK         0.0600 
    230 H230       -2.8988  -23.5513  -55.5174 H         1 UNK         0.3000 
    231 H231       -3.0466  -22.7974  -58.2810 H         1 UNK         0.0600 
    232 H232       -2.0481  -20.5045  -57.9655 H         1 UNK         0.0600 
    233 H233       -0.8272  -21.7269  -57.6888 H         1 UNK         0.0600 
    234 H234       -1.5825  -20.9190  -56.3185 H         1 UNK         0.0600 
    235 H235       -4.3422  -20.6410  -58.3583 H         1 UNK         0.3000 
    236 H236       -6.6476  -20.7668  -56.5793 H         1 UNK         0.0600 
    237 H237       -6.8934  -20.2669  -59.0039 H         1 UNK         0.0600 
    238 H238       -7.4678  -18.9183  -58.0378 H         1 UNK         0.0600 
    239 H239       -5.8996  -18.8200  -58.8295 H         1 UNK         0.0600 
    240 H240       -3.6063  -19.2158  -56.4616 H         1 UNK         0.3000 
    241 H241       -2.5908  -17.8545  -55.0834 H         1 UNK         0.0600 
    242 H242       -4.6108  -16.6394  -57.2041 H         1 UNK         0.3800 
    243 H243       -4.5383  -14.9511  -56.7719 H         1 UNK         0.3800 
    244 H244       -3.4085  -17.3412  -52.8273 H         1 UNK         0.0800 
    245 H245       -5.0249  -17.8141  -53.2488 H         1 UNK         0.0800 
    246 H246       -1.8290  -20.5871  -51.6079 H         1 UNK         0.0800 
    247 H247       -1.2982  -19.2854  -52.6446 H         1 UNK         0.0800 
@<TRIPOS>BOND
     1    1    2 1    
     2    1  127 1    
     3    1  128 1    
     4    1  129 1    
     5    2    3 2    
     6    2    4 am   BACKBONE|DICT|INTERRES
     7    4    5 1    
     8    4  130 1    
     9    5    6 1    
    10    5   65 1    
    11    5  131 1    
    12    6    7 1    
    13    6  132 1    
    14    6  133 1    
    15    7    8 1    
    16    8    9 1    
    17    8  134 1    
    18    8  135 1    
    19    9   10 ar   
    20    9   14 ar   
    21   10   11 ar   
    22   10  136 1    
    23   11   12 ar   
    24   11  126 1    
    25   12   13 ar   
    26   12  137 1    
    27   13   14 ar   
    28   13   15 1    
    29   14  138 1    
    30   15   16 1    
    31   15  139 1    
    32   15  140 1    
    33   16   17 1    
    34   17   18 1    
    35   17  141 1    
    36   17  142 1    
    37   18   19 1    
    38   18   67 1    
    39   18  143 1    
    40   19   20 am   BACKBONE|DICT|INTERRES
    41   19  144 1    
    42   20   21 2    
    43   20   22 1    
    44   22   23 1    
    45   22   24 1    
    46   22  145 1    
    47   23  146 1    
    48   23  147 1    
    49   23  148 1    
    50   24   25 am   BACKBONE|DICT|INTERRES
    51   24  149 1    
    52   25   26 2    
    53   25   27 1    
    54   27   28 1    
    55   27   29 1    
    56   27  150 1    
    57   28  151 1    
    58   28  152 1    
    59   28  153 1    
    60   29   30 am   BACKBONE|DICT|INTERRES
    61   29  154 1    
    62   30   31 2    
    63   30   32 1    
    64   32   33 1    
    65   32   34 1    
    66   32  155 1    
    67   33  156 1    
    68   33  157 1    
    69   33  158 1    
    70   34   35 am   BACKBONE|DICT|INTERRES
    71   34  159 1    
    72   35   36 2    
    73   35   37 1    
    74   37   38 1    
    75   37   39 1    
    76   37  160 1    
    77   38  161 1    
    78   38  162 1    
    79   38  163 1    
    80   39   40 am   BACKBONE|DICT|INTERRES
    81   39  164 1    
    82   40   41 2    
    83   40   42 1    
    84   42   43 1    
    85   42   44 1    
    86   42  165 1    
    87   43  166 1    
    88   43  167 1    
    89   43  168 1    
    90   44   45 am   BACKBONE|DICT|INTERRES
    91   44  169 1    
    92   45   46 2    
    93   45   47 1    
    94   47   48 1    
    95   47   49 1    
    96   47  170 1    
    97   48  171 1    
    98   48  172 1    
    99   48  173 1    
   100   49   50 am   BACKBONE|DICT|INTERRES
   101   49  174 1    
   102   50   51 2    
   103   50   52 1    
   104   52   53 1    
   105   52   54 1    
   106   52  175 1    
   107   53  176 1    
   108   53  177 1    
   109   53  178 1    
   110   54   55 am   BACKBONE|DICT|INTERRES
   111   54  179 1    
   112   55   56 2    
   113   55   57 1    
   114   57   58 1    
   115   57   59 1    
   116   57  180 1    
   117   58  181 1    
   118   58  182 1    
   119   58  183 1    
   120   59   60 am   BACKBONE|DICT|INTERRES
   121   59  184 1    
   122   60   61 2    
   123   60   62 1    
   124   62   63 1    
   125   62   64 1    
   126   62  185 1    
   127   63  186 1    
   128   63  187 1    
   129   63  188 1    
   130   64   65 am   BACKBONE|DICT|INTERRES
   131   64  189 1    
   132   65   66 2    
   133   67   68 2    
   134   67   69 am   BACKBONE|DICT|INTERRES
   135   69   70 1    
   136   69  190 1    
   137   70   71 1    
   138   70   72 1    
   139   70  191 1    
   140   71  192 1    
   141   71  193 1    
   142   71  194 1    
   143   72   73 2    
   144   72   74 am   BACKBONE|DICT|INTERRES
   145   74   75 1    
   146   74  195 1    
   147   75   76 1    
   148   75   77 1    
   149   75  196 1    
   150   76  197 1    
   151   76  198 1    
   152   76  199 1    
   153   77   78 2    
   154   77   79 am   BACKBONE|DICT|INTERRES
   155   79   80 1    
   156   79  200 1    
   157   80   81 1    
   158   80   82 1    
   159   80  201 1    
   160   81  202 1    
   161   81  203 1    
   162   81  204 1    
   163   82   83 2    
   164   82   84 am   BACKBONE|DICT|INTERRES
   165   84   85 1    
   166   84  205 1    
   167   85   86 1    
   168   85   87 1    
   169   85  206 1    
   170   86  207 1    
   171   86  208 1    
   172   86  209 1    
   173   87   88 2    
   174   87   89 am   BACKBONE|DICT|INTERRES
   175   89   90 1    
   176   89  210 1    
   177   90   91 1    
   178   90   92 1    
   179   90  211 1    
   180   91  212 1    
   181   91  213 1    
   182   91  214 1    
   183   92   93 2    
   184   92   94 am   BACKBONE|DICT|INTERRES
   185   94   95 1    
   186   94  215 1    
   187   95   96 1    
   188   95   97 1    
   189   95  216 1    
   190   96  217 1    
   191   96  218 1    
   192   96  219 1    
   193   97   98 2    
   194   97   99 am   BACKBONE|DICT|INTERRES
   195   99  100 1    
   196   99  220 1    
   197  100  101 1    
   198  100  102 1    
   199  100  221 1    
   200  101  222 1    
   201  101  223 1    
   202  101  224 1    
   203  102  103 2    
   204  102  104 am   BACKBONE|DICT|INTERRES
   205  104  105 1    
   206  104  225 1    
   207  105  106 1    
   208  105  107 1    
   209  105  226 1    
   210  106  227 1    
   211  106  228 1    
   212  106  229 1    
   213  107  108 2    
   214  107  109 am   BACKBONE|DICT|INTERRES
   215  109  110 1    
   216  109  230 1    
   217  110  111 1    
   218  110  112 1    
   219  110  231 1    
   220  111  232 1    
   221  111  233 1    
   222  111  234 1    
   223  112  113 2    
   224  112  114 am   BACKBONE|DICT|INTERRES
   225  114  115 1    
   226  114  235 1    
   227  115  116 1    
   228  115  117 1    
   229  115  236 1    
   230  116  237 1    
   231  116  238 1    
   232  116  239 1    
   233  117  118 2    
   234  117  119 am   BACKBONE|DICT|INTERRES
   235  119  120 1    
   236  119  240 1    
   237  120  121 1    
   238  120  124 1    
   239  120  241 1    
   240  121  122 am   BACKBONE|DICT|INTERRES
   241  121  123 2    
   242  122  242 1    
   243  122  243 1    
   244  124  125 1    
   245  124  244 1    
   246  124  245 1    
   247  125  126 1    
   248  126  246 1    
   249  126  247 1    
@<TRIPOS>SUBSTRUCTURE
     1 UNK         1 GROUP             0       ****    0 ROOT    
