@<TRIPOS>MOLECULE
3R540
247   249    1
SMALL
USER_CHARGES


@<TRIPOS>ATOM
      1 CA         -3.8590  -16.6104  -43.1193 C.3       0 UNK        -0.1800 
      2 C          -3.6648  -15.2164  -43.6954 C.2       0 UNK         0.5000 
      3 O          -4.1588  -14.2423  -43.1266 O.2       0 UNK        -0.5000 
      4 N          -2.9631  -15.1238  -44.8304 N.am      1 UNK        -0.5000 
      5 CA         -2.6655  -13.8701  -45.5304 C.3       1 UNK         0.1400 
      6 C6         -2.2483  -14.1183  -47.0000 C.3       23 UNK        -0.0398 
      7 S7         -3.6498  -14.7743  -47.9652 S.3       23 UNK        -0.2404 
      8 C8         -3.2229  -16.5412  -48.1195 C.3       23 UNK        -0.0205 
      9 C9         -2.2864  -16.8422  -49.2835 C.ar      23 UNK        -0.0193 
     10 C10        -2.5293  -16.3025  -50.5512 C.ar      23 UNK        -0.1150 
     11 C11        -1.7115  -16.6304  -51.6338 C.ar      23 UNK        -0.0193 
     12 C12        -0.6561  -17.5271  -51.4503 C.ar      23 UNK        -0.1150 
     13 C13        -0.3973  -18.0750  -50.1906 C.ar      23 UNK        -0.0193 
     14 C14        -1.2082  -17.7160  -49.1073 C.ar      23 UNK        -0.1150 
     15 C15         0.7652  -19.0430  -50.0141 C.3       23 UNK        -0.0205 
     16 S16         0.2068  -20.7608  -49.7635 S.3       23 UNK        -0.2404 
     17 C17         0.3954  -20.8910  -47.9568 C.3       23 UNK        -0.0398 
     18 CA         -0.3835  -22.0323  -47.2635 C.3       11 UNK         0.1400 
     19 N           0.0025  -22.1060  -45.8507 N.am      11 UNK        -0.5000 
     20 C          -0.4008  -23.0238  -44.9626 C.2       10 UNK         0.5000 
     21 O          -1.1480  -23.9607  -45.2354 O.2       10 UNK        -0.5000 
     22 CA          0.0688  -22.8267  -43.5092 C.3       10 UNK         0.1400 
     23 CB          1.5219  -23.2910  -43.3322 C.3       10 UNK        -0.1800 
     24 N          -0.0613  -21.4392  -43.0609 N.am      10 UNK        -0.5000 
     25 C          -1.2224  -20.7753  -42.9705 C.2       9 UNK         0.5000 
     26 O          -2.3184  -21.2745  -43.2190 O.2       9 UNK        -0.5000 
     27 CA         -1.1433  -19.2853  -42.6066 C.3       9 UNK         0.1400 
     28 CB         -0.9427  -19.0783  -41.0981 C.3       9 UNK        -0.1800 
     29 N          -0.0884  -18.6052  -43.3553 N.am      9 UNK        -0.5000 
     30 C          -0.1357  -18.3710  -44.6742 C.2       8 UNK         0.5000 
     31 O          -1.1098  -18.6283  -45.3828 O.2       8 UNK        -0.5000 
     32 CA          1.1326  -17.7863  -45.3182 C.3       8 UNK         0.1400 
     33 CB          1.0975  -16.2554  -45.2957 C.3       8 UNK        -0.1800 
     34 N           2.3637  -18.2592  -44.6816 N.am      8 UNK        -0.5000 
     35 C           2.8258  -19.5132  -44.7919 C.2       7 UNK         0.5000 
     36 O           2.2622  -20.3891  -45.4443 O.2       7 UNK        -0.5000 
     37 CA          4.0983  -19.8674  -44.0013 C.3       7 UNK         0.1400 
     38 CB          5.3533  -19.4629  -44.7884 C.3       7 UNK        -0.1800 
     39 N           4.1390  -19.2509  -42.6760 N.am      7 UNK        -0.5000 
     40 C           3.2292  -19.4400  -41.7098 C.2       6 UNK         0.5000 
     41 O           2.2696  -20.2031  -41.8206 O.2       6 UNK        -0.5000 
     42 CA          3.3954  -18.6159  -40.4184 C.3       6 UNK         0.1400 
     43 CB          3.9939  -19.4852  -39.3027 C.3       6 UNK        -0.1800 
     44 N           4.2186  -17.4123  -40.5830 N.am      6 UNK        -0.5000 
     45 C           3.8844  -16.3495  -41.3264 C.2       5 UNK         0.5000 
     46 O           2.8492  -16.2734  -41.9944 O.2       5 UNK        -0.5000 
     47 CA          4.8997  -15.2016  -41.3650 C.3       5 UNK         0.1400 
     48 CB          5.8762  -15.3765  -42.5408 C.3       5 UNK        -0.1800 
     49 N           4.1758  -13.9460  -41.5120 N.am      5 UNK        -0.5000 
     50 C           4.5623  -12.7607  -41.0257 C.2       4 UNK         0.5000 
     51 O           5.6136  -12.5884  -40.4055 O.2       4 UNK        -0.5000 
     52 CA          3.6004  -11.5787  -41.2760 C.3       4 UNK         0.1400 
     53 CB          4.2474  -10.1991  -41.0299 C.3       4 UNK        -0.1800 
     54 N           2.9664  -11.6406  -42.5984 N.am      4 UNK        -0.5000 
     55 C           3.5671  -11.5647  -43.7977 C.2       3 UNK         0.5000 
     56 O           4.7713  -11.3612  -43.9553 O.2       3 UNK        -0.5000 
     57 CA          2.6762  -11.7842  -45.0372 C.3       3 UNK         0.1400 
     58 CB          2.9751  -13.1579  -45.6539 C.3       3 UNK        -0.1800 
     59 N           1.2464  -11.7108  -44.7256 N.am      3 UNK        -0.5000 
     60 C           0.5429  -10.5799  -44.6044 C.2       2 UNK         0.5000 
     61 O           1.0156   -9.4653  -44.8340 O.2       2 UNK        -0.5000 
     62 CA         -0.9214  -10.7237  -44.1278 C.3       2 UNK         0.1400 
     63 CB         -1.6839   -9.3860  -44.1508 C.3       2 UNK        -0.1800 
     64 N          -1.7048  -11.7164  -44.8710 N.am      2 UNK        -0.5000 
     65 C          -1.6077  -13.0482  -44.7654 C.2       1 UNK         0.5000 
     66 O          -0.7343  -13.6189  -44.1063 O.2       1 UNK        -0.5000 
     67 C          -1.9121  -21.9020  -47.4481 C.2       11 UNK         0.5000 
     68 O          -2.4816  -22.5741  -48.3117 O.2       11 UNK        -0.5000 
     69 N          -2.5524  -21.0764  -46.6081 N.am      12 UNK        -0.5000 
     70 CA         -4.0045  -20.9316  -46.5528 C.3       12 UNK         0.1400 
     71 CB         -4.3672  -19.6818  -45.7363 C.3       12 UNK        -0.1800 
     72 C          -4.6932  -22.1857  -45.9822 C.2       12 UNK         0.5000 
     73 O          -5.6301  -22.6919  -46.5994 O.2       12 UNK        -0.5000 
     74 N          -4.2107  -22.6744  -44.8300 N.am      13 UNK        -0.5000 
     75 CA         -4.7710  -23.8137  -44.0958 C.3       13 UNK         0.1400 
     76 CB         -4.0716  -23.9423  -42.7343 C.3       13 UNK        -0.1800 
     77 C          -4.7010  -25.1464  -44.8625 C.2       13 UNK         0.5000 
     78 O          -5.6551  -25.9238  -44.8160 O.2       13 UNK        -0.5000 
     79 N          -3.5900  -25.3764  -45.5740 N.am      14 UNK        -0.5000 
     80 CA         -3.3790  -26.5412  -46.4368 C.3       14 UNK         0.1400 
     81 CB         -1.8707  -26.7070  -46.6851 C.3       14 UNK        -0.1800 
     82 C          -4.1292  -26.4481  -47.7806 C.2       14 UNK         0.5000 
     83 O          -4.1544  -27.4334  -48.5188 O.2       14 UNK        -0.5000 
     84 N          -4.6898  -25.2676  -48.0881 N.am      15 UNK        -0.5000 
     85 CA         -5.3458  -24.8867  -49.3425 C.3       15 UNK         0.1400 
     86 CB         -6.6113  -25.7316  -49.5954 C.3       15 UNK        -0.1800 
     87 C          -4.3840  -24.8701  -50.5485 C.2       15 UNK         0.5000 
     88 O          -4.8317  -24.9575  -51.6923 O.2       15 UNK        -0.5000 
     89 N          -3.0801  -24.7072  -50.2822 N.am      16 UNK        -0.5000 
     90 CA         -2.0295  -24.5681  -51.2903 C.3       16 UNK         0.1400 
     91 CB         -0.6544  -24.6368  -50.6115 C.3       16 UNK        -0.1800 
     92 C          -2.1834  -23.2663  -52.0941 C.2       16 UNK         0.5000 
     93 O          -1.9469  -23.2659  -53.3019 O.2       16 UNK        -0.5000 
     94 N          -2.6480  -22.2068  -51.4154 N.am      17 UNK        -0.5000 
     95 CA         -3.0226  -20.9203  -52.0013 C.3       17 UNK         0.1400 
     96 CB         -3.4870  -19.9819  -50.8770 C.3       17 UNK        -0.1800 
     97 C          -4.1269  -21.0623  -53.0648 C.2       17 UNK         0.5000 
     98 O          -4.0100  -20.4957  -54.1510 O.2       17 UNK        -0.5000 
     99 N          -5.1593  -21.8524  -52.7364 N.am      18 UNK        -0.5000 
    100 CA        -6.2899  -22.1563  -53.6104 C.3       18 UNK         0.1400 
    101 CB        -7.4412  -22.7378  -52.7762 C.3       18 UNK        -0.1800 
    102 C         -5.9063  -23.1085  -54.7553 C.2       18 UNK         0.5000 
    103 O         -6.3503  -22.8971  -55.8831 O.2       18 UNK        -0.5000 
    104 N         -5.0698  -24.1146  -54.4603 N.am      19 UNK        -0.5000 
    105 CA        -4.5561  -25.0858  -55.4302 C.3       19 UNK         0.1400 
    106 CB        -3.7981  -26.1997  -54.6930 C.3       19 UNK        -0.1800 
    107 C         -3.6648  -24.4415  -56.5085 C.2       19 UNK         0.5000 
    108 O         -3.7953  -24.7769  -57.6862 O.2       19 UNK        -0.5000 
    109 N         -2.8049  -23.5015  -56.0929 N.am      20 UNK        -0.5000 
    110 CA        -1.9828  -22.6763  -56.9815 C.3       20 UNK         0.1400 
    111 CB        -0.8090  -22.1028  -56.1717 C.3       20 UNK        -0.1800 
    112 C         -2.7738  -21.5300  -57.6441 C.2       20 UNK         0.5000 
    113 O         -2.2609  -20.8999  -58.5709 O.2       20 UNK        -0.5000 
    114 N         -3.9759  -21.2414  -57.1211 N.am      21 UNK        -0.5000 
    115 CA        -4.8812  -20.1397  -57.4722 C.3       21 UNK         0.1400 
    116 CB        -5.4907  -20.3749  -58.8688 C.3       21 UNK        -0.1800 
    117 C         -4.2285  -18.7461  -57.3321 C.2       21 UNK         0.5000 
    118 O         -4.6204  -17.8081  -58.0290 O.2       21 UNK        -0.5000 
    119 N         -3.2191  -18.6536  -56.4553 N.am      22 UNK        -0.5000 
    120 CA        -2.3035  -17.5149  -56.2813 C.3       22 UNK         0.1400 
    121 C         -1.5004  -17.1207  -57.5621 C.2       22 UNK         0.5000 
    122 N         -1.3139  -18.0157  -58.5270 N.am      22 UNK        -0.7600 
    123 O         -1.0046  -16.0027  -57.6749 O.2       22 UNK        -0.5000 
    124 C124       -2.9848  -16.3145  -55.5685 C.3       23 UNK        -0.0398 
    125 S125       -3.3890  -16.7382  -53.8391 S.3       23 UNK        -0.2404 
    126 C126       -1.9549  -16.0018  -52.9957 C.3       23 UNK        -0.0205 
    127 H127       -3.2316  -16.7428  -42.2379 H         1 UNK         0.0600 
    128 H128       -4.8986  -16.7576  -42.8265 H         1 UNK         0.0600 
    129 H129       -3.6044  -17.3786  -43.8492 H         1 UNK         0.0600 
    130 H130       -2.5565  -15.9569  -45.2274 H         1 UNK         0.3000 
    131 H131       -3.5828  -13.2764  -45.5407 H         1 UNK         0.0600 
    132 H132       -1.3941  -14.7927  -47.0684 H         1 UNK         0.0800 
    133 H133       -1.9380  -13.1865  -47.4762 H         1 UNK         0.0800 
    134 H134       -4.1432  -17.1058  -48.2738 H         1 UNK         0.0800 
    135 H135       -2.8000  -16.8971  -47.1794 H         1 UNK         0.0800 
    136 H136       -3.3623  -15.6303  -50.7016 H         1 UNK         0.1150 
    137 H137       -0.0292  -17.7930  -52.2898 H         1 UNK         0.1150 
    138 H138       -1.0221  -18.1388  -48.1315 H         1 UNK         0.1150 
    139 H139        1.4086  -19.0228  -50.8950 H         1 UNK         0.0800 
    140 H140        1.3925  -18.7161  -49.1836 H         1 UNK         0.0800 
    141 H141        1.4625  -21.0275  -47.7803 H         1 UNK         0.0800 
    142 H142        0.1349  -19.9396  -47.4966 H         1 UNK         0.0800 
    143 H143       -0.0815  -22.9764  -47.7200 H         1 UNK         0.0600 
    144 H144        0.6695  -21.4042  -45.5405 H         1 UNK         0.3000 
    145 H145       -0.5645  -23.4435  -42.8686 H         1 UNK         0.0600 
    146 H146        2.2118  -22.7004  -43.9351 H         1 UNK         0.0600 
    147 H147        1.8366  -23.2104  -42.2916 H         1 UNK         0.0600 
    148 H148        1.6368  -24.3345  -43.6282 H         1 UNK         0.0600 
    149 H149        0.7952  -20.9613  -42.7940 H         1 UNK         0.3000 
    150 H150       -2.0979  -18.8367  -42.8795 H         1 UNK         0.0600 
    151 H151       -0.9247  -18.0180  -40.8455 H         1 UNK         0.0600 
    152 H152       -0.0144  -19.5238  -40.7421 H         1 UNK         0.0600 
    153 H153       -1.7584  -19.5326  -40.5343 H         1 UNK         0.0600 
    154 H154        0.7615  -18.3882  -42.8556 H         1 UNK         0.3000 
    155 H155        1.1449  -18.1013  -46.3633 H         1 UNK         0.0600 
    156 H156        0.1655  -15.8783  -45.7150 H         1 UNK         0.0600 
    157 H157        1.9098  -15.8477  -45.8956 H         1 UNK         0.0600 
    158 H158        1.1847  -15.8604  -44.2827 H         1 UNK         0.0600 
    159 H159        2.8521  -17.6048  -44.0854 H         1 UNK         0.3000 
    160 H160        4.1126  -20.9507  -43.8648 H         1 UNK         0.0600 
    161 H161        5.4135  -18.3824  -44.9252 H         1 UNK         0.0600 
    162 H162        5.3571  -19.9204  -45.7788 H         1 UNK         0.0600 
    163 H163        6.2605  -19.7880  -44.2787 H         1 UNK         0.0600 
    164 H164        4.8994  -18.6137  -42.4941 H         1 UNK         0.3000 
    165 H165        2.3973  -18.3003  -40.1075 H         1 UNK         0.0600 
    166 H166        5.0039  -19.8159  -39.5478 H         1 UNK         0.0600 
    167 H167        4.0369  -18.9418  -38.3586 H         1 UNK         0.0600 
    168 H168        3.3883  -20.3770  -39.1345 H         1 UNK         0.0600 
    169 H169        5.0927  -17.3989  -40.0767 H         1 UNK         0.3000 
    170 H170        5.4561  -15.1982  -40.4251 H         1 UNK         0.0600 
    171 H171        6.4297  -16.3124  -42.4573 H         1 UNK         0.0600 
    172 H172        5.3537  -15.3852  -43.4985 H         1 UNK         0.0600 
    173 H173        6.6076  -14.5685  -42.5684 H         1 UNK         0.0600 
    174 H174        3.2795  -14.0312  -41.9734 H         1 UNK         0.3000 
    175 H175        2.7948  -11.6916  -40.5491 H         1 UNK         0.0600 
    176 H176        3.5387   -9.3924  -41.2175 H         1 UNK         0.0600 
    177 H177        4.5797  -10.1036  -39.9956 H         1 UNK         0.0600 
    178 H178        5.1173  -10.0367  -41.6666 H         1 UNK         0.0600 
    179 H179        1.9728  -11.8194  -42.5956 H         1 UNK         0.3000 
    180 H180        2.9234  -11.0150  -45.7718 H         1 UNK         0.0600 
    181 H181        2.3256  -13.3635  -46.5050 H         1 UNK         0.0600 
    182 H182        4.0050  -13.2105  -46.0092 H         1 UNK         0.0600 
    183 H183        2.8432  -13.9544  -44.9215 H         1 UNK         0.0600 
    184 H184        0.7659  -12.5846  -44.5240 H         1 UNK         0.3000 
    185 H185       -0.8732  -11.0499  -43.0868 H         1 UNK         0.0600 
    186 H186       -2.6897   -9.4975  -43.7452 H         1 UNK         0.0600 
    187 H187       -1.1773   -8.6328  -43.5458 H         1 UNK         0.0600 
    188 H188       -1.7717   -8.9908  -45.1636 H         1 UNK         0.0600 
    189 H189       -2.4267  -11.3348  -45.4655 H         1 UNK         0.3000 
    190 H190       -2.0158  -20.5329  -45.9428 H         1 UNK         0.3000 
    191 H191       -4.3691  -20.7834  -47.5717 H         1 UNK         0.0600 
    192 H192       -5.4475  -19.5364  -45.7027 H         1 UNK         0.0600 
    193 H193       -3.9318  -18.7858  -46.1763 H         1 UNK         0.0600 
    194 H194       -4.0125  -19.7519  -44.7079 H         1 UNK         0.0600 
    195 H195       -3.4427  -22.1858  -44.3742 H         1 UNK         0.3000 
    196 H196       -5.8256  -23.5975  -43.9134 H         1 UNK         0.0600 
    197 H197       -4.4785  -24.7761  -42.1608 H         1 UNK         0.0600 
    198 H198       -4.2054  -23.0411  -42.1359 H         1 UNK         0.0600 
    199 H199       -3.0006  -24.1124  -42.8490 H         1 UNK         0.0600 
    200 H200       -2.8193  -24.7131  -45.5153 H         1 UNK         0.3000 
    201 H201       -3.7402  -27.4317  -45.9185 H         1 UNK         0.0600 
    202 H202       -1.3243  -26.8037  -45.7467 H         1 UNK         0.0600 
    203 H203       -1.4575  -25.8554  -47.2275 H         1 UNK         0.0600 
    204 H204       -1.6646  -27.6019  -47.2737 H         1 UNK         0.0600 
    205 H205       -4.6292  -24.5274  -47.3998 H         1 UNK         0.3000 
    206 H206       -5.6665  -23.8531  -49.2064 H         1 UNK         0.0600 
    207 H207       -7.2655  -25.7313  -48.7235 H         1 UNK         0.0600 
    208 H208       -7.1873  -25.3333  -50.4310 H         1 UNK         0.0600 
    209 H209       -6.3686  -26.7671  -49.8343 H         1 UNK         0.0600 
    210 H210       -2.8103  -24.5400  -49.3218 H         1 UNK         0.3000 
    211 H211       -2.1116  -25.4076  -51.9825 H         1 UNK         0.0600 
    212 H212        0.1465  -24.5829  -51.3499 H         1 UNK         0.0600 
    213 H213       -0.5304  -25.5701  -50.0620 H         1 UNK         0.0600 
    214 H214       -0.5099  -23.8134  -49.9130 H         1 UNK         0.0600 
    215 H215       -2.7666  -22.3035  -50.4132 H         1 UNK         0.3000 
    216 H216       -2.1373  -20.4914  -52.4752 H         1 UNK         0.0600 
    217 H217       -3.7018  -18.9861  -51.2661 H         1 UNK         0.0600 
    218 H218       -2.7203  -19.8756  -50.1111 H         1 UNK         0.0600 
    219 H219       -4.3899  -20.3471  -50.3867 H         1 UNK         0.0600 
    220 H220       -5.1437  -22.3146  -51.8404 H         1 UNK         0.3000 
    221 H221       -6.6349  -21.2209  -54.0565 H         1 UNK         0.0600 
    222 H222       -7.1624  -23.6782  -52.3010 H         1 UNK         0.0600 
    223 H223       -7.7516  -22.0449  -51.9940 H         1 UNK         0.0600 
    224 H224       -8.3134  -22.9337  -53.4012 H         1 UNK         0.0600 
    225 H225       -4.8053  -24.2593  -53.4899 H         1 UNK         0.3000 
    226 H226       -5.4143  -25.5361  -55.9333 H         1 UNK         0.0600 
    227 H227       -3.4602  -26.9679  -55.3896 H         1 UNK         0.0600 
    228 H228       -2.9179  -25.8136  -54.1795 H         1 UNK         0.0600 
    229 H229       -4.4325  -26.6873  -53.9525 H         1 UNK         0.0600 
    230 H230       -2.7085  -23.3270  -55.0956 H         1 UNK         0.3000 
    231 H231       -1.5780  -23.3046  -57.7775 H         1 UNK         0.0600 
    232 H232       -0.1452  -21.5122  -56.8045 H         1 UNK         0.0600 
    233 H233       -0.2112  -22.8984  -55.7267 H         1 UNK         0.0600 
    234 H234       -1.1569  -21.4558  -55.3650 H         1 UNK         0.0600 
    235 H235       -4.2864  -21.8111  -56.3462 H         1 UNK         0.3000 
    236 H236       -5.6926  -20.1686  -56.7437 H         1 UNK         0.0600 
    237 H237       -4.7384  -20.3032  -59.6549 H         1 UNK         0.0600 
    238 H238       -5.9521  -21.3604  -58.9340 H         1 UNK         0.0600 
    239 H239       -6.2661  -19.6402  -59.0882 H         1 UNK         0.0600 
    240 H240       -3.0466  -19.4562  -55.8631 H         1 UNK         0.3000 
    241 H241       -1.5253  -17.8813  -55.6108 H         1 UNK         0.0600 
    242 H242       -0.7847  -17.7555  -59.3440 H         1 UNK         0.3800 
    243 H243       -1.7036  -18.9503  -58.4621 H         1 UNK         0.3800 
    244 H244       -3.8980  -16.0221  -56.0879 H         1 UNK         0.0800 
    245 H245       -2.3466  -15.4297  -55.5689 H         1 UNK         0.0800 
    246 H246       -1.0651  -16.1151  -53.6171 H         1 UNK         0.0800 
    247 H247       -2.1154  -14.9286  -52.8831 H         1 UNK         0.0800 
@<TRIPOS>BOND
     1    1    2 1    
     2    1  127 1    
     3    1  128 1    
     4    1  129 1    
     5    2    3 2    
     6    2    4 am   BACKBONE|DICT|INTERRES
     7    4    5 1    
     8    4  130 1    
     9    5    6 1    
    10    5   65 1    
    11    5  131 1    
    12    6    7 1    
    13    6  132 1    
    14    6  133 1    
    15    7    8 1    
    16    8    9 1    
    17    8  134 1    
    18    8  135 1    
    19    9   10 ar   
    20    9   14 ar   
    21   10   11 ar   
    22   10  136 1    
    23   11   12 ar   
    24   11  126 1    
    25   12   13 ar   
    26   12  137 1    
    27   13   14 ar   
    28   13   15 1    
    29   14  138 1    
    30   15   16 1    
    31   15  139 1    
    32   15  140 1    
    33   16   17 1    
    34   17   18 1    
    35   17  141 1    
    36   17  142 1    
    37   18   19 1    
    38   18   67 1    
    39   18  143 1    
    40   19   20 am   BACKBONE|DICT|INTERRES
    41   19  144 1    
    42   20   21 2    
    43   20   22 1    
    44   22   23 1    
    45   22   24 1    
    46   22  145 1    
    47   23  146 1    
    48   23  147 1    
    49   23  148 1    
    50   24   25 am   BACKBONE|DICT|INTERRES
    51   24  149 1    
    52   25   26 2    
    53   25   27 1    
    54   27   28 1    
    55   27   29 1    
    56   27  150 1    
    57   28  151 1    
    58   28  152 1    
    59   28  153 1    
    60   29   30 am   BACKBONE|DICT|INTERRES
    61   29  154 1    
    62   30   31 2    
    63   30   32 1    
    64   32   33 1    
    65   32   34 1    
    66   32  155 1    
    67   33  156 1    
    68   33  157 1    
    69   33  158 1    
    70   34   35 am   BACKBONE|DICT|INTERRES
    71   34  159 1    
    72   35   36 2    
    73   35   37 1    
    74   37   38 1    
    75   37   39 1    
    76   37  160 1    
    77   38  161 1    
    78   38  162 1    
    79   38  163 1    
    80   39   40 am   BACKBONE|DICT|INTERRES
    81   39  164 1    
    82   40   41 2    
    83   40   42 1    
    84   42   43 1    
    85   42   44 1    
    86   42  165 1    
    87   43  166 1    
    88   43  167 1    
    89   43  168 1    
    90   44   45 am   BACKBONE|DICT|INTERRES
    91   44  169 1    
    92   45   46 2    
    93   45   47 1    
    94   47   48 1    
    95   47   49 1    
    96   47  170 1    
    97   48  171 1    
    98   48  172 1    
    99   48  173 1    
   100   49   50 am   BACKBONE|DICT|INTERRES
   101   49  174 1    
   102   50   51 2    
   103   50   52 1    
   104   52   53 1    
   105   52   54 1    
   106   52  175 1    
   107   53  176 1    
   108   53  177 1    
   109   53  178 1    
   110   54   55 am   BACKBONE|DICT|INTERRES
   111   54  179 1    
   112   55   56 2    
   113   55   57 1    
   114   57   58 1    
   115   57   59 1    
   116   57  180 1    
   117   58  181 1    
   118   58  182 1    
   119   58  183 1    
   120   59   60 am   BACKBONE|DICT|INTERRES
   121   59  184 1    
   122   60   61 2    
   123   60   62 1    
   124   62   63 1    
   125   62   64 1    
   126   62  185 1    
   127   63  186 1    
   128   63  187 1    
   129   63  188 1    
   130   64   65 am   BACKBONE|DICT|INTERRES
   131   64  189 1    
   132   65   66 2    
   133   67   68 2    
   134   67   69 am   BACKBONE|DICT|INTERRES
   135   69   70 1    
   136   69  190 1    
   137   70   71 1    
   138   70   72 1    
   139   70  191 1    
   140   71  192 1    
   141   71  193 1    
   142   71  194 1    
   143   72   73 2    
   144   72   74 am   BACKBONE|DICT|INTERRES
   145   74   75 1    
   146   74  195 1    
   147   75   76 1    
   148   75   77 1    
   149   75  196 1    
   150   76  197 1    
   151   76  198 1    
   152   76  199 1    
   153   77   78 2    
   154   77   79 am   BACKBONE|DICT|INTERRES
   155   79   80 1    
   156   79  200 1    
   157   80   81 1    
   158   80   82 1    
   159   80  201 1    
   160   81  202 1    
   161   81  203 1    
   162   81  204 1    
   163   82   83 2    
   164   82   84 am   BACKBONE|DICT|INTERRES
   165   84   85 1    
   166   84  205 1    
   167   85   86 1    
   168   85   87 1    
   169   85  206 1    
   170   86  207 1    
   171   86  208 1    
   172   86  209 1    
   173   87   88 2    
   174   87   89 am   BACKBONE|DICT|INTERRES
   175   89   90 1    
   176   89  210 1    
   177   90   91 1    
   178   90   92 1    
   179   90  211 1    
   180   91  212 1    
   181   91  213 1    
   182   91  214 1    
   183   92   93 2    
   184   92   94 am   BACKBONE|DICT|INTERRES
   185   94   95 1    
   186   94  215 1    
   187   95   96 1    
   188   95   97 1    
   189   95  216 1    
   190   96  217 1    
   191   96  218 1    
   192   96  219 1    
   193   97   98 2    
   194   97   99 am   BACKBONE|DICT|INTERRES
   195   99  100 1    
   196   99  220 1    
   197  100  101 1    
   198  100  102 1    
   199  100  221 1    
   200  101  222 1    
   201  101  223 1    
   202  101  224 1    
   203  102  103 2    
   204  102  104 am   BACKBONE|DICT|INTERRES
   205  104  105 1    
   206  104  225 1    
   207  105  106 1    
   208  105  107 1    
   209  105  226 1    
   210  106  227 1    
   211  106  228 1    
   212  106  229 1    
   213  107  108 2    
   214  107  109 am   BACKBONE|DICT|INTERRES
   215  109  110 1    
   216  109  230 1    
   217  110  111 1    
   218  110  112 1    
   219  110  231 1    
   220  111  232 1    
   221  111  233 1    
   222  111  234 1    
   223  112  113 2    
   224  112  114 am   BACKBONE|DICT|INTERRES
   225  114  115 1    
   226  114  235 1    
   227  115  116 1    
   228  115  117 1    
   229  115  236 1    
   230  116  237 1    
   231  116  238 1    
   232  116  239 1    
   233  117  118 2    
   234  117  119 am   BACKBONE|DICT|INTERRES
   235  119  120 1    
   236  119  240 1    
   237  120  121 1    
   238  120  124 1    
   239  120  241 1    
   240  121  122 am   BACKBONE|DICT|INTERRES
   241  121  123 2    
   242  122  242 1    
   243  122  243 1    
   244  124  125 1    
   245  124  244 1    
   246  124  245 1    
   247  125  126 1    
   248  126  246 1    
   249  126  247 1    
@<TRIPOS>SUBSTRUCTURE
     1 UNK         1 GROUP             0       ****    0 ROOT    
