@<TRIPOS>MOLECULE
3R540
247   249    1
SMALL
USER_CHARGES


@<TRIPOS>ATOM
      1 CA         -1.0163   -9.0805  -45.4737 C.3       0 UNK        -0.1800 
      2 C          -1.1190  -10.2989  -46.3806 C.2       0 UNK         0.5000 
      3 O          -2.2211  -10.6768  -46.7767 O.2       0 UNK        -0.5000 
      4 N           0.0242  -10.9102  -46.7066 N.am      1 UNK        -0.5000 
      5 CA          0.1443  -12.0776  -47.5858 C.3       1 UNK         0.1400 
      6 C6         -0.4448  -13.3825  -46.9735 C.3       23 UNK        -0.0398 
      7 S7         -1.2383  -14.4498  -48.2206 S.3       23 UNK        -0.2404 
      8 C8          0.0960  -15.6322  -48.6091 C.3       23 UNK        -0.0205 
      9 C9         -0.3532  -16.7087  -49.5919 C.ar      23 UNK        -0.0193 
     10 C10        -0.9741  -16.3545  -50.7949 C.ar      23 UNK        -0.1150 
     11 C11        -1.4104  -17.3353  -51.6880 C.ar      23 UNK        -0.0193 
     12 C12        -1.1904  -18.6774  -51.3822 C.ar      23 UNK        -0.1150 
     13 C13        -0.5292  -19.0584  -50.2124 C.ar      23 UNK        -0.0193 
     14 C14        -0.1241  -18.0615  -49.3121 C.ar      23 UNK        -0.1150 
     15 C15        -0.2866  -20.5544  -49.9962 C.3       23 UNK        -0.0205 
     16 S16         0.9203  -21.0137  -48.7094 S.3       23 UNK        -0.2404 
     17 C17        -0.0867  -20.8517  -47.2015 C.3       23 UNK        -0.0398 
     18 CA         -0.5984  -22.2084  -46.6547 C.3       11 UNK         0.1400 
     19 N          -0.6736  -22.1889  -45.1868 N.am      11 UNK        -0.5000 
     20 C          -1.0618  -23.1948  -44.3885 C.2       10 UNK         0.5000 
     21 O          -1.4454  -24.2885  -44.7994 O.2       10 UNK        -0.5000 
     22 CA         -1.0729  -22.9111  -42.8788 C.3       10 UNK         0.1400 
     23 CB          0.3461  -22.9753  -42.2933 C.3       10 UNK        -0.1800 
     24 N          -1.6685  -21.6052  -42.6041 N.am      10 UNK        -0.5000 
     25 C          -2.9890  -21.3767  -42.5662 C.2       9 UNK         0.5000 
     26 O          -3.8390  -22.2633  -42.6485 O.2       9 UNK        -0.5000 
     27 CA         -3.4395  -19.9082  -42.4438 C.3       9 UNK         0.1400 
     28 CB         -3.5751  -19.5056  -40.9679 C.3       9 UNK        -0.1800 
     29 N          -2.5363  -18.9723  -43.1148 N.am      9 UNK        -0.5000 
     30 C          -2.3312  -18.9250  -44.4395 C.2       8 UNK         0.5000 
     31 O          -2.9012  -19.6569  -45.2479 O.2       8 UNK        -0.5000 
     32 CA         -1.2664  -17.9311  -44.9404 C.3       8 UNK         0.1400 
     33 CB         -1.9102  -16.5699  -45.2277 C.3       8 UNK        -0.1800 
     34 N          -0.1455  -17.7541  -44.0125 N.am      8 UNK        -0.5000 
     35 C           0.6516  -18.7398  -43.5682 C.2       7 UNK         0.5000 
     36 O           0.5309  -19.9132  -43.9201 O.2       7 UNK        -0.5000 
     37 CA          1.7384  -18.3837  -42.5352 C.3       7 UNK         0.1400 
     38 CB          3.1184  -18.3535  -43.2075 C.3       7 UNK        -0.1800 
     39 N           1.5049  -17.1133  -41.8458 N.am      7 UNK        -0.5000 
     40 C           0.4767  -16.8672  -41.0177 C.2       6 UNK         0.5000 
     41 O          -0.3612  -17.7155  -40.7085 O.2       6 UNK        -0.5000 
     42 CA          0.3253  -15.4289  -40.4780 C.3       6 UNK         0.1400 
     43 CB          0.8785  -15.3338  -39.0482 C.3       6 UNK        -0.1800 
     44 N           0.9717  -14.4056  -41.3045 N.am      6 UNK        -0.5000 
     45 C           0.6902  -14.1473  -42.5896 C.2       5 UNK         0.5000 
     46 O          -0.1968  -14.7198  -43.2217 O.2       5 UNK        -0.5000 
     47 CA          1.5819  -13.1168  -43.3093 C.3       5 UNK         0.1400 
     48 CB          0.9016  -11.7394  -43.3033 C.3       5 UNK        -0.1800 
     49 N           2.9457  -12.9869  -42.7771 N.am      5 UNK        -0.5000 
     50 C           3.8334  -13.9823  -42.6314 C.2       4 UNK         0.5000 
     51 O           3.5784  -15.1625  -42.8730 O.2       4 UNK        -0.5000 
     52 CA          5.2471  -13.5681  -42.1936 C.3       4 UNK         0.1400 
     53 CB          6.1414  -14.7715  -41.8438 C.3       4 UNK        -0.1800 
     54 N           5.8453  -12.8330  -43.3013 N.am      4 UNK        -0.5000 
     55 C           6.2683  -11.5639  -43.2686 C.2       3 UNK         0.5000 
     56 O           6.3343  -10.8858  -42.2429 O.2       3 UNK        -0.5000 
     57 CA          6.6427  -10.9340  -44.6281 C.3       3 UNK         0.1400 
     58 CB          8.1501  -11.0733  -44.8897 C.3       3 UNK        -0.1800 
     59 N           5.9018  -11.5100  -45.7588 N.am      3 UNK        -0.5000 
     60 C           4.5716  -11.4399  -45.9069 C.2       2 UNK         0.5000 
     61 O           3.8338  -10.8169  -45.1370 O.2       2 UNK        -0.5000 
     62 CA          3.9569  -12.2276  -47.0762 C.3       2 UNK         0.1400 
     63 CB          4.3321  -13.7229  -47.0194 C.3       2 UNK        -0.1800 
     64 N           2.5090  -12.0894  -46.9871 N.am      2 UNK        -0.5000 
     65 C           1.6217  -12.2663  -47.9721 C.2       1 UNK         0.5000 
     66 O           1.9284  -12.5477  -49.1305 O.2       1 UNK        -0.5000 
     67 C          -1.9299  -22.6134  -47.3277 C.2       11 UNK         0.5000 
     68 O          -1.9234  -23.3380  -48.3267 O.2       11 UNK        -0.5000 
     69 N          -3.0504  -22.1821  -46.7320 N.am      12 UNK        -0.5000 
     70 CA         -4.4188  -22.5365  -47.1096 C.3       12 UNK         0.1400 
     71 CB         -5.3979  -21.7924  -46.1900 C.3       12 UNK        -0.1800 
     72 C          -4.7144  -24.0503  -47.0941 C.2       12 UNK         0.5000 
     73 O          -5.5841  -24.4933  -47.8435 O.2       12 UNK        -0.5000 
     74 N          -3.9843  -24.8112  -46.2685 N.am      13 UNK        -0.5000 
     75 CA         -4.0657  -26.2669  -46.1870 C.3       13 UNK         0.1400 
     76 CB         -4.1605  -26.6849  -44.7107 C.3       13 UNK        -0.1800 
     77 C          -2.8494  -26.9228  -46.8599 C.2       13 UNK         0.5000 
     78 O          -3.0244  -27.8294  -47.6733 O.2       13 UNK        -0.5000 
     79 N          -1.6417  -26.4538  -46.5157 N.am      14 UNK        -0.5000 
     80 CA         -0.3592  -27.0465  -46.9024 C.3       14 UNK         0.1400 
     81 CB          0.7671  -26.3792  -46.0978 C.3       14 UNK        -0.1800 
     82 C          -0.0597  -26.9709  -48.4087 C.2       14 UNK         0.5000 
     83 O           0.4836  -27.9267  -48.9638 O.2       14 UNK        -0.5000 
     84 N          -0.4281  -25.8495  -49.0390 N.am      15 UNK        -0.5000 
     85 CA         -0.2895  -25.6181  -50.4786 C.3       15 UNK         0.1400 
     86 CB          0.4775  -24.3023  -50.6904 C.3       15 UNK        -0.1800 
     87 C          -1.6623  -25.5635  -51.1724 C.2       15 UNK         0.5000 
     88 O          -1.7252  -25.2375  -52.3590 O.2       15 UNK        -0.5000 
     89 N          -2.7413  -25.8243  -50.4177 N.am      16 UNK        -0.5000 
     90 CA         -4.1478  -25.7067  -50.8143 C.3       16 UNK         0.1400 
     91 CB         -4.5140  -26.8069  -51.8324 C.3       16 UNK        -0.1800 
     92 C          -4.4992  -24.2880  -51.3126 C.2       16 UNK         0.5000 
     93 O          -5.2136  -24.1481  -52.3047 O.2       16 UNK        -0.5000 
     94 N          -3.9352  -23.2624  -50.6528 N.am      17 UNK        -0.5000 
     95 CA         -4.0130  -21.8420  -51.0214 C.3       17 UNK         0.1400 
     96 CB         -5.4617  -21.3194  -50.9360 C.3       17 UNK        -0.1800 
     97 C          -3.3463  -21.5539  -52.3849 C.2       17 UNK         0.5000 
     98 O          -3.8537  -20.7442  -53.1632 O.2       17 UNK        -0.5000 
     99 N          -2.2220  -22.2443  -52.6362 N.am      18 UNK        -0.5000 
    100 CA        -1.4576  -22.3034  -53.8873 C.3       18 UNK         0.1400 
    101 CB        -0.7827  -20.9558  -54.2123 C.3       18 UNK        -0.1800 
    102 C         -2.3158  -22.8545  -55.0399 C.2       18 UNK         0.5000 
    103 O         -2.4856  -22.1913  -56.0629 O.2       18 UNK        -0.5000 
    104 N         -2.8750  -24.0531  -54.8185 N.am      19 UNK        -0.5000 
    105 CA        -3.8044  -24.7652  -55.7038 C.3       19 UNK         0.1400 
    106 CB        -3.0742  -25.2671  -56.9667 C.3       19 UNK        -0.1800 
    107 C         -5.0654  -23.9311  -56.0203 C.2       19 UNK         0.5000 
    108 O         -5.4391  -23.7719  -57.1837 O.2       19 UNK        -0.5000 
    109 N         -5.6758  -23.3972  -54.9546 N.am      20 UNK        -0.5000 
    110 CA        -6.8803  -22.5663  -54.9139 C.3       20 UNK         0.1400 
    111 CB        -8.0973  -23.3256  -55.4823 C.3       20 UNK        -0.1800 
    112 C         -6.7306  -21.1564  -55.5234 C.2       20 UNK         0.5000 
    113 O         -7.7410  -20.4639  -55.6572 O.2       20 UNK        -0.5000 
    114 N         -5.5020  -20.7135  -55.8337 N.am      21 UNK        -0.5000 
    115 CA        -5.2114  -19.3768  -56.3687 C.3       21 UNK         0.1400 
    116 CB        -3.7276  -19.2774  -56.7468 C.3       21 UNK        -0.1800 
    117 C         -5.6000  -18.2348  -55.4091 C.2       21 UNK         0.5000 
    118 O         -6.0928  -17.2021  -55.8652 O.2       21 UNK        -0.5000 
    119 N         -5.4129  -18.4663  -54.1054 N.am      22 UNK        -0.5000 
    120 CA        -5.8938  -17.6113  -53.0088 C.3       22 UNK         0.1400 
    121 C         -7.1443  -18.2075  -52.2938 C.2       22 UNK         0.5000 
    122 N         -7.8725  -19.1448  -52.8903 N.am      22 UNK        -0.7600 
    123 O         -7.4820  -17.8037  -51.1846 O.2       22 UNK        -0.5000 
    124 C124       -4.7449  -17.2543  -52.0275 C.3       23 UNK        -0.0398 
    125 S125       -3.6212  -16.0049  -52.7410 S.3       23 UNK        -0.2404 
    126 C126       -2.0906  -16.9543  -52.9968 C.3       23 UNK        -0.0205 
    127 H127       -1.4232   -8.2028  -45.9759 H         1 UNK         0.0600 
    128 H128        0.0162   -8.8662  -45.1962 H         1 UNK         0.0600 
    129 H129       -1.5852   -9.2460  -44.5588 H         1 UNK         0.0600 
    130 H130        0.8991  -10.4971  -46.4155 H         1 UNK         0.3000 
    131 H131       -0.3973  -11.8309  -48.5019 H         1 UNK         0.0600 
    132 H132        0.2975  -13.9494  -46.4086 H         1 UNK         0.0800 
    133 H133       -1.2231  -13.1470  -46.2471 H         1 UNK         0.0800 
    134 H134        0.9434  -15.0987  -49.0401 H         1 UNK         0.0800 
    135 H135        0.4479  -16.0853  -47.6810 H         1 UNK         0.0800 
    136 H136       -1.1357  -15.3117  -51.0298 H         1 UNK         0.1150 
    137 H137       -1.5229  -19.4329  -52.0743 H         1 UNK         0.1150 
    138 H138        0.3812  -18.3255  -48.3956 H         1 UNK         0.1150 
    139 H139       -1.2348  -21.0426  -49.7823 H         1 UNK         0.0800 
    140 H140        0.0712  -20.9834  -50.9332 H         1 UNK         0.0800 
    141 H141       -0.9051  -20.1472  -47.3597 H         1 UNK         0.0800 
    142 H142        0.5707  -20.3770  -46.4735 H         1 UNK         0.0800 
    143 H143        0.1306  -22.9824  -46.9016 H         1 UNK         0.0600 
    144 H144       -0.3440  -21.3374  -44.7388 H         1 UNK         0.3000 
    145 H145       -1.6696  -23.6870  -42.3940 H         1 UNK         0.0600 
    146 H146        0.3347  -22.8047  -41.2168 H         1 UNK         0.0600 
    147 H147        0.7903  -23.9571  -42.4620 H         1 UNK         0.0600 
    148 H148        1.0099  -22.2360  -42.7417 H         1 UNK         0.0600 
    149 H149       -1.0376  -20.8157  -42.5807 H         1 UNK         0.3000 
    150 H150       -4.4213  -19.8237  -42.9145 H         1 UNK         0.0600 
    151 H151       -3.9650  -18.4923  -40.8695 H         1 UNK         0.0600 
    152 H152       -4.2621  -20.1705  -40.4427 H         1 UNK         0.0600 
    153 H153       -2.6159  -19.5472  -40.4499 H         1 UNK         0.0600 
    154 H154       -1.9998  -18.3549  -42.5202 H         1 UNK         0.3000 
    155 H155       -0.8584  -18.3147  -45.8758 H         1 UNK         0.0600 
    156 H156       -2.3715  -16.1445  -44.3355 H         1 UNK         0.0600 
    157 H157       -2.6828  -16.6543  -45.9930 H         1 UNK         0.0600 
    158 H158       -1.1701  -15.8581  -45.5887 H         1 UNK         0.0600 
    159 H159        0.0024  -16.8134  -43.6649 H         1 UNK         0.3000 
    160 H160        1.7429  -19.1753  -41.7832 H         1 UNK         0.0600 
    161 H161        3.1643  -17.6010  -43.9957 H         1 UNK         0.0600 
    162 H162        3.3533  -19.3173  -43.6611 H         1 UNK         0.0600 
    163 H163        3.9058  -18.1324  -42.4866 H         1 UNK         0.0600 
    164 H164        2.1470  -16.3599  -42.0719 H         1 UNK         0.3000 
    165 H165       -0.7428  -15.2046  -40.4499 H         1 UNK         0.0600 
    166 H166        0.6978  -14.3481  -38.6190 H         1 UNK         0.0600 
    167 H167        0.3994  -16.0636  -38.3940 H         1 UNK         0.0600 
    168 H168        1.9525  -15.5224  -39.0197 H         1 UNK         0.0600 
    169 H169        1.7241  -13.8890  -40.8740 H         1 UNK         0.3000 
    170 H170        1.6756  -13.4478  -44.3451 H         1 UNK         0.0600 
    171 H171       -0.1023  -11.7971  -43.7265 H         1 UNK         0.0600 
    172 H172        0.8073  -11.3444  -42.2911 H         1 UNK         0.0600 
    173 H173        1.4597  -11.0132  -43.8928 H         1 UNK         0.0600 
    174 H174        3.2570  -12.0440  -42.5904 H         1 UNK         0.3000 
    175 H175        5.1495  -12.9393  -41.3062 H         1 UNK         0.0600 
    176 H176        6.2777  -15.4375  -42.6968 H         1 UNK         0.0600 
    177 H177        7.1279  -14.4435  -41.5161 H         1 UNK         0.0600 
    178 H178        5.7070  -15.3580  -41.0333 H         1 UNK         0.0600 
    179 H179        5.8112  -13.2941  -44.1989 H         1 UNK         0.3000 
    180 H180        6.4008   -9.8705  -44.5747 H         1 UNK         0.0600 
    181 H181        8.4493  -12.1187  -44.9756 H         1 UNK         0.0600 
    182 H182        8.7296  -10.6318  -44.0777 H         1 UNK         0.0600 
    183 H183        8.4403  -10.5632  -45.8084 H         1 UNK         0.0600 
    184 H184        6.4458  -12.0254  -46.4357 H         1 UNK         0.3000 
    185 H185        4.3109  -11.7865  -48.0101 H         1 UNK         0.0600 
    186 H186        5.4069  -13.8709  -47.1263 H         1 UNK         0.0600 
    187 H187        4.0267  -14.1774  -46.0757 H         1 UNK         0.0600 
    188 H188        3.8551  -14.2816  -47.8248 H         1 UNK         0.0600 
    189 H189        2.2030  -11.7964  -46.0690 H         1 UNK         0.3000 
    190 H190       -2.9593  -21.5269  -45.9614 H         1 UNK         0.3000 
    191 H191       -4.5778  -22.1822  -48.1272 H         1 UNK         0.0600 
    192 H192       -5.2762  -20.7124  -46.2760 H         1 UNK         0.0600 
    193 H193       -6.4323  -22.0227  -46.4484 H         1 UNK         0.0600 
    194 H194       -5.2503  -22.0641  -45.1441 H         1 UNK         0.0600 
    195 H195       -3.2634  -24.3707  -45.7081 H         1 UNK         0.3000 
    196 H196       -4.9621  -26.6311  -46.6933 H         1 UNK         0.0600 
    197 H197       -4.2101  -27.7702  -44.6140 H         1 UNK         0.0600 
    198 H198       -5.0574  -26.2757  -44.2455 H         1 UNK         0.0600 
    199 H199       -3.3009  -26.3415  -44.1336 H         1 UNK         0.0600 
    200 H200       -1.5891  -25.6879  -45.8457 H         1 UNK         0.3000 
    201 H201       -0.3899  -28.1028  -46.6273 H         1 UNK         0.0600 
    202 H202        0.6081  -26.4954  -45.0256 H         1 UNK         0.0600 
    203 H203        0.8367  -25.3121  -46.3111 H         1 UNK         0.0600 
    204 H204        1.7342  -26.8254  -46.3333 H         1 UNK         0.0600 
    205 H205       -0.8777  -25.1070  -48.5139 H         1 UNK         0.3000 
    206 H206        0.2757  -26.4224  -50.9529 H         1 UNK         0.0600 
    207 H207        1.4430  -24.3223  -50.1848 H         1 UNK         0.0600 
    208 H208        0.6705  -24.1221  -51.7485 H         1 UNK         0.0600 
    209 H209       -0.0811  -23.4494  -50.3073 H         1 UNK         0.0600 
    210 H210       -2.5787  -26.1115  -49.4630 H         1 UNK         0.3000 
    211 H211       -4.7418  -25.8792  -49.9171 H         1 UNK         0.0600 
    212 H212       -3.9881  -26.6777  -52.7786 H         1 UNK         0.0600 
    213 H213       -5.5829  -26.7996  -52.0487 H         1 UNK         0.0600 
    214 H214       -4.2693  -27.7962  -51.4459 H         1 UNK         0.0600 
    215 H215       -3.3285  -23.4794  -49.8689 H         1 UNK         0.3000 
    216 H216       -3.4357  -21.2998  -50.2734 H         1 UNK         0.0600 
    217 H217       -5.4790  -20.2315  -50.9864 H         1 UNK         0.0600 
    218 H218       -5.9379  -21.6055  -49.9989 H         1 UNK         0.0600 
    219 H219       -6.0813  -21.6928  -51.7509 H         1 UNK         0.0600 
    220 H220       -1.9497  -22.9349  -51.9518 H         1 UNK         0.3000 
    221 H221       -0.6600  -23.0310  -53.7308 H         1 UNK         0.0600 
    222 H222       -1.5075  -20.1518  -54.3295 H         1 UNK         0.0600 
    223 H223       -0.0794  -20.6703  -53.4311 H         1 UNK         0.0600 
    224 H224       -0.2155  -21.0189  -55.1416 H         1 UNK         0.0600 
    225 H225       -2.6554  -24.5161  -53.9404 H         1 UNK         0.3000 
    226 H226       -4.1469  -25.6410  -55.1510 H         1 UNK         0.0600 
    227 H227       -2.2088  -25.8757  -56.7048 H         1 UNK         0.0600 
    228 H228       -3.7327  -25.8855  -57.5777 H         1 UNK         0.0600 
    229 H229       -2.7280  -24.4428  -57.5909 H         1 UNK         0.0600 
    230 H230       -5.3001  -23.6200  -54.0336 H         1 UNK         0.3000 
    231 H231       -7.0751  -22.4016  -53.8538 H         1 UNK         0.0600 
    232 H232       -8.0216  -23.4657  -56.5607 H         1 UNK         0.0600 
    233 H233       -9.0232  -22.7825  -55.2902 H         1 UNK         0.0600 
    234 H234       -8.1996  -24.3079  -55.0210 H         1 UNK         0.0600 
    235 H235       -4.7078  -21.3180  -55.6664 H         1 UNK         0.3000 
    236 H236       -5.8002  -19.2540  -57.2799 H         1 UNK         0.0600 
    237 H237       -3.4591  -20.0258  -57.4925 H         1 UNK         0.0600 
    238 H238       -3.4950  -18.2990  -57.1688 H         1 UNK         0.0600 
    239 H239       -3.0856  -19.4215  -55.8783 H         1 UNK         0.0600 
    240 H240       -4.9760  -19.3420  -53.8266 H         1 UNK         0.3000 
    241 H241       -6.2644  -16.6710  -53.4204 H         1 UNK         0.0600 
    242 H242       -7.6725  -19.4418  -53.8367 H         1 UNK         0.3800 
    243 H243       -8.6846  -19.5062  -52.4162 H         1 UNK         0.3800 
    244 H244       -5.1299  -16.8220  -51.1029 H         1 UNK         0.0800 
    245 H245       -4.1929  -18.1484  -51.7347 H         1 UNK         0.0800 
    246 H246       -1.3992  -16.3532  -53.5884 H         1 UNK         0.0800 
    247 H247       -2.3200  -17.8376  -53.5955 H         1 UNK         0.0800 
@<TRIPOS>BOND
     1    1    2 1    
     2    1  127 1    
     3    1  128 1    
     4    1  129 1    
     5    2    3 2    
     6    2    4 am   BACKBONE|DICT|INTERRES
     7    4    5 1    
     8    4  130 1    
     9    5    6 1    
    10    5   65 1    
    11    5  131 1    
    12    6    7 1    
    13    6  132 1    
    14    6  133 1    
    15    7    8 1    
    16    8    9 1    
    17    8  134 1    
    18    8  135 1    
    19    9   10 ar   
    20    9   14 ar   
    21   10   11 ar   
    22   10  136 1    
    23   11   12 ar   
    24   11  126 1    
    25   12   13 ar   
    26   12  137 1    
    27   13   14 ar   
    28   13   15 1    
    29   14  138 1    
    30   15   16 1    
    31   15  139 1    
    32   15  140 1    
    33   16   17 1    
    34   17   18 1    
    35   17  141 1    
    36   17  142 1    
    37   18   19 1    
    38   18   67 1    
    39   18  143 1    
    40   19   20 am   BACKBONE|DICT|INTERRES
    41   19  144 1    
    42   20   21 2    
    43   20   22 1    
    44   22   23 1    
    45   22   24 1    
    46   22  145 1    
    47   23  146 1    
    48   23  147 1    
    49   23  148 1    
    50   24   25 am   BACKBONE|DICT|INTERRES
    51   24  149 1    
    52   25   26 2    
    53   25   27 1    
    54   27   28 1    
    55   27   29 1    
    56   27  150 1    
    57   28  151 1    
    58   28  152 1    
    59   28  153 1    
    60   29   30 am   BACKBONE|DICT|INTERRES
    61   29  154 1    
    62   30   31 2    
    63   30   32 1    
    64   32   33 1    
    65   32   34 1    
    66   32  155 1    
    67   33  156 1    
    68   33  157 1    
    69   33  158 1    
    70   34   35 am   BACKBONE|DICT|INTERRES
    71   34  159 1    
    72   35   36 2    
    73   35   37 1    
    74   37   38 1    
    75   37   39 1    
    76   37  160 1    
    77   38  161 1    
    78   38  162 1    
    79   38  163 1    
    80   39   40 am   BACKBONE|DICT|INTERRES
    81   39  164 1    
    82   40   41 2    
    83   40   42 1    
    84   42   43 1    
    85   42   44 1    
    86   42  165 1    
    87   43  166 1    
    88   43  167 1    
    89   43  168 1    
    90   44   45 am   BACKBONE|DICT|INTERRES
    91   44  169 1    
    92   45   46 2    
    93   45   47 1    
    94   47   48 1    
    95   47   49 1    
    96   47  170 1    
    97   48  171 1    
    98   48  172 1    
    99   48  173 1    
   100   49   50 am   BACKBONE|DICT|INTERRES
   101   49  174 1    
   102   50   51 2    
   103   50   52 1    
   104   52   53 1    
   105   52   54 1    
   106   52  175 1    
   107   53  176 1    
   108   53  177 1    
   109   53  178 1    
   110   54   55 am   BACKBONE|DICT|INTERRES
   111   54  179 1    
   112   55   56 2    
   113   55   57 1    
   114   57   58 1    
   115   57   59 1    
   116   57  180 1    
   117   58  181 1    
   118   58  182 1    
   119   58  183 1    
   120   59   60 am   BACKBONE|DICT|INTERRES
   121   59  184 1    
   122   60   61 2    
   123   60   62 1    
   124   62   63 1    
   125   62   64 1    
   126   62  185 1    
   127   63  186 1    
   128   63  187 1    
   129   63  188 1    
   130   64   65 am   BACKBONE|DICT|INTERRES
   131   64  189 1    
   132   65   66 2    
   133   67   68 2    
   134   67   69 am   BACKBONE|DICT|INTERRES
   135   69   70 1    
   136   69  190 1    
   137   70   71 1    
   138   70   72 1    
   139   70  191 1    
   140   71  192 1    
   141   71  193 1    
   142   71  194 1    
   143   72   73 2    
   144   72   74 am   BACKBONE|DICT|INTERRES
   145   74   75 1    
   146   74  195 1    
   147   75   76 1    
   148   75   77 1    
   149   75  196 1    
   150   76  197 1    
   151   76  198 1    
   152   76  199 1    
   153   77   78 2    
   154   77   79 am   BACKBONE|DICT|INTERRES
   155   79   80 1    
   156   79  200 1    
   157   80   81 1    
   158   80   82 1    
   159   80  201 1    
   160   81  202 1    
   161   81  203 1    
   162   81  204 1    
   163   82   83 2    
   164   82   84 am   BACKBONE|DICT|INTERRES
   165   84   85 1    
   166   84  205 1    
   167   85   86 1    
   168   85   87 1    
   169   85  206 1    
   170   86  207 1    
   171   86  208 1    
   172   86  209 1    
   173   87   88 2    
   174   87   89 am   BACKBONE|DICT|INTERRES
   175   89   90 1    
   176   89  210 1    
   177   90   91 1    
   178   90   92 1    
   179   90  211 1    
   180   91  212 1    
   181   91  213 1    
   182   91  214 1    
   183   92   93 2    
   184   92   94 am   BACKBONE|DICT|INTERRES
   185   94   95 1    
   186   94  215 1    
   187   95   96 1    
   188   95   97 1    
   189   95  216 1    
   190   96  217 1    
   191   96  218 1    
   192   96  219 1    
   193   97   98 2    
   194   97   99 am   BACKBONE|DICT|INTERRES
   195   99  100 1    
   196   99  220 1    
   197  100  101 1    
   198  100  102 1    
   199  100  221 1    
   200  101  222 1    
   201  101  223 1    
   202  101  224 1    
   203  102  103 2    
   204  102  104 am   BACKBONE|DICT|INTERRES
   205  104  105 1    
   206  104  225 1    
   207  105  106 1    
   208  105  107 1    
   209  105  226 1    
   210  106  227 1    
   211  106  228 1    
   212  106  229 1    
   213  107  108 2    
   214  107  109 am   BACKBONE|DICT|INTERRES
   215  109  110 1    
   216  109  230 1    
   217  110  111 1    
   218  110  112 1    
   219  110  231 1    
   220  111  232 1    
   221  111  233 1    
   222  111  234 1    
   223  112  113 2    
   224  112  114 am   BACKBONE|DICT|INTERRES
   225  114  115 1    
   226  114  235 1    
   227  115  116 1    
   228  115  117 1    
   229  115  236 1    
   230  116  237 1    
   231  116  238 1    
   232  116  239 1    
   233  117  118 2    
   234  117  119 am   BACKBONE|DICT|INTERRES
   235  119  120 1    
   236  119  240 1    
   237  120  121 1    
   238  120  124 1    
   239  120  241 1    
   240  121  122 am   BACKBONE|DICT|INTERRES
   241  121  123 2    
   242  122  242 1    
   243  122  243 1    
   244  124  125 1    
   245  124  244 1    
   246  124  245 1    
   247  125  126 1    
   248  126  246 1    
   249  126  247 1    
@<TRIPOS>SUBSTRUCTURE
     1 UNK         1 GROUP             0       ****    0 ROOT    
