@<TRIPOS>MOLECULE
3R540
247   249    1
SMALL
USER_CHARGES


@<TRIPOS>ATOM
      1 CA         -1.5551  -11.2512  -44.9155 C.3       0 UNK        -0.1800 
      2 C          -0.6650  -11.8471  -45.9967 C.2       0 UNK         0.5000 
      3 O           0.0289  -11.1097  -46.6963 O.2       0 UNK        -0.5000 
      4 N          -0.6780  -13.1796  -46.1307 N.am      1 UNK        -0.5000 
      5 CA          0.1174  -13.9401  -47.1048 C.3       1 UNK         0.1400 
      6 C6         -0.4685  -15.3609  -47.3329 C.3       23 UNK        -0.0398 
      7 S7         -1.8246  -15.3880  -48.5582 S.3       23 UNK        -0.2404 
      8 C8         -0.9557  -15.1837  -50.1567 C.3       23 UNK        -0.0205 
      9 C9         -0.2393  -16.4456  -50.6215 C.ar      23 UNK        -0.0193 
     10 C10        -0.8210  -17.2917  -51.5723 C.ar      23 UNK        -0.1150 
     11 C11        -0.1485  -18.4400  -52.0079 C.ar      23 UNK        -0.0193 
     12 C12         1.0944  -18.7610  -51.4565 C.ar      23 UNK        -0.1150 
     13 C13         1.6773  -17.9295  -50.4982 C.ar      23 UNK        -0.0193 
     14 C14         1.0269  -16.7543  -50.1210 C.ar      23 UNK        -0.1150 
     15 C15         2.9983  -18.3061  -49.8485 C.3       23 UNK        -0.0205 
     16 S16         2.8195  -19.7208  -48.7128 S.3       23 UNK        -0.2404 
     17 C17         1.6426  -19.1086  -47.4524 C.3       23 UNK        -0.0398 
     18 CA          0.5982  -20.1925  -47.0621 C.3       11 UNK         0.1400 
     19 N           0.6274  -20.5144  -45.6322 N.am      11 UNK        -0.5000 
     20 C           0.1464  -21.6568  -45.1230 C.2       10 UNK         0.5000 
     21 O          -0.3819  -22.5348  -45.8066 O.2       10 UNK        -0.5000 
     22 CA          0.2431  -21.8395  -43.5974 C.3       10 UNK         0.1400 
     23 CB          1.6747  -22.2032  -43.1761 C.3       10 UNK        -0.1800 
     24 N          -0.2074  -20.6628  -42.8540 N.am      10 UNK        -0.5000 
     25 C          -1.4641  -20.1963  -42.8736 C.2       9 UNK         0.5000 
     26 O          -2.3773  -20.7192  -43.5102 O.2       9 UNK        -0.5000 
     27 CA         -1.7439  -18.9052  -42.0856 C.3       9 UNK         0.1400 
     28 CB         -1.9072  -19.2053  -40.5883 C.3       9 UNK        -0.1800 
     29 N          -0.7103  -17.8889  -42.2749 N.am      9 UNK        -0.5000 
     30 C          -0.3852  -17.3436  -43.4555 C.2       8 UNK         0.5000 
     31 O          -0.9340  -17.6203  -44.5187 O.2       8 UNK        -0.5000 
     32 CA          0.8000  -16.3710  -43.4643 C.3       8 UNK         0.1400 
     33 CB          0.3965  -15.0149  -42.8670 C.3       8 UNK        -0.1800 
     34 N           1.9518  -16.9138  -42.7499 N.am      8 UNK        -0.5000 
     35 C           2.6003  -18.0390  -43.0843 C.2       7 UNK         0.5000 
     36 O           2.3089  -18.7408  -44.0522 O.2       7 UNK        -0.5000 
     37 CA          3.7360  -18.4780  -42.1478 C.3       7 UNK         0.1400 
     38 CB          5.0278  -17.7069  -42.4562 C.3       7 UNK        -0.1800 
     39 N           3.3742  -18.2991  -40.7424 N.am      7 UNK        -0.5000 
     40 C           2.4338  -19.0152  -40.1096 C.2       6 UNK         0.5000 
     41 O           1.8014  -19.9337  -40.6325 O.2       6 UNK        -0.5000 
     42 CA          2.1209  -18.6004  -38.6611 C.3       6 UNK         0.1400 
     43 CB          3.1610  -19.1802  -37.6907 C.3       6 UNK        -0.1800 
     44 N           2.0585  -17.1463  -38.4984 N.am      6 UNK        -0.5000 
     45 C           1.1136  -16.3691  -39.0456 C.2       5 UNK         0.5000 
     46 O           0.1881  -16.8000  -39.7326 O.2       5 UNK        -0.5000 
     47 CA          1.2420  -14.8522  -38.8166 C.3       5 UNK         0.1400 
     48 CB          0.5952  -14.4526  -37.4820 C.3       5 UNK        -0.1800 
     49 N           2.6210  -14.3560  -38.8567 N.am      5 UNK        -0.5000 
     50 C           3.4294  -14.4362  -39.9210 C.2       4 UNK         0.5000 
     51 O           3.1412  -15.0329  -40.9602 O.2       4 UNK        -0.5000 
     52 CA          4.8009  -13.7586  -39.8034 C.3       4 UNK         0.1400 
     53 CB          5.9129  -14.8089  -39.6577 C.3       4 UNK        -0.1800 
     54 N           5.0434  -12.9611  -41.0030 N.am      4 UNK        -0.5000 
     55 C           4.7182  -11.6682  -41.1342 C.2       3 UNK         0.5000 
     56 O           4.2606  -10.9807  -40.2203 O.2       3 UNK        -0.5000 
     57 CA          4.9358  -11.0348  -42.5223 C.3       3 UNK         0.1400 
     58 CB          6.3640  -10.4816  -42.6446 C.3       3 UNK        -0.1800 
     59 N           4.6848  -11.9695  -43.6225 N.am      3 UNK        -0.5000 
     60 C           3.4666  -12.3812  -43.9956 C.2       2 UNK         0.5000 
     61 O           2.4186  -11.9882  -43.4748 O.2       2 UNK        -0.5000 
     62 CA          3.4162  -13.4087  -45.1368 C.3       2 UNK         0.1400 
     63 CB          3.9955  -14.7631  -44.6890 C.3       2 UNK        -0.1800 
     64 N           2.0291  -13.5616  -45.5679 N.am      2 UNK        -0.5000 
     65 C           1.6291  -13.9938  -46.7694 C.2       1 UNK         0.5000 
     66 O           2.4106  -14.4147  -47.6227 O.2       1 UNK        -0.5000 
     67 C          -0.8337  -19.8799  -47.5563 C.2       11 UNK         0.5000 
     68 O          -1.1824  -20.2722  -48.6684 O.2       11 UNK        -0.5000 
     69 N          -1.6683  -19.2549  -46.7111 N.am      12 UNK        -0.5000 
     70 CA         -3.0951  -19.0433  -46.9723 C.3       12 UNK         0.1400 
     71 CB         -3.6807  -18.0612  -45.9480 C.3       12 UNK        -0.1800 
     72 C          -3.9014  -20.3562  -46.9826 C.2       12 UNK         0.5000 
     73 O          -4.8097  -20.5007  -47.8004 O.2       12 UNK        -0.5000 
     74 N          -3.5453  -21.3096  -46.1092 N.am      13 UNK        -0.5000 
     75 CA         -4.1083  -22.6609  -46.1084 C.3       13 UNK         0.1400 
     76 CB         -3.6762  -23.4222  -44.8467 C.3       13 UNK        -0.1800 
     77 C          -3.7363  -23.4380  -47.3829 C.2       13 UNK         0.5000 
     78 O          -4.6000  -24.0995  -47.9567 O.2       13 UNK        -0.5000 
     79 N          -2.4835  -23.2957  -47.8407 N.am      14 UNK        -0.5000 
     80 CA         -2.0103  -23.8310  -49.1191 C.3       14 UNK         0.1400 
     81 CB         -0.4884  -23.6565  -49.2325 C.3       14 UNK        -0.1800 
     82 C          -2.7364  -23.2058  -50.3268 C.2       14 UNK         0.5000 
     83 O          -3.1052  -23.9328  -51.2478 O.2       14 UNK        -0.5000 
     84 N          -2.9766  -21.8871  -50.2780 N.am      15 UNK        -0.5000 
     85 CA         -3.7495  -21.1309  -51.2676 C.3       15 UNK         0.1400 
     86 CB         -3.7169  -19.6359  -50.9083 C.3       15 UNK        -0.1800 
     87 C          -5.2075  -21.6112  -51.3914 C.2       15 UNK         0.5000 
     88 O          -5.7317  -21.6850  -52.5033 O.2       15 UNK        -0.5000 
     89 N          -5.8270  -21.9366  -50.2489 N.am      16 UNK        -0.5000 
     90 CA         -7.1781  -22.4875  -50.1660 C.3       16 UNK         0.1400 
     91 CB         -7.6967  -22.3385  -48.7274 C.3       16 UNK        -0.1800 
     92 C          -7.2502  -23.9568  -50.6234 C.2       16 UNK         0.5000 
     93 O          -8.2298  -24.3432  -51.2617 O.2       16 UNK        -0.5000 
     94 N          -6.2249  -24.7497  -50.2820 N.am      17 UNK        -0.5000 
     95 CA         -6.1205  -26.1708  -50.6190 C.3       17 UNK         0.1400 
     96 CB         -5.0466  -26.8217  -49.7339 C.3       17 UNK        -0.1800 
     97 C          -5.8188  -26.4359  -52.1061 C.2       17 UNK         0.5000 
     98 O          -6.1910  -27.4961  -52.6122 O.2       17 UNK        -0.5000 
     99 N          -5.1384  -25.4922  -52.7710 N.am      18 UNK        -0.5000 
    100 CA        -4.7737  -25.5480  -54.1867 C.3       18 UNK         0.1400 
    101 CB        -3.9136  -24.3220  -54.5309 C.3       18 UNK        -0.1800 
    102 C         -5.9953  -25.6233  -55.1233 C.2       18 UNK         0.5000 
    103 O         -7.0273  -25.0016  -54.8546 O.2       18 UNK        -0.5000 
    104 N         -5.8418  -26.3619  -56.2292 N.am      19 UNK        -0.5000 
    105 CA        -6.8350  -26.5093  -57.2934 C.3       19 UNK         0.1400 
    106 CB        -6.5370  -27.8027  -58.0733 C.3       19 UNK        -0.1800 
    107 C         -6.8474  -25.2598  -58.1959 C.2       19 UNK         0.5000 
    108 O         -6.3449  -25.3018  -59.3209 O.2       19 UNK        -0.5000 
    109 N         -7.3848  -24.1610  -57.6501 N.am      20 UNK        -0.5000 
    110 CA        -7.3606  -22.7992  -58.1887 C.3       20 UNK         0.1400 
    111 CB        -8.1482  -22.7031  -59.5157 C.3       20 UNK        -0.1800 
    112 C         -5.9165  -22.2560  -58.2550 C.2       20 UNK         0.5000 
    113 O         -5.1334  -22.5286  -57.3401 O.2       20 UNK        -0.5000 
    114 N         -5.5950  -21.4828  -59.3033 N.am      21 UNK        -0.5000 
    115 CA        -4.3163  -20.8047  -59.5411 C.3       21 UNK         0.1400 
    116 CB        -3.2025  -21.8309  -59.8520 C.3       21 UNK        -0.1800 
    117 C         -3.9800  -19.8367  -58.3878 C.2       21 UNK         0.5000 
    118 O         -4.6033  -18.7777  -58.2952 O.2       21 UNK        -0.5000 
    119 N         -3.0333  -20.2224  -57.5243 N.am      22 UNK        -0.5000 
    120 CA        -2.7043  -19.5213  -56.2747 C.3       22 UNK         0.1400 
    121 C         -3.8112  -19.6308  -55.1825 C.2       22 UNK         0.5000 
    122 N         -4.6340  -20.6728  -55.1751 N.am      22 UNK        -0.7600 
    123 O         -3.9317  -18.7510  -54.3368 O.2       22 UNK        -0.5000 
    124 C124       -1.3258  -19.9886  -55.7334 C.3       23 UNK        -0.0398 
    125 S125       -0.4579  -18.7260  -54.7409 S.3       23 UNK        -0.2404 
    126 C126       -0.7679  -19.3452  -53.0595 C.3       23 UNK        -0.0205 
    127 H127       -2.1154  -12.0192  -44.3818 H         1 UNK         0.0600 
    128 H128       -2.2679  -10.5549  -45.3571 H         1 UNK         0.0600 
    129 H129       -0.9492  -10.7076  -44.1904 H         1 UNK         0.0600 
    130 H130       -1.2927  -13.7253  -45.5447 H         1 UNK         0.3000 
    131 H131        0.0682  -13.3946  -48.0484 H         1 UNK         0.0600 
    132 H132        0.2852  -16.0803  -47.6383 H         1 UNK         0.0800 
    133 H133       -0.8572  -15.7621  -46.3970 H         1 UNK         0.0800 
    134 H134       -0.2456  -14.3587  -50.0990 H         1 UNK         0.0800 
    135 H135       -1.6909  -14.8862  -50.9059 H         1 UNK         0.0800 
    136 H136       -1.7922  -17.0543  -51.9838 H         1 UNK         0.1150 
    137 H137        1.6049  -19.6633  -51.7630 H         1 UNK         0.1150 
    138 H138        1.5037  -16.0902  -49.4165 H         1 UNK         0.1150 
    139 H139        3.7207  -18.5625  -50.6246 H         1 UNK         0.0800 
    140 H140        3.4207  -17.4607  -49.3026 H         1 UNK         0.0800 
    141 H141        1.1617  -18.1953  -47.7961 H         1 UNK         0.0800 
    142 H142        2.2386  -18.8045  -46.5932 H         1 UNK         0.0800 
    143 H143        0.8736  -21.1178  -47.5731 H         1 UNK         0.0600 
    144 H144        1.0724  -19.8412  -45.0131 H         1 UNK         0.3000 
    145 H145       -0.4084  -22.6724  -43.3247 H         1 UNK         0.0600 
    146 H146        2.3765  -21.3962  -43.3870 H         1 UNK         0.0600 
    147 H147        1.7274  -22.4198  -42.1090 H         1 UNK         0.0600 
    148 H148        2.0244  -23.0901  -43.7059 H         1 UNK         0.0600 
    149 H149        0.4844  -20.1893  -42.2836 H         1 UNK         0.3000 
    150 H150       -2.6847  -18.4909  -42.4536 H         1 UNK         0.0600 
    151 H151       -2.6758  -19.9610  -40.4216 H         1 UNK         0.0600 
    152 H152       -2.2047  -18.3122  -40.0386 H         1 UNK         0.0600 
    153 H153       -0.9801  -19.5744  -40.1481 H         1 UNK         0.0600 
    154 H154       -0.2215  -17.5794  -41.4389 H         1 UNK         0.3000 
    155 H155        1.1016  -16.2143  -44.5017 H         1 UNK         0.0600 
    156 H156        0.0325  -15.1144  -41.8452 H         1 UNK         0.0600 
    157 H157        1.2376  -14.3240  -42.8491 H         1 UNK         0.0600 
    158 H158       -0.3978  -14.5512  -43.4518 H         1 UNK         0.0600 
    159 H159        2.2942  -16.3685  -41.9626 H         1 UNK         0.3000 
    160 H160        3.9231  -19.5400  -42.3203 H         1 UNK         0.0600 
    161 H161        5.3358  -17.8640  -43.4907 H         1 UNK         0.0600 
    162 H162        5.8477  -18.0373  -41.8184 H         1 UNK         0.0600 
    163 H163        4.9022  -16.6339  -42.3140 H         1 UNK         0.0600 
    164 H164        3.8062  -17.5286  -40.2553 H         1 UNK         0.3000 
    165 H165        1.1442  -19.0141  -38.4008 H         1 UNK         0.0600 
    166 H166        2.9012  -18.9573  -36.6557 H         1 UNK         0.0600 
    167 H167        3.2180  -20.2656  -37.7838 H         1 UNK         0.0600 
    168 H168        4.1584  -18.7814  -37.8801 H         1 UNK         0.0600 
    169 H169        2.7851  -16.7111  -37.9495 H         1 UNK         0.3000 
    170 H170        0.6932  -14.3545  -39.6185 H         1 UNK         0.0600 
    171 H171       -0.4402  -14.7926  -37.4326 H         1 UNK         0.0600 
    172 H172        1.1238  -14.8852  -36.6317 H         1 UNK         0.0600 
    173 H173        0.5857  -13.3697  -37.3566 H         1 UNK         0.0600 
    174 H174        2.9401  -13.8584  -38.0380 H         1 UNK         0.3000 
    175 H175        4.8167  -13.1197  -38.9178 H         1 UNK         0.0600 
    176 H176        5.9649  -15.4701  -40.5225 H         1 UNK         0.0600 
    177 H177        6.8873  -14.3335  -39.5441 H         1 UNK         0.0600 
    178 H178        5.7507  -15.4311  -38.7767 H         1 UNK         0.0600 
    179 H179        5.3525  -13.4653  -41.8202 H         1 UNK         0.3000 
    180 H180        4.2406  -10.1976  -42.6164 H         1 UNK         0.0600 
    181 H181        7.1112  -11.2733  -42.5774 H         1 UNK         0.0600 
    182 H182        6.5738   -9.7642  -41.8500 H         1 UNK         0.0600 
    183 H183        6.5066   -9.9640  -43.5934 H         1 UNK         0.0600 
    184 H184        5.4964  -12.3264  -44.1060 H         1 UNK         0.3000 
    185 H185        4.0026  -13.0181  -45.9711 H         1 UNK         0.0600 
    186 H186        3.8092  -15.5501  -45.4199 H         1 UNK         0.0600 
    187 H187        5.0749  -14.7008  -44.5503 H         1 UNK         0.0600 
    188 H188        3.5678  -15.0767  -43.7391 H         1 UNK         0.0600 
    189 H189        1.3546  -13.1579  -44.9298 H         1 UNK         0.3000 
    190 H190       -1.3176  -18.9043  -45.8231 H         1 UNK         0.3000 
    191 H191       -3.1884  -18.5887  -47.9607 H         1 UNK         0.0600 
    192 H192       -3.5821  -18.4369  -44.9290 H         1 UNK         0.0600 
    193 H193       -4.7412  -17.8882  -46.1345 H         1 UNK         0.0600 
    194 H194       -3.1810  -17.0939  -46.0010 H         1 UNK         0.0600 
    195 H195       -2.8456  -21.1043  -45.4030 H         1 UNK         0.3000 
    196 H196       -5.1963  -22.5692  -46.0850 H         1 UNK         0.0600 
    197 H197       -4.0995  -24.4273  -44.8346 H         1 UNK         0.0600 
    198 H198       -4.0198  -22.9150  -43.9451 H         1 UNK         0.0600 
    199 H199       -2.5934  -23.5222  -44.7816 H         1 UNK         0.0600 
    200 H200       -1.8167  -22.7732  -47.2827 H         1 UNK         0.3000 
    201 H201       -2.2232  -24.9017  -49.1235 H         1 UNK         0.0600 
    202 H202        0.0259  -24.1124  -48.3862 H         1 UNK         0.0600 
    203 H203       -0.1995  -22.6073  -49.2736 H         1 UNK         0.0600 
    204 H204       -0.1114  -24.1324  -50.1385 H         1 UNK         0.0600 
    205 H205       -2.5662  -21.3509  -49.5191 H         1 UNK         0.3000 
    206 H206       -3.2654  -21.2692  -52.2362 H         1 UNK         0.0600 
    207 H207       -2.7050  -19.2946  -50.6958 H         1 UNK         0.0600 
    208 H208       -4.1033  -19.0313  -51.7280 H         1 UNK         0.0600 
    209 H209       -4.3280  -19.4091  -50.0370 H         1 UNK         0.0600 
    210 H210       -5.3401  -21.7791  -49.3732 H         1 UNK         0.3000 
    211 H211       -7.8269  -21.9023  -50.8211 H         1 UNK         0.0600 
    212 H212       -7.0818  -22.8921  -48.0172 H         1 UNK         0.0600 
    213 H213       -8.7176  -22.7119  -48.6396 H         1 UNK         0.0600 
    214 H214       -7.7036  -21.2932  -48.4178 H         1 UNK         0.0600 
    215 H215       -5.4927  -24.3709  -49.6891 H         1 UNK         0.3000 
    216 H216       -7.0776  -26.6441  -50.3901 H         1 UNK         0.0600 
    217 H217       -4.9591  -27.8886  -49.9434 H         1 UNK         0.0600 
    218 H218       -5.2903  -26.7179  -48.6765 H         1 UNK         0.0600 
    219 H219       -4.0668  -26.3726  -49.8986 H         1 UNK         0.0600 
    220 H220       -4.8192  -24.6803  -52.2559 H         1 UNK         0.3000 
    221 H221       -4.1694  -26.4455  -54.3327 H         1 UNK         0.0600 
    222 H222       -4.4472  -23.3935  -54.3277 H         1 UNK         0.0600 
    223 H223       -2.9892  -24.3106  -53.9537 H         1 UNK         0.0600 
    224 H224       -3.6373  -24.3163  -55.5862 H         1 UNK         0.0600 
    225 H225       -4.9518  -26.8094  -56.3940 H         1 UNK         0.3000 
    226 H226       -7.8268  -26.6114  -56.8475 H         1 UNK         0.0600 
    227 H227       -6.5970  -28.6763  -57.4238 H         1 UNK         0.0600 
    228 H228       -7.2589  -27.9474  -58.8780 H         1 UNK         0.0600 
    229 H229       -5.5428  -27.7868  -58.5218 H         1 UNK         0.0600 
    230 H230       -7.6578  -24.2338  -56.6754 H         1 UNK         0.3000 
    231 H231       -7.8782  -22.1795  -57.4554 H         1 UNK         0.0600 
    232 H232       -8.3006  -21.6643  -59.8104 H         1 UNK         0.0600 
    233 H233       -9.1370  -23.1509  -59.4151 H         1 UNK         0.0600 
    234 H234       -7.6380  -23.2096  -60.3356 H         1 UNK         0.0600 
    235 H235       -6.3153  -21.2965  -59.9864 H         1 UNK         0.3000 
    236 H236       -4.4496  -20.1873  -60.4307 H         1 UNK         0.0600 
    237 H237       -2.2537  -21.3311  -60.0512 H         1 UNK         0.0600 
    238 H238       -3.4508  -22.4117  -60.7403 H         1 UNK         0.0600 
    239 H239       -3.0421  -22.5369  -59.0368 H         1 UNK         0.0600 
    240 H240       -2.6084  -21.1281  -57.6585 H         1 UNK         0.3000 
    241 H241       -2.6216  -18.4622  -56.5278 H         1 UNK         0.0600 
    242 H242       -5.3040  -20.7693  -54.4237 H         1 UNK         0.3800 
    243 H243       -4.6093  -21.3722  -55.9116 H         1 UNK         0.3800 
    244 H244       -1.4138  -20.9228  -55.1753 H         1 UNK         0.0800 
    245 H245       -0.6605  -20.2132  -56.5684 H         1 UNK         0.0800 
    246 H246       -1.8410  -19.4092  -52.8988 H         1 UNK         0.0800 
    247 H247       -0.3796  -20.3604  -52.9629 H         1 UNK         0.0800 
@<TRIPOS>BOND
     1    1    2 1    
     2    1  127 1    
     3    1  128 1    
     4    1  129 1    
     5    2    3 2    
     6    2    4 am   BACKBONE|DICT|INTERRES
     7    4    5 1    
     8    4  130 1    
     9    5    6 1    
    10    5   65 1    
    11    5  131 1    
    12    6    7 1    
    13    6  132 1    
    14    6  133 1    
    15    7    8 1    
    16    8    9 1    
    17    8  134 1    
    18    8  135 1    
    19    9   10 ar   
    20    9   14 ar   
    21   10   11 ar   
    22   10  136 1    
    23   11   12 ar   
    24   11  126 1    
    25   12   13 ar   
    26   12  137 1    
    27   13   14 ar   
    28   13   15 1    
    29   14  138 1    
    30   15   16 1    
    31   15  139 1    
    32   15  140 1    
    33   16   17 1    
    34   17   18 1    
    35   17  141 1    
    36   17  142 1    
    37   18   19 1    
    38   18   67 1    
    39   18  143 1    
    40   19   20 am   BACKBONE|DICT|INTERRES
    41   19  144 1    
    42   20   21 2    
    43   20   22 1    
    44   22   23 1    
    45   22   24 1    
    46   22  145 1    
    47   23  146 1    
    48   23  147 1    
    49   23  148 1    
    50   24   25 am   BACKBONE|DICT|INTERRES
    51   24  149 1    
    52   25   26 2    
    53   25   27 1    
    54   27   28 1    
    55   27   29 1    
    56   27  150 1    
    57   28  151 1    
    58   28  152 1    
    59   28  153 1    
    60   29   30 am   BACKBONE|DICT|INTERRES
    61   29  154 1    
    62   30   31 2    
    63   30   32 1    
    64   32   33 1    
    65   32   34 1    
    66   32  155 1    
    67   33  156 1    
    68   33  157 1    
    69   33  158 1    
    70   34   35 am   BACKBONE|DICT|INTERRES
    71   34  159 1    
    72   35   36 2    
    73   35   37 1    
    74   37   38 1    
    75   37   39 1    
    76   37  160 1    
    77   38  161 1    
    78   38  162 1    
    79   38  163 1    
    80   39   40 am   BACKBONE|DICT|INTERRES
    81   39  164 1    
    82   40   41 2    
    83   40   42 1    
    84   42   43 1    
    85   42   44 1    
    86   42  165 1    
    87   43  166 1    
    88   43  167 1    
    89   43  168 1    
    90   44   45 am   BACKBONE|DICT|INTERRES
    91   44  169 1    
    92   45   46 2    
    93   45   47 1    
    94   47   48 1    
    95   47   49 1    
    96   47  170 1    
    97   48  171 1    
    98   48  172 1    
    99   48  173 1    
   100   49   50 am   BACKBONE|DICT|INTERRES
   101   49  174 1    
   102   50   51 2    
   103   50   52 1    
   104   52   53 1    
   105   52   54 1    
   106   52  175 1    
   107   53  176 1    
   108   53  177 1    
   109   53  178 1    
   110   54   55 am   BACKBONE|DICT|INTERRES
   111   54  179 1    
   112   55   56 2    
   113   55   57 1    
   114   57   58 1    
   115   57   59 1    
   116   57  180 1    
   117   58  181 1    
   118   58  182 1    
   119   58  183 1    
   120   59   60 am   BACKBONE|DICT|INTERRES
   121   59  184 1    
   122   60   61 2    
   123   60   62 1    
   124   62   63 1    
   125   62   64 1    
   126   62  185 1    
   127   63  186 1    
   128   63  187 1    
   129   63  188 1    
   130   64   65 am   BACKBONE|DICT|INTERRES
   131   64  189 1    
   132   65   66 2    
   133   67   68 2    
   134   67   69 am   BACKBONE|DICT|INTERRES
   135   69   70 1    
   136   69  190 1    
   137   70   71 1    
   138   70   72 1    
   139   70  191 1    
   140   71  192 1    
   141   71  193 1    
   142   71  194 1    
   143   72   73 2    
   144   72   74 am   BACKBONE|DICT|INTERRES
   145   74   75 1    
   146   74  195 1    
   147   75   76 1    
   148   75   77 1    
   149   75  196 1    
   150   76  197 1    
   151   76  198 1    
   152   76  199 1    
   153   77   78 2    
   154   77   79 am   BACKBONE|DICT|INTERRES
   155   79   80 1    
   156   79  200 1    
   157   80   81 1    
   158   80   82 1    
   159   80  201 1    
   160   81  202 1    
   161   81  203 1    
   162   81  204 1    
   163   82   83 2    
   164   82   84 am   BACKBONE|DICT|INTERRES
   165   84   85 1    
   166   84  205 1    
   167   85   86 1    
   168   85   87 1    
   169   85  206 1    
   170   86  207 1    
   171   86  208 1    
   172   86  209 1    
   173   87   88 2    
   174   87   89 am   BACKBONE|DICT|INTERRES
   175   89   90 1    
   176   89  210 1    
   177   90   91 1    
   178   90   92 1    
   179   90  211 1    
   180   91  212 1    
   181   91  213 1    
   182   91  214 1    
   183   92   93 2    
   184   92   94 am   BACKBONE|DICT|INTERRES
   185   94   95 1    
   186   94  215 1    
   187   95   96 1    
   188   95   97 1    
   189   95  216 1    
   190   96  217 1    
   191   96  218 1    
   192   96  219 1    
   193   97   98 2    
   194   97   99 am   BACKBONE|DICT|INTERRES
   195   99  100 1    
   196   99  220 1    
   197  100  101 1    
   198  100  102 1    
   199  100  221 1    
   200  101  222 1    
   201  101  223 1    
   202  101  224 1    
   203  102  103 2    
   204  102  104 am   BACKBONE|DICT|INTERRES
   205  104  105 1    
   206  104  225 1    
   207  105  106 1    
   208  105  107 1    
   209  105  226 1    
   210  106  227 1    
   211  106  228 1    
   212  106  229 1    
   213  107  108 2    
   214  107  109 am   BACKBONE|DICT|INTERRES
   215  109  110 1    
   216  109  230 1    
   217  110  111 1    
   218  110  112 1    
   219  110  231 1    
   220  111  232 1    
   221  111  233 1    
   222  111  234 1    
   223  112  113 2    
   224  112  114 am   BACKBONE|DICT|INTERRES
   225  114  115 1    
   226  114  235 1    
   227  115  116 1    
   228  115  117 1    
   229  115  236 1    
   230  116  237 1    
   231  116  238 1    
   232  116  239 1    
   233  117  118 2    
   234  117  119 am   BACKBONE|DICT|INTERRES
   235  119  120 1    
   236  119  240 1    
   237  120  121 1    
   238  120  124 1    
   239  120  241 1    
   240  121  122 am   BACKBONE|DICT|INTERRES
   241  121  123 2    
   242  122  242 1    
   243  122  243 1    
   244  124  125 1    
   245  124  244 1    
   246  124  245 1    
   247  125  126 1    
   248  126  246 1    
   249  126  247 1    
@<TRIPOS>SUBSTRUCTURE
     1 UNK         1 GROUP             0       ****    0 ROOT    
