@<TRIPOS>MOLECULE
3R540
247   249    1
SMALL
USER_CHARGES


@<TRIPOS>ATOM
      1 CA         -4.6771   -7.5838  -45.9878 C.3       0 UNK        -0.1800 
      2 C          -4.1224   -8.6303  -46.9442 C.2       0 UNK         0.5000 
      3 O          -3.7208   -8.2911  -48.0579 O.2       0 UNK        -0.5000 
      4 N          -4.1078   -9.8988  -46.5184 N.am      1 UNK        -0.5000 
      5 CA         -3.5726  -11.0370  -47.2735 C.3       1 UNK         0.1400 
      6 C6         -3.9768  -12.3944  -46.6467 C.3       23 UNK        -0.0398 
      7 S7         -5.7807  -12.5794  -46.4179 S.3       23 UNK        -0.2404 
      8 C8         -6.2599  -13.6047  -47.8483 C.3       23 UNK        -0.0205 
      9 C9         -5.5826  -14.9704  -47.8693 C.ar      23 UNK        -0.0193 
     10 C10        -4.9252  -15.4025  -49.0253 C.ar      23 UNK        -0.1150 
     11 C11        -4.2878  -16.6461  -49.0584 C.ar      23 UNK        -0.0193 
     12 C12        -4.3208  -17.4647  -47.9278 C.ar      23 UNK        -0.1150 
     13 C13        -4.9805  -17.0496  -46.7690 C.ar      23 UNK        -0.0193 
     14 C14        -5.6158  -15.8051  -46.7465 C.ar      23 UNK        -0.1150 
     15 C15        -5.0077  -17.9581  -45.5526 C.3       23 UNK        -0.0205 
     16 S16        -3.3678  -18.0657  -44.7700 S.3       23 UNK        -0.2404 
     17 C17        -3.6280  -19.5088  -43.6926 C.3       23 UNK        -0.0398 
     18 CA         -3.3265  -20.8368  -44.4251 C.3       11 UNK         0.1400 
     19 N          -1.9171  -20.9816  -44.8188 N.am      11 UNK        -0.5000 
     20 C          -1.4314  -21.9910  -45.5571 C.2       10 UNK         0.5000 
     21 O          -2.1349  -22.8790  -46.0340 O.2       10 UNK        -0.5000 
     22 CA          0.0892  -22.0739  -45.7461 C.3       10 UNK         0.1400 
     23 CB          0.5624  -21.1874  -46.9074 C.3       10 UNK        -0.1800 
     24 N           0.7856  -21.7407  -44.5043 N.am      10 UNK        -0.5000 
     25 C           0.8922  -22.5883  -43.4685 C.2       9 UNK         0.5000 
     26 O           0.5395  -23.7663  -43.5182 O.2       9 UNK        -0.5000 
     27 CA          1.4374  -22.0290  -42.1404 C.3       9 UNK         0.1400 
     28 CB          2.9235  -22.3659  -41.9596 C.3       9 UNK        -0.1800 
     29 N           1.2390  -20.5850  -42.0114 N.am      9 UNK        -0.5000 
     30 C           0.0529  -20.0206  -41.7423 C.2       8 UNK         0.5000 
     31 O          -0.9775  -20.6670  -41.5501 O.2       8 UNK        -0.5000 
     32 CA         -0.0091  -18.4799  -41.7425 C.3       8 UNK         0.1400 
     33 CB          0.3054  -17.9289  -40.3442 C.3       8 UNK        -0.1800 
     34 N           0.8826  -17.8519  -42.7215 N.am      8 UNK        -0.5000 
     35 C           0.8378  -18.0630  -44.0440 C.2       7 UNK         0.5000 
     36 O           0.0293  -18.8245  -44.5737 O.2       7 UNK        -0.5000 
     37 CA          1.8883  -17.3554  -44.9252 C.3       7 UNK         0.1400 
     38 CB          2.7276  -16.2941  -44.1803 C.3       7 UNK        -0.1800 
     39 N           2.7727  -18.3129  -45.5975 N.am      7 UNK        -0.5000 
     40 C           3.5367  -19.2556  -45.0198 C.2       6 UNK         0.5000 
     41 O           3.5502  -19.4639  -43.8055 O.2       6 UNK        -0.5000 
     42 CA          4.4344  -20.1103  -45.9386 C.3       6 UNK         0.1400 
     43 CB          4.4360  -21.5957  -45.5380 C.3       6 UNK        -0.1800 
     44 N           4.0367  -20.0026  -47.3417 N.am      6 UNK        -0.5000 
     45 C           4.8303  -19.6178  -48.3467 C.2       5 UNK         0.5000 
     46 O           6.0202  -19.3275  -48.2154 O.2       5 UNK        -0.5000 
     47 CA          4.1830  -19.5123  -49.7419 C.3       5 UNK         0.1400 
     48 CB          2.9562  -20.4315  -49.9388 C.3       5 UNK        -0.1800 
     49 N           3.8540  -18.1228  -50.0720 N.am      5 UNK        -0.5000 
     50 C           3.0444  -17.3018  -49.3887 C.2       4 UNK         0.5000 
     51 O           2.4004  -17.6382  -48.3905 O.2       4 UNK        -0.5000 
     52 CA          2.9348  -15.8655  -49.9298 C.3       4 UNK         0.1400 
     53 CB          1.9500  -15.7975  -51.1048 C.3       4 UNK        -0.1800 
     54 N           2.4928  -14.9362  -48.8931 N.am      4 UNK        -0.5000 
     55 C           3.2630  -14.4599  -47.9084 C.2       3 UNK         0.5000 
     56 O           4.4637  -14.7177  -47.8043 O.2       3 UNK        -0.5000 
     57 CA          2.5782  -13.5137  -46.8965 C.3       3 UNK         0.1400 
     58 CB          3.5783  -12.8440  -45.9357 C.3       3 UNK        -0.1800 
     59 N           1.8019  -12.4648  -47.5637 N.am      3 UNK        -0.5000 
     60 C           0.5636  -12.6081  -48.0484 C.2       2 UNK         0.5000 
     61 O          -0.0700  -13.6646  -47.9976 O.2       2 UNK        -0.5000 
     62 CA         -0.0391  -11.3869  -48.7646 C.3       2 UNK         0.1400 
     63 CB          0.2363  -11.4716  -50.2733 C.3       2 UNK        -0.1800 
     64 N          -1.4824  -11.3006  -48.5410 N.am      2 UNK        -0.5000 
     65 C          -2.0354  -10.9456  -47.3746 C.2       1 UNK         0.5000 
     66 O          -1.3816  -10.5812  -46.3928 O.2       1 UNK        -0.5000 
     67 C          -3.8264  -22.0388  -43.5988 C.2       11 UNK         0.5000 
     68 O          -4.9200  -22.5391  -43.8636 O.2       11 UNK        -0.5000 
     69 N          -2.9868  -22.5328  -42.6773 N.am      12 UNK        -0.5000 
     70 CA         -3.2138  -23.7575  -41.9026 C.3       12 UNK         0.1400 
     71 CB         -2.1126  -23.8860  -40.8396 C.3       12 UNK        -0.1800 
     72 C          -3.2864  -25.0399  -42.7619 C.2       12 UNK         0.5000 
     73 O          -3.8812  -26.0255  -42.3255 O.2       12 UNK        -0.5000 
     74 N          -2.7110  -24.9952  -43.9701 N.am      13 UNK        -0.5000 
     75 CA         -2.7434  -26.0475  -44.9844 C.3       13 UNK         0.1400 
     76 CB         -1.3238  -26.2199  -45.5550 C.3       13 UNK        -0.1800 
     77 C          -3.7750  -25.7401  -46.0921 C.2       13 UNK         0.5000 
     78 O          -3.6258  -26.2355  -47.2096 O.2       13 UNK        -0.5000 
     79 N          -4.7923  -24.9207  -45.7801 N.am      14 UNK        -0.5000 
     80 CA         -5.8930  -24.4984  -46.6548 C.3       14 UNK         0.1400 
     81 CB         -6.7919  -25.6977  -47.0232 C.3       14 UNK        -0.1800 
     82 C          -5.3968  -23.7155  -47.8866 C.2       14 UNK         0.5000 
     83 O          -5.7283  -24.0609  -49.0217 O.2       14 UNK        -0.5000 
     84 N          -4.5694  -22.6935  -47.6272 N.am      15 UNK        -0.5000 
     85 CA         -3.8693  -21.8508  -48.6044 C.3       15 UNK         0.1400 
     86 CB         -4.8644  -20.9946  -49.4147 C.3       15 UNK        -0.1800 
     87 C          -2.9115  -22.6776  -49.4851 C.2       15 UNK         0.5000 
     88 O          -2.8984  -22.5205  -50.7076 O.2       15 UNK        -0.5000 
     89 N          -2.1546  -23.5706  -48.8294 N.am      16 UNK        -0.5000 
     90 CA         -1.2456  -24.5680  -49.4044 C.3       16 UNK         0.1400 
     91 CB          0.0095  -23.8836  -49.9848 C.3       16 UNK        -0.1800 
     92 C          -1.9600  -25.4841  -50.4203 C.2       16 UNK         0.5000 
     93 O          -1.4855  -25.6491  -51.5439 O.2       16 UNK        -0.5000 
     94 N          -3.1173  -26.0217  -50.0071 N.am      17 UNK        -0.5000 
     95 CA         -4.0820  -26.7805  -50.8103 C.3       17 UNK         0.1400 
     96 CB         -3.5008  -28.1515  -51.2140 C.3       17 UNK        -0.1800 
     97 C          -4.6172  -25.9647  -52.0085 C.2       17 UNK         0.5000 
     98 O          -4.6815  -26.4737  -53.1293 O.2       17 UNK        -0.5000 
     99 N          -4.9798  -24.7031  -51.7321 N.am      18 UNK        -0.5000 
    100 CA        -5.4602  -23.6774  -52.6624 C.3       18 UNK         0.1400 
    101 CB        -6.8836  -24.0207  -53.1476 C.3       18 UNK        -0.1800 
    102 C         -4.4750  -23.3920  -53.8174 C.2       18 UNK         0.5000 
    103 O         -4.8895  -23.3092  -54.9759 O.2       18 UNK        -0.5000 
    104 N         -3.1851  -23.2579  -53.4832 N.am      19 UNK        -0.5000 
    105 CA        -2.0943  -23.0818  -54.4443 C.3       19 UNK         0.1400 
    106 CB        -1.5457  -24.4585  -54.8631 C.3       19 UNK        -0.1800 
    107 C         -0.9817  -22.1401  -53.9447 C.2       19 UNK         0.5000 
    108 O          0.0619  -22.0602  -54.5946 O.2       19 UNK        -0.5000 
    109 N         -1.2029  -21.4243  -52.8298 N.am      20 UNK        -0.5000 
    110 CA        -0.2489  -20.4598  -52.2647 C.3       20 UNK         0.1400 
    111 CB        -0.7130  -20.0261  -50.8658 C.3       20 UNK        -0.1800 
    112 C          0.0143  -19.2273  -53.1559 C.2       20 UNK         0.5000 
    113 O          1.0929  -18.6426  -53.0576 O.2       20 UNK        -0.5000 
    114 N         -0.9570  -18.8824  -54.0179 N.am      21 UNK        -0.5000 
    115 CA        -0.9044  -17.8295  -55.0407 C.3       21 UNK         0.1400 
    116 CB         0.1090  -18.1996  -56.1442 C.3       21 UNK        -0.1800 
    117 C         -0.6683  -16.4247  -54.4468 C.2       21 UNK         0.5000 
    118 O          0.2509  -15.7141  -54.8584 O.2       21 UNK        -0.5000 
    119 N         -1.5119  -16.0608  -53.4738 N.am      22 UNK        -0.5000 
    120 CA        -1.4413  -14.7959  -52.7188 C.3       22 UNK         0.1400 
    121 C         -1.8405  -13.5199  -53.5202 C.2       22 UNK         0.5000 
    122 N         -2.4038  -13.6291  -54.7171 N.am      22 UNK        -0.7600 
    123 O         -1.6377  -12.4071  -53.0444 O.2       22 UNK        -0.5000 
    124 C124       -2.2354  -14.8644  -51.3868 C.3       23 UNK        -0.0398 
    125 S125       -1.8985  -16.3746  -50.4139 S.3       23 UNK        -0.2404 
    126 C126       -3.5577  -17.1125  -50.3066 C.3       23 UNK        -0.0205 
    127 H127       -5.0046   -8.0272  -45.0471 H         1 UNK         0.0600 
    128 H128       -5.5298   -7.0768  -46.4395 H         1 UNK         0.0600 
    129 H129       -3.9142   -6.8378  -45.7646 H         1 UNK         0.0600 
    130 H130       -4.4448  -10.1148  -45.5914 H         1 UNK         0.3000 
    131 H131       -3.9896  -10.9915  -48.2820 H         1 UNK         0.0600 
    132 H132       -3.5969  -13.2192  -47.2519 H         1 UNK         0.0800 
    133 H133       -3.5133  -12.5116  -45.6653 H         1 UNK         0.0800 
    134 H134       -7.3403  -13.7523  -47.8274 H         1 UNK         0.0800 
    135 H135       -6.0431  -13.0486  -48.7617 H         1 UNK         0.0800 
    136 H136       -4.9034  -14.7669  -49.8982 H         1 UNK         0.1150 
    137 H137       -3.8229  -18.4241  -47.9423 H         1 UNK         0.1150 
    138 H138       -6.1282  -15.4792  -45.8522 H         1 UNK         0.1150 
    139 H139       -5.7342  -17.6047  -44.8191 H         1 UNK         0.0800 
    140 H140       -5.3384  -18.9497  -45.8642 H         1 UNK         0.0800 
    141 H141       -4.6572  -19.4853  -43.3285 H         1 UNK         0.0800 
    142 H142       -2.9954  -19.4029  -42.8114 H         1 UNK         0.0800 
    143 H143       -3.9074  -20.8413  -45.3491 H         1 UNK         0.0600 
    144 H144       -1.2835  -20.2408  -44.5307 H         1 UNK         0.3000 
    145 H145        0.3263  -23.1057  -46.0149 H         1 UNK         0.0600 
    146 H146        1.6056  -21.3885  -47.1428 H         1 UNK         0.0600 
    147 H147       -0.0148  -21.3904  -47.8098 H         1 UNK         0.0600 
    148 H148        0.4596  -20.1245  -46.6952 H         1 UNK         0.0600 
    149 H149        1.0243  -20.7677  -44.3643 H         1 UNK         0.3000 
    150 H150        0.8906  -22.5234  -41.3347 H         1 UNK         0.0600 
    151 H151        3.0972  -23.4384  -42.0562 H         1 UNK         0.0600 
    152 H152        3.2762  -22.0671  -40.9724 H         1 UNK         0.0600 
    153 H153        3.5434  -21.8647  -42.6995 H         1 UNK         0.0600 
    154 H154        2.0339  -19.9936  -42.2240 H         1 UNK         0.3000 
    155 H155       -1.0304  -18.1927  -41.9995 H         1 UNK         0.0600 
    156 H156       -0.3591  -18.3622  -39.5953 H         1 UNK         0.0600 
    157 H157        0.1731  -16.8475  -40.3068 H         1 UNK         0.0600 
    158 H158        1.3297  -18.1537  -40.0440 H         1 UNK         0.0600 
    159 H159        1.5960  -17.2381  -42.3564 H         1 UNK         0.3000 
    160 H160        1.3316  -16.8462  -45.7135 H         1 UNK         0.0600 
    161 H161        3.3133  -16.7243  -43.3672 H         1 UNK         0.0600 
    162 H162        2.0944  -15.5103  -43.7626 H         1 UNK         0.0600 
    163 H163        3.4282  -15.8130  -44.8618 H         1 UNK         0.0600 
    164 H164        2.7967  -18.2181  -46.6099 H         1 UNK         0.3000 
    165 H165        5.4476  -19.7270  -45.8044 H         1 UNK         0.0600 
    166 H166        5.0279  -22.1902  -46.2341 H         1 UNK         0.0600 
    167 H167        4.8782  -21.7318  -44.5515 H         1 UNK         0.0600 
    168 H168        3.4295  -22.0130  -45.5154 H         1 UNK         0.0600 
    169 H169        3.0626  -20.1706  -47.5464 H         1 UNK         0.3000 
    170 H170        4.9440  -19.8309  -50.4559 H         1 UNK         0.0600 
    171 H171        2.0963  -20.1218  -49.3452 H         1 UNK         0.0600 
    172 H172        2.6488  -20.4294  -50.9836 H         1 UNK         0.0600 
    173 H173        3.1892  -21.4641  -49.6755 H         1 UNK         0.0600 
    174 H174        4.3454  -17.7477  -50.8710 H         1 UNK         0.3000 
    175 H175        3.9184  -15.5490  -50.2832 H         1 UNK         0.0600 
    176 H176        0.9626  -16.1578  -50.8190 H         1 UNK         0.0600 
    177 H177        1.8455  -14.7776  -51.4749 H         1 UNK         0.0600 
    178 H178        2.2902  -16.4112  -51.9396 H         1 UNK         0.0600 
    179 H179        1.5027  -14.7222  -48.8624 H         1 UNK         0.3000 
    180 H180        1.9032  -14.1269  -46.2957 H         1 UNK         0.0600 
    181 H181        4.2851  -12.2083  -46.4704 H         1 UNK         0.0600 
    182 H182        4.1576  -13.5852  -45.3844 H         1 UNK         0.0600 
    183 H183        3.0631  -12.2272  -45.1991 H         1 UNK         0.0600 
    184 H184        2.2728  -11.5798  -47.6870 H         1 UNK         0.3000 
    185 H185        0.4269  -10.4781  -48.3773 H         1 UNK         0.0600 
    186 H186       -0.1660  -12.3880  -50.7053 H         1 UNK         0.0600 
    187 H187       -0.2026  -10.6280  -50.8065 H         1 UNK         0.0600 
    188 H188        1.3081  -11.4614  -50.4755 H         1 UNK         0.0600 
    189 H189       -2.0726  -11.6121  -49.2979 H         1 UNK         0.3000 
    190 H190       -2.1327  -22.0220  -42.4755 H         1 UNK         0.3000 
    191 H191       -4.1726  -23.6529  -41.3909 H         1 UNK         0.0600 
    192 H192       -1.1292  -24.0049  -41.2944 H         1 UNK         0.0600 
    193 H193       -2.0804  -23.0079  -40.1942 H         1 UNK         0.0600 
    194 H194       -2.2851  -24.7530  -40.2007 H         1 UNK         0.0600 
    195 H195       -2.2721  -24.1316  -44.2621 H         1 UNK         0.3000 
    196 H196       -3.0394  -26.9954  -44.5314 H         1 UNK         0.0600 
    197 H197       -0.6067  -26.4370  -44.7631 H         1 UNK         0.0600 
    198 H198       -0.9845  -25.3220  -46.0709 H         1 UNK         0.0600 
    199 H199       -1.2800  -27.0459  -46.2658 H         1 UNK         0.0600 
    200 H200       -4.7964  -24.5061  -44.8563 H         1 UNK         0.3000 
    201 H201       -6.4982  -23.8017  -46.0729 H         1 UNK         0.0600 
    202 H202       -7.6701  -25.3686  -47.5798 H         1 UNK         0.0600 
    203 H203       -7.1478  -26.2119  -46.1305 H         1 UNK         0.0600 
    204 H204       -6.2686  -26.4260  -47.6435 H         1 UNK         0.0600 
    205 H205       -4.2714  -22.5782  -46.6682 H         1 UNK         0.3000 
    206 H206       -3.2394  -21.1655  -48.0356 H         1 UNK         0.0600 
    207 H207       -5.4549  -20.3546  -48.7593 H         1 UNK         0.0600 
    208 H208       -5.5558  -21.6061  -49.9931 H         1 UNK         0.0600 
    209 H209       -4.3420  -20.3467  -50.1177 H         1 UNK         0.0600 
    210 H210       -2.2504  -23.5944  -47.8184 H         1 UNK         0.3000 
    211 H211       -0.9247  -25.2095  -48.5829 H         1 UNK         0.0600 
    212 H212        0.5088  -23.2694  -49.2366 H         1 UNK         0.0600 
    213 H213        0.7327  -24.6238  -50.3286 H         1 UNK         0.0600 
    214 H214       -0.2330  -23.2477  -50.8357 H         1 UNK         0.0600 
    215 H215       -3.3913  -25.8712  -49.0384 H         1 UNK         0.3000 
    216 H216       -4.9384  -26.9642  -50.1598 H         1 UNK         0.0600 
    217 H217       -4.2568  -28.7660  -51.7039 H         1 UNK         0.0600 
    218 H218       -2.6637  -28.0508  -51.9054 H         1 UNK         0.0600 
    219 H219       -3.1509  -28.7025  -50.3411 H         1 UNK         0.0600 
    220 H220       -4.9387  -24.4090  -50.7599 H         1 UNK         0.3000 
    221 H221       -5.5242  -22.7529  -52.0884 H         1 UNK         0.0600 
    222 H222       -6.8959  -24.9232  -53.7595 H         1 UNK         0.0600 
    223 H223       -7.5580  -24.1771  -52.3056 H         1 UNK         0.0600 
    224 H224       -7.2988  -23.2108  -53.7484 H         1 UNK         0.0600 
    225 H225       -2.9297  -23.3189  -52.5011 H         1 UNK         0.3000 
    226 H226       -2.4875  -22.5962  -55.3396 H         1 UNK         0.0600 
    227 H227       -2.3403  -25.1073  -55.2320 H         1 UNK         0.0600 
    228 H228       -0.8097  -24.3636  -55.6622 H         1 UNK         0.0600 
    229 H229       -1.0601  -24.9654  -54.0300 H         1 UNK         0.0600 
    230 H230       -2.0501  -21.5866  -52.2971 H         1 UNK         0.3000 
    231 H231        0.7055  -20.9769  -52.1538 H         1 UNK         0.0600 
    232 H232       -0.0826  -19.2299  -50.4662 H         1 UNK         0.0600 
    233 H233       -0.6627  -20.8552  -50.1620 H         1 UNK         0.0600 
    234 H234       -1.7377  -19.6581  -50.8816 H         1 UNK         0.0600 
    235 H235       -1.8040  -19.4315  -53.9979 H         1 UNK         0.3000 
    236 H236       -1.8915  -17.8017  -55.5046 H         1 UNK         0.0600 
    237 H237       -0.1088  -19.1813  -56.5651 H         1 UNK         0.0600 
    238 H238        0.0751  -17.4802  -56.9631 H         1 UNK         0.0600 
    239 H239        1.1321  -18.2177  -55.7671 H         1 UNK         0.0600 
    240 H240       -2.2218  -16.7132  -53.1779 H         1 UNK         0.3000 
    241 H241       -0.3928  -14.6521  -52.4550 H         1 UNK         0.0600 
    242 H242       -2.6547  -12.7949  -55.2243 H         1 UNK         0.3800 
    243 H243       -2.5759  -14.5339  -55.1241 H         1 UNK         0.3800 
    244 H244       -1.9922  -14.0085  -50.7556 H         1 UNK         0.0800 
    245 H245       -3.3037  -14.7891  -51.5909 H         1 UNK         0.0800 
    246 H246       -3.4494  -18.1957  -50.2860 H         1 UNK         0.0800 
    247 H247       -4.1452  -16.8906  -51.1982 H         1 UNK         0.0800 
@<TRIPOS>BOND
     1    1    2 1    
     2    1  127 1    
     3    1  128 1    
     4    1  129 1    
     5    2    3 2    
     6    2    4 am   BACKBONE|DICT|INTERRES
     7    4    5 1    
     8    4  130 1    
     9    5    6 1    
    10    5   65 1    
    11    5  131 1    
    12    6    7 1    
    13    6  132 1    
    14    6  133 1    
    15    7    8 1    
    16    8    9 1    
    17    8  134 1    
    18    8  135 1    
    19    9   10 ar   
    20    9   14 ar   
    21   10   11 ar   
    22   10  136 1    
    23   11   12 ar   
    24   11  126 1    
    25   12   13 ar   
    26   12  137 1    
    27   13   14 ar   
    28   13   15 1    
    29   14  138 1    
    30   15   16 1    
    31   15  139 1    
    32   15  140 1    
    33   16   17 1    
    34   17   18 1    
    35   17  141 1    
    36   17  142 1    
    37   18   19 1    
    38   18   67 1    
    39   18  143 1    
    40   19   20 am   BACKBONE|DICT|INTERRES
    41   19  144 1    
    42   20   21 2    
    43   20   22 1    
    44   22   23 1    
    45   22   24 1    
    46   22  145 1    
    47   23  146 1    
    48   23  147 1    
    49   23  148 1    
    50   24   25 am   BACKBONE|DICT|INTERRES
    51   24  149 1    
    52   25   26 2    
    53   25   27 1    
    54   27   28 1    
    55   27   29 1    
    56   27  150 1    
    57   28  151 1    
    58   28  152 1    
    59   28  153 1    
    60   29   30 am   BACKBONE|DICT|INTERRES
    61   29  154 1    
    62   30   31 2    
    63   30   32 1    
    64   32   33 1    
    65   32   34 1    
    66   32  155 1    
    67   33  156 1    
    68   33  157 1    
    69   33  158 1    
    70   34   35 am   BACKBONE|DICT|INTERRES
    71   34  159 1    
    72   35   36 2    
    73   35   37 1    
    74   37   38 1    
    75   37   39 1    
    76   37  160 1    
    77   38  161 1    
    78   38  162 1    
    79   38  163 1    
    80   39   40 am   BACKBONE|DICT|INTERRES
    81   39  164 1    
    82   40   41 2    
    83   40   42 1    
    84   42   43 1    
    85   42   44 1    
    86   42  165 1    
    87   43  166 1    
    88   43  167 1    
    89   43  168 1    
    90   44   45 am   BACKBONE|DICT|INTERRES
    91   44  169 1    
    92   45   46 2    
    93   45   47 1    
    94   47   48 1    
    95   47   49 1    
    96   47  170 1    
    97   48  171 1    
    98   48  172 1    
    99   48  173 1    
   100   49   50 am   BACKBONE|DICT|INTERRES
   101   49  174 1    
   102   50   51 2    
   103   50   52 1    
   104   52   53 1    
   105   52   54 1    
   106   52  175 1    
   107   53  176 1    
   108   53  177 1    
   109   53  178 1    
   110   54   55 am   BACKBONE|DICT|INTERRES
   111   54  179 1    
   112   55   56 2    
   113   55   57 1    
   114   57   58 1    
   115   57   59 1    
   116   57  180 1    
   117   58  181 1    
   118   58  182 1    
   119   58  183 1    
   120   59   60 am   BACKBONE|DICT|INTERRES
   121   59  184 1    
   122   60   61 2    
   123   60   62 1    
   124   62   63 1    
   125   62   64 1    
   126   62  185 1    
   127   63  186 1    
   128   63  187 1    
   129   63  188 1    
   130   64   65 am   BACKBONE|DICT|INTERRES
   131   64  189 1    
   132   65   66 2    
   133   67   68 2    
   134   67   69 am   BACKBONE|DICT|INTERRES
   135   69   70 1    
   136   69  190 1    
   137   70   71 1    
   138   70   72 1    
   139   70  191 1    
   140   71  192 1    
   141   71  193 1    
   142   71  194 1    
   143   72   73 2    
   144   72   74 am   BACKBONE|DICT|INTERRES
   145   74   75 1    
   146   74  195 1    
   147   75   76 1    
   148   75   77 1    
   149   75  196 1    
   150   76  197 1    
   151   76  198 1    
   152   76  199 1    
   153   77   78 2    
   154   77   79 am   BACKBONE|DICT|INTERRES
   155   79   80 1    
   156   79  200 1    
   157   80   81 1    
   158   80   82 1    
   159   80  201 1    
   160   81  202 1    
   161   81  203 1    
   162   81  204 1    
   163   82   83 2    
   164   82   84 am   BACKBONE|DICT|INTERRES
   165   84   85 1    
   166   84  205 1    
   167   85   86 1    
   168   85   87 1    
   169   85  206 1    
   170   86  207 1    
   171   86  208 1    
   172   86  209 1    
   173   87   88 2    
   174   87   89 am   BACKBONE|DICT|INTERRES
   175   89   90 1    
   176   89  210 1    
   177   90   91 1    
   178   90   92 1    
   179   90  211 1    
   180   91  212 1    
   181   91  213 1    
   182   91  214 1    
   183   92   93 2    
   184   92   94 am   BACKBONE|DICT|INTERRES
   185   94   95 1    
   186   94  215 1    
   187   95   96 1    
   188   95   97 1    
   189   95  216 1    
   190   96  217 1    
   191   96  218 1    
   192   96  219 1    
   193   97   98 2    
   194   97   99 am   BACKBONE|DICT|INTERRES
   195   99  100 1    
   196   99  220 1    
   197  100  101 1    
   198  100  102 1    
   199  100  221 1    
   200  101  222 1    
   201  101  223 1    
   202  101  224 1    
   203  102  103 2    
   204  102  104 am   BACKBONE|DICT|INTERRES
   205  104  105 1    
   206  104  225 1    
   207  105  106 1    
   208  105  107 1    
   209  105  226 1    
   210  106  227 1    
   211  106  228 1    
   212  106  229 1    
   213  107  108 2    
   214  107  109 am   BACKBONE|DICT|INTERRES
   215  109  110 1    
   216  109  230 1    
   217  110  111 1    
   218  110  112 1    
   219  110  231 1    
   220  111  232 1    
   221  111  233 1    
   222  111  234 1    
   223  112  113 2    
   224  112  114 am   BACKBONE|DICT|INTERRES
   225  114  115 1    
   226  114  235 1    
   227  115  116 1    
   228  115  117 1    
   229  115  236 1    
   230  116  237 1    
   231  116  238 1    
   232  116  239 1    
   233  117  118 2    
   234  117  119 am   BACKBONE|DICT|INTERRES
   235  119  120 1    
   236  119  240 1    
   237  120  121 1    
   238  120  124 1    
   239  120  241 1    
   240  121  122 am   BACKBONE|DICT|INTERRES
   241  121  123 2    
   242  122  242 1    
   243  122  243 1    
   244  124  125 1    
   245  124  244 1    
   246  124  245 1    
   247  125  126 1    
   248  126  246 1    
   249  126  247 1    
@<TRIPOS>SUBSTRUCTURE
     1 UNK         1 GROUP             0       ****    0 ROOT    
