@<TRIPOS>MOLECULE
3R540
247   249    1
SMALL
USER_CHARGES


@<TRIPOS>ATOM
      1 CA         -5.2334  -15.3329  -49.6487 C.3       0 UNK        -0.1800 
      2 C          -4.2280  -15.2651  -48.5077 C.2       0 UNK         0.5000 
      3 O          -4.0234  -16.2692  -47.8291 O.2       0 UNK        -0.5000 
      4 N          -3.6186  -14.0848  -48.3142 N.am      1 UNK        -0.5000 
      5 CA         -2.6245  -13.7118  -47.2957 C.3       1 UNK         0.1400 
      6 C6         -1.1441  -13.9867  -47.6895 C.3       23 UNK        -0.0398 
      7 S7         -0.7263  -15.6839  -48.2259 S.3       23 UNK        -0.2404 
      8 C8          0.2187  -15.3250  -49.7458 C.3       23 UNK        -0.0205 
      9 C9          0.8989  -16.5532  -50.3397 C.ar      23 UNK        -0.0193 
     10 C10         0.8085  -16.8181  -51.7093 C.ar      23 UNK        -0.1150 
     11 C11         1.4792  -17.9107  -52.2690 C.ar      23 UNK        -0.0193 
     12 C12         2.2278  -18.7558  -51.4435 C.ar      23 UNK        -0.1150 
     13 C13         2.3046  -18.5190  -50.0694 C.ar      23 UNK        -0.0193 
     14 C14         1.6610  -17.4014  -49.5329 C.ar      23 UNK        -0.1150 
     15 C15         3.0772  -19.4684  -49.1622 C.3       23 UNK        -0.0205 
     16 S16         2.2690  -21.0982  -49.0000 S.3       23 UNK        -0.2404 
     17 C17         0.5671  -20.6318  -48.5418 C.3       23 UNK        -0.0398 
     18 CA         -0.1620  -21.7056  -47.7014 C.3       11 UNK         0.1400 
     19 N           0.3825  -21.8408  -46.3429 N.am      11 UNK        -0.5000 
     20 C           0.0148  -22.7936  -45.4723 C.2       10 UNK         0.5000 
     21 O          -0.7979  -23.6791  -45.7380 O.2       10 UNK        -0.5000 
     22 CA          0.6072  -22.7252  -44.0522 C.3       10 UNK         0.1400 
     23 CB          2.0483  -23.2554  -44.0253 C.3       10 UNK        -0.1800 
     24 N           0.5542  -21.3803  -43.4768 N.am      10 UNK        -0.5000 
     25 C          -0.5786  -20.7213  -43.1905 C.2       9 UNK         0.5000 
     26 O          -1.7009  -21.1972  -43.3493 O.2       9 UNK        -0.5000 
     27 CA         -0.4447  -19.2666  -42.7015 C.3       9 UNK         0.1400 
     28 CB         -0.1134  -19.2087  -41.2037 C.3       9 UNK        -0.1800 
     29 N           0.5538  -18.5169  -43.4611 N.am      9 UNK        -0.5000 
     30 C           0.4823  -18.2874  -44.7789 C.2       8 UNK         0.5000 
     31 O          -0.4751  -18.6062  -45.4827 O.2       8 UNK        -0.5000 
     32 CA          1.7171  -17.6536  -45.4315 C.3       8 UNK         0.1400 
     33 CB          1.6973  -16.1244  -45.2960 C.3       8 UNK        -0.1800 
     34 N           2.9652  -18.1948  -44.8936 N.am      8 UNK        -0.5000 
     35 C           3.3809  -19.4543  -45.0911 C.2       7 UNK         0.5000 
     36 O           2.7659  -20.2720  -45.7723 O.2       7 UNK        -0.5000 
     37 CA          4.6726  -19.8852  -44.3731 C.3       7 UNK         0.1400 
     38 CB          5.9078  -19.4239  -45.1607 C.3       7 UNK        -0.1800 
     39 N           4.7465  -19.3723  -43.0051 N.am      7 UNK        -0.5000 
     40 C           3.9175  -19.7333  -42.0147 C.2       6 UNK         0.5000 
     41 O           3.0556  -20.6033  -42.1318 O.2       6 UNK        -0.5000 
     42 CA          4.0334  -18.9500  -40.6908 C.3       6 UNK         0.1400 
     43 CB          5.0255  -19.6390  -39.7425 C.3       6 UNK        -0.1800 
     44 N           4.4299  -17.5490  -40.8755 N.am      6 UNK        -0.5000 
     45 C           3.7372  -16.6497  -41.5878 C.2       5 UNK         0.5000 
     46 O           2.6698  -16.9093  -42.1473 O.2       5 UNK        -0.5000 
     47 CA          4.3995  -15.2690  -41.7664 C.3       5 UNK         0.1400 
     48 CB          5.6210  -15.3825  -42.6950 C.3       5 UNK        -0.1800 
     49 N           3.4964  -14.2637  -42.3292 N.am      5 UNK        -0.5000 
     50 C           2.4373  -13.7304  -41.7071 C.2       4 UNK         0.5000 
     51 O           2.1184  -14.0215  -40.5526 O.2       4 UNK        -0.5000 
     52 CA          1.6286  -12.6654  -42.4856 C.3       4 UNK         0.1400 
     53 CB          2.0619  -12.4803  -43.9550 C.3       4 UNK        -0.1800 
     54 N           0.1964  -12.9561  -42.4570 N.am      4 UNK        -0.5000 
     55 C          -0.6448  -12.6159  -41.4725 C.2       3 UNK         0.5000 
     56 O          -0.3066  -11.9697  -40.4791 O.2       3 UNK        -0.5000 
     57 CA         -2.1235  -13.0267  -41.6272 C.3       3 UNK         0.1400 
     58 CB         -3.0231  -11.7837  -41.7293 C.3       3 UNK        -0.1800 
     59 N          -2.4019  -13.8851  -42.7812 N.am      3 UNK        -0.5000 
     60 C          -2.1637  -15.1985  -42.8581 C.2       2 UNK         0.5000 
     61 O          -1.5600  -15.8321  -41.9940 O.2       2 UNK        -0.5000 
     62 CA         -2.7113  -15.9361  -44.0955 C.3       2 UNK         0.1400 
     63 CB         -4.2098  -16.2458  -43.9028 C.3       2 UNK        -0.1800 
     64 N          -2.4681  -15.2679  -45.3835 N.am      2 UNK        -0.5000 
     65 C          -3.0057  -14.1353  -45.8589 C.2       1 UNK         0.5000 
     66 O          -3.7668  -13.4143  -45.2106 O.2       1 UNK        -0.5000 
     67 C          -1.6811  -21.4294  -47.7021 C.2       11 UNK         0.5000 
     68 O          -2.3839  -21.9295  -48.5826 O.2       11 UNK        -0.5000 
     69 N          -2.1647  -20.6537  -46.7234 N.am      12 UNK        -0.5000 
     70 CA         -3.5845  -20.3843  -46.5147 C.3       12 UNK         0.1400 
     71 CB         -3.7478  -19.1772  -45.5878 C.3       12 UNK        -0.1800 
     72 C          -4.3402  -21.6055  -45.9649 C.2       12 UNK         0.5000 
     73 O          -5.4247  -21.9088  -46.4595 O.2       12 UNK        -0.5000 
     74 N          -3.7513  -22.3083  -44.9861 N.am      13 UNK        -0.5000 
     75 CA         -4.2979  -23.5310  -44.3868 C.3       13 UNK         0.1400 
     76 CB         -3.4489  -23.9380  -43.1734 C.3       13 UNK        -0.1800 
     77 C          -4.4050  -24.6963  -45.3877 C.2       13 UNK         0.5000 
     78 O          -5.3754  -25.4529  -45.3425 O.2       13 UNK        -0.5000 
     79 N          -3.4310  -24.7880  -46.3027 N.am      14 UNK        -0.5000 
     80 CA         -3.4278  -25.7080  -47.4415 C.3       14 UNK         0.1400 
     81 CB         -1.9985  -25.7804  -48.0034 C.3       14 UNK        -0.1800 
     82 C          -4.4160  -25.3082  -48.5585 C.2       14 UNK         0.5000 
     83 O          -4.6327  -26.1006  -49.4752 O.2       14 UNK        -0.5000 
     84 N          -4.9580  -24.0819  -48.4859 N.am      15 UNK        -0.5000 
     85 CA         -5.8277  -23.4035  -49.4545 C.3       15 UNK         0.1400 
     86 CB         -7.1419  -24.1783  -49.6758 C.3       15 UNK        -0.1800 
     87 C          -5.1284  -23.0479  -50.7817 C.2       15 UNK         0.5000 
     88 O          -5.7931  -22.5915  -51.7114 O.2       15 UNK        -0.5000 
     89 N          -3.8015  -23.2150  -50.8443 N.am      16 UNK        -0.5000 
     90 CA         -2.9718  -22.9436  -52.0132 C.3       16 UNK         0.1400 
     91 CB         -1.5676  -23.5227  -51.7865 C.3       16 UNK        -0.1800 
     92 C          -2.9085  -21.4443  -52.3361 C.2       16 UNK         0.5000 
     93 O          -3.0199  -21.0774  -53.5057 O.2       16 UNK        -0.5000 
     94 N          -2.7784  -20.6092  -51.2949 N.am      17 UNK        -0.5000 
     95 CA         -2.8222  -19.1499  -51.4154 C.3       17 UNK         0.1400 
     96 CB         -2.3137  -18.4960  -50.1224 C.3       17 UNK        -0.1800 
     97 C          -4.2305  -18.6346  -51.7569 C.2       17 UNK         0.5000 
     98 O          -4.3600  -17.6947  -52.5402 O.2       17 UNK        -0.5000 
     99 N          -5.2565  -19.2703  -51.1734 N.am      18 UNK        -0.5000 
    100 CA        -6.6659  -18.9224  -51.3549 C.3       18 UNK         0.1400 
    101 CB        -7.5102  -19.6487  -50.2961 C.3       18 UNK        -0.1800 
    102 C         -7.1731  -19.2328  -52.7744 C.2       18 UNK         0.5000 
    103 O         -7.8578  -18.4018  -53.3717 O.2       18 UNK        -0.5000 
    104 N         -6.8084  -20.4117  -53.2958 N.am      19 UNK        -0.5000 
    105 CA        -7.1350  -20.8550  -54.6523 C.3       19 UNK         0.1400 
    106 CB        -7.0292  -22.3877  -54.7066 C.3       19 UNK        -0.1800 
    107 C         -6.2312  -20.2284  -55.7319 C.2       19 UNK         0.5000 
    108 O         -6.5696  -20.3100  -56.9132 O.2       19 UNK        -0.5000 
    109 N         -5.0895  -19.6583  -55.3148 N.am      20 UNK        -0.5000 
    110 CA        -3.9752  -19.1828  -56.1445 C.3       20 UNK         0.1400 
    111 CB        -4.3958  -17.9833  -57.0183 C.3       20 UNK        -0.1800 
    112 C         -3.3192  -20.3289  -56.9474 C.2       20 UNK         0.5000 
    113 O         -2.8706  -20.1298  -58.0775 O.2       20 UNK        -0.5000 
    114 N         -3.2855  -21.5165  -56.3307 N.am      21 UNK        -0.5000 
    115 CA        -2.6727  -22.7390  -56.8479 C.3       21 UNK         0.1400 
    116 CB        -3.4917  -23.9389  -56.3455 C.3       21 UNK        -0.1800 
    117 C         -1.1980  -22.8707  -56.4194 C.2       21 UNK         0.5000 
    118 O         -0.4915  -23.7351  -56.9400 O.2       21 UNK        -0.5000 
    119 N         -0.7695  -22.0275  -55.4722 N.am      22 UNK        -0.5000 
    120 CA         0.6048  -21.8892  -54.9774 C.3       22 UNK         0.1400 
    121 C          1.6549  -21.5340  -56.0728 C.2       22 UNK         0.5000 
    122 N          2.9132  -21.9013  -55.8688 N.am      22 UNK        -0.7600 
    123 O          1.3543  -20.9045  -57.0850 O.2       22 UNK        -0.5000 
    124 C124        0.6569  -20.8922  -53.7909 C.3       23 UNK        -0.0398 
    125 S125       -0.0072  -19.2328  -54.1878 S.3       23 UNK        -0.2404 
    126 C126        1.4012  -18.1641  -53.7666 C.3       23 UNK        -0.0205 
    127 H127       -5.4838  -14.3427  -50.0295 H         1 UNK         0.0600 
    128 H128       -6.1541  -15.8097  -49.3126 H         1 UNK         0.0600 
    129 H129       -4.8248  -15.9203  -50.4696 H         1 UNK         0.0600 
    130 H130       -3.8819  -13.3233  -48.9233 H         1 UNK         0.3000 
    131 H131       -2.7001  -12.6233  -47.2631 H         1 UNK         0.0600 
    132 H132       -0.8848  -13.3039  -48.4995 H         1 UNK         0.0800 
    133 H133       -0.4745  -13.7128  -46.8723 H         1 UNK         0.0800 
    134 H134        0.9881  -14.5844  -49.5241 H         1 UNK         0.0800 
    135 H135       -0.4556  -14.8711  -50.4737 H         1 UNK         0.0800 
    136 H136        0.2295  -16.1645  -52.3465 H         1 UNK         0.1150 
    137 H137        2.7484  -19.6044  -51.8619 H         1 UNK         0.1150 
    138 H138        1.7459  -17.1836  -48.4817 H         1 UNK         0.1150 
    139 H139        3.2029  -19.0343  -48.1700 H         1 UNK         0.0800 
    140 H140        4.0824  -19.6102  -49.5609 H         1 UNK         0.0800 
    141 H141        0.0443  -20.4649  -49.4845 H         1 UNK         0.0800 
    142 H142        0.5720  -19.6775  -48.0123 H         1 UNK         0.0800 
    143 H143       -0.0258  -22.6685  -48.1983 H         1 UNK         0.0600 
    144 H144        1.1060  -21.1785  -46.0739 H         1 UNK         0.3000 
    145 H145        0.0048  -23.3758  -43.4150 H         1 UNK         0.0600 
    146 H146        2.0946  -24.2748  -44.4101 H         1 UNK         0.0600 
    147 H147        2.4423  -23.2731  -43.0090 H         1 UNK         0.0600 
    148 H148        2.7178  -22.6468  -44.6320 H         1 UNK         0.0600 
    149 H149        1.4438  -20.9392  -43.2669 H         1 UNK         0.3000 
    150 H150       -1.4089  -18.7770  -42.8498 H         1 UNK         0.0600 
    151 H151        0.8269  -19.7089  -40.9760 H         1 UNK         0.0600 
    152 H152       -0.8929  -19.6944  -40.6157 H         1 UNK         0.0600 
    153 H153       -0.0382  -18.1774  -40.8575 H         1 UNK         0.0600 
    154 H154        1.3584  -18.1644  -42.9516 H         1 UNK         0.3000 
    155 H155        1.6766  -17.9065  -46.4888 H         1 UNK         0.0600 
    156 H156        0.7813  -15.7083  -45.7131 H         1 UNK         0.0600 
    157 H157        2.5337  -15.6696  -45.8266 H         1 UNK         0.0600 
    158 H158        1.7434  -15.8084  -44.2552 H         1 UNK         0.0600 
    159 H159        3.4747  -17.6053  -44.2525 H         1 UNK         0.3000 
    160 H160        4.6825  -20.9763  -44.3289 H         1 UNK         0.0600 
    161 H161        5.8813  -19.8033  -46.1832 H         1 UNK         0.0600 
    162 H162        6.8266  -19.7908  -44.7028 H         1 UNK         0.0600 
    163 H163        5.9704  -18.3363  -45.2155 H         1 UNK         0.0600 
    164 H164        5.4343  -18.6579  -42.8200 H         1 UNK         0.3000 
    165 H165        3.0494  -18.9556  -40.2183 H         1 UNK         0.0600 
    166 H166        4.7421  -20.6781  -39.5694 H         1 UNK         0.0600 
    167 H167        6.0381  -19.6379  -40.1478 H         1 UNK         0.0600 
    168 H168        5.0511  -19.1449  -38.7710 H         1 UNK         0.0600 
    169 H169        5.3021  -17.2704  -40.4494 H         1 UNK         0.3000 
    170 H170        4.7306  -14.9214  -40.7857 H         1 UNK         0.0600 
    171 H171        6.1158  -14.4182  -42.8136 H         1 UNK         0.0600 
    172 H172        5.3411  -15.7385  -43.6875 H         1 UNK         0.0600 
    173 H173        6.3641  -16.0735  -42.2956 H         1 UNK         0.0600 
    174 H174        3.6836  -13.9796  -43.2788 H         1 UNK         0.3000 
    175 H175        1.8057  -11.7151  -41.9778 H         1 UNK         0.0600 
    176 H176        1.9249  -13.3878  -44.5417 H         1 UNK         0.0600 
    177 H177        3.1087  -12.1830  -44.0292 H         1 UNK         0.0600 
    178 H178        1.4793  -11.6924  -44.4330 H         1 UNK         0.0600 
    179 H179       -0.1709  -13.5126  -43.2133 H         1 UNK         0.3000 
    180 H180       -2.3991  -13.5710  -40.7215 H         1 UNK         0.0600 
    181 H181       -2.7977  -11.1987  -42.6219 H         1 UNK         0.0600 
    182 H182       -2.8937  -11.1300  -40.8657 H         1 UNK         0.0600 
    183 H183       -4.0766  -12.0615  -41.7678 H         1 UNK         0.0600 
    184 H184       -2.9215  -13.4669  -43.5492 H         1 UNK         0.3000 
    185 H185       -2.1846  -16.8877  -44.1613 H         1 UNK         0.0600 
    186 H186       -4.3544  -16.9813  -43.1108 H         1 UNK         0.0600 
    187 H187       -4.7788  -15.3568  -43.6282 H         1 UNK         0.0600 
    188 H188       -4.6570  -16.6450  -44.8119 H         1 UNK         0.0600 
    189 H189       -1.8898  -15.7919  -46.0287 H         1 UNK         0.3000 
    190 H190       -1.5174  -20.2045  -46.0829 H         1 UNK         0.3000 
    191 H191       -4.0294  -20.1257  -47.4779 H         1 UNK         0.0600 
    192 H192       -3.2862  -18.2919  -46.0253 H         1 UNK         0.0600 
    193 H193       -4.8027  -18.9526  -45.4273 H         1 UNK         0.0600 
    194 H194       -3.2920  -19.3464  -44.6122 H         1 UNK         0.0600 
    195 H195       -2.8819  -21.9621  -44.5869 H         1 UNK         0.3000 
    196 H196       -5.3065  -23.3054  -44.0349 H         1 UNK         0.0600 
    197 H197       -3.8421  -24.8411  -42.7050 H         1 UNK         0.0600 
    198 H198       -3.4448  -23.1549  -42.4151 H         1 UNK         0.0600 
    199 H199       -2.4147  -24.1369  -43.4554 H         1 UNK         0.0600 
    200 H200       -2.6236  -24.1768  -46.2122 H         1 UNK         0.3000 
    201 H201       -3.7120  -26.7013  -47.0885 H         1 UNK         0.0600 
    202 H202       -1.9365  -26.4819  -48.8363 H         1 UNK         0.0600 
    203 H203       -1.2930  -26.1169  -47.2434 H         1 UNK         0.0600 
    204 H204       -1.6600  -24.8086  -48.3656 H         1 UNK         0.0600 
    205 H205       -4.7251  -23.5194  -47.6766 H         1 UNK         0.3000 
    206 H206       -6.0893  -22.4484  -48.9986 H         1 UNK         0.0600 
    207 H207       -7.6252  -24.4129  -48.7274 H         1 UNK         0.0600 
    208 H208       -7.8481  -23.5887  -50.2615 H         1 UNK         0.0600 
    209 H209       -6.9788  -25.1133  -50.2121 H         1 UNK         0.0600 
    210 H210       -3.3210  -23.4915  -49.9994 H         1 UNK         0.3000 
    211 H211       -3.4200  -23.4539  -52.8676 H         1 UNK         0.0600 
    212 H212       -1.6148  -24.5843  -51.5428 H         1 UNK         0.0600 
    213 H213       -0.9585  -23.4273  -52.6853 H         1 UNK         0.0600 
    214 H214       -1.0451  -23.0164  -50.9735 H         1 UNK         0.0600 
    215 H215       -2.6994  -21.0041  -50.3635 H         1 UNK         0.3000 
    216 H216       -2.1577  -18.8480  -52.2264 H         1 UNK         0.0600 
    217 H217       -2.8625  -18.8375  -49.2448 H         1 UNK         0.0600 
    218 H218       -2.4188  -17.4113  -50.1688 H         1 UNK         0.0600 
    219 H219       -1.2564  -18.6985  -49.9651 H         1 UNK         0.0600 
    220 H220       -5.0541  -20.0500  -50.5677 H         1 UNK         0.3000 
    221 H221       -6.7702  -17.8476  -51.1912 H         1 UNK         0.0600 
    222 H222       -7.4538  -20.7321  -50.4048 H         1 UNK         0.0600 
    223 H223       -7.1838  -19.3943  -49.2875 H         1 UNK         0.0600 
    224 H224       -8.5608  -19.3672  -50.3779 H         1 UNK         0.0600 
    225 H225       -6.2969  -21.0747  -52.7178 H         1 UNK         0.3000 
    226 H226       -8.1660  -20.5748  -54.8779 H         1 UNK         0.0600 
    227 H227       -7.6891  -22.8552  -53.9755 H         1 UNK         0.0600 
    228 H228       -7.3117  -22.7671  -55.6894 H         1 UNK         0.0600 
    229 H229       -6.0123  -22.7270  -54.5040 H         1 UNK         0.0600 
    230 H230       -4.9105  -19.6605  -54.3200 H         1 UNK         0.3000 
    231 H231       -3.2131  -18.8291  -55.4480 H         1 UNK         0.0600 
    232 H232       -5.1028  -18.2727  -57.7960 H         1 UNK         0.0600 
    233 H233       -3.5307  -17.5409  -57.5133 H         1 UNK         0.0600 
    234 H234       -4.8590  -17.2018  -56.4159 H         1 UNK         0.0600 
    235 H235       -3.6048  -21.5454  -55.3684 H         1 UNK         0.3000 
    236 H236       -2.7037  -22.7320  -57.9393 H         1 UNK         0.0600 
    237 H237       -3.4820  -24.0062  -55.2573 H         1 UNK         0.0600 
    238 H238       -4.5310  -23.8684  -56.6673 H         1 UNK         0.0600 
    239 H239       -3.0937  -24.8760  -56.7365 H         1 UNK         0.0600 
    240 H240       -1.4295  -21.3544  -55.1057 H         1 UNK         0.3000 
    241 H241        0.8814  -22.8719  -54.5907 H         1 UNK         0.0600 
    242 H242        3.1920  -22.4198  -55.0501 H         1 UNK         0.3800 
    243 H243        3.6067  -21.6693  -56.5631 H         1 UNK         0.3800 
    244 H244        0.0796  -21.2810  -52.9529 H         1 UNK         0.0800 
    245 H245        1.6782  -20.8152  -53.4205 H         1 UNK         0.0800 
    246 H246        2.3301  -18.6032  -54.1340 H         1 UNK         0.0800 
    247 H247        1.2882  -17.2157  -54.2939 H         1 UNK         0.0800 
@<TRIPOS>BOND
     1    1    2 1    
     2    1  127 1    
     3    1  128 1    
     4    1  129 1    
     5    2    3 2    
     6    2    4 am   BACKBONE|DICT|INTERRES
     7    4    5 1    
     8    4  130 1    
     9    5    6 1    
    10    5   65 1    
    11    5  131 1    
    12    6    7 1    
    13    6  132 1    
    14    6  133 1    
    15    7    8 1    
    16    8    9 1    
    17    8  134 1    
    18    8  135 1    
    19    9   10 ar   
    20    9   14 ar   
    21   10   11 ar   
    22   10  136 1    
    23   11   12 ar   
    24   11  126 1    
    25   12   13 ar   
    26   12  137 1    
    27   13   14 ar   
    28   13   15 1    
    29   14  138 1    
    30   15   16 1    
    31   15  139 1    
    32   15  140 1    
    33   16   17 1    
    34   17   18 1    
    35   17  141 1    
    36   17  142 1    
    37   18   19 1    
    38   18   67 1    
    39   18  143 1    
    40   19   20 am   BACKBONE|DICT|INTERRES
    41   19  144 1    
    42   20   21 2    
    43   20   22 1    
    44   22   23 1    
    45   22   24 1    
    46   22  145 1    
    47   23  146 1    
    48   23  147 1    
    49   23  148 1    
    50   24   25 am   BACKBONE|DICT|INTERRES
    51   24  149 1    
    52   25   26 2    
    53   25   27 1    
    54   27   28 1    
    55   27   29 1    
    56   27  150 1    
    57   28  151 1    
    58   28  152 1    
    59   28  153 1    
    60   29   30 am   BACKBONE|DICT|INTERRES
    61   29  154 1    
    62   30   31 2    
    63   30   32 1    
    64   32   33 1    
    65   32   34 1    
    66   32  155 1    
    67   33  156 1    
    68   33  157 1    
    69   33  158 1    
    70   34   35 am   BACKBONE|DICT|INTERRES
    71   34  159 1    
    72   35   36 2    
    73   35   37 1    
    74   37   38 1    
    75   37   39 1    
    76   37  160 1    
    77   38  161 1    
    78   38  162 1    
    79   38  163 1    
    80   39   40 am   BACKBONE|DICT|INTERRES
    81   39  164 1    
    82   40   41 2    
    83   40   42 1    
    84   42   43 1    
    85   42   44 1    
    86   42  165 1    
    87   43  166 1    
    88   43  167 1    
    89   43  168 1    
    90   44   45 am   BACKBONE|DICT|INTERRES
    91   44  169 1    
    92   45   46 2    
    93   45   47 1    
    94   47   48 1    
    95   47   49 1    
    96   47  170 1    
    97   48  171 1    
    98   48  172 1    
    99   48  173 1    
   100   49   50 am   BACKBONE|DICT|INTERRES
   101   49  174 1    
   102   50   51 2    
   103   50   52 1    
   104   52   53 1    
   105   52   54 1    
   106   52  175 1    
   107   53  176 1    
   108   53  177 1    
   109   53  178 1    
   110   54   55 am   BACKBONE|DICT|INTERRES
   111   54  179 1    
   112   55   56 2    
   113   55   57 1    
   114   57   58 1    
   115   57   59 1    
   116   57  180 1    
   117   58  181 1    
   118   58  182 1    
   119   58  183 1    
   120   59   60 am   BACKBONE|DICT|INTERRES
   121   59  184 1    
   122   60   61 2    
   123   60   62 1    
   124   62   63 1    
   125   62   64 1    
   126   62  185 1    
   127   63  186 1    
   128   63  187 1    
   129   63  188 1    
   130   64   65 am   BACKBONE|DICT|INTERRES
   131   64  189 1    
   132   65   66 2    
   133   67   68 2    
   134   67   69 am   BACKBONE|DICT|INTERRES
   135   69   70 1    
   136   69  190 1    
   137   70   71 1    
   138   70   72 1    
   139   70  191 1    
   140   71  192 1    
   141   71  193 1    
   142   71  194 1    
   143   72   73 2    
   144   72   74 am   BACKBONE|DICT|INTERRES
   145   74   75 1    
   146   74  195 1    
   147   75   76 1    
   148   75   77 1    
   149   75  196 1    
   150   76  197 1    
   151   76  198 1    
   152   76  199 1    
   153   77   78 2    
   154   77   79 am   BACKBONE|DICT|INTERRES
   155   79   80 1    
   156   79  200 1    
   157   80   81 1    
   158   80   82 1    
   159   80  201 1    
   160   81  202 1    
   161   81  203 1    
   162   81  204 1    
   163   82   83 2    
   164   82   84 am   BACKBONE|DICT|INTERRES
   165   84   85 1    
   166   84  205 1    
   167   85   86 1    
   168   85   87 1    
   169   85  206 1    
   170   86  207 1    
   171   86  208 1    
   172   86  209 1    
   173   87   88 2    
   174   87   89 am   BACKBONE|DICT|INTERRES
   175   89   90 1    
   176   89  210 1    
   177   90   91 1    
   178   90   92 1    
   179   90  211 1    
   180   91  212 1    
   181   91  213 1    
   182   91  214 1    
   183   92   93 2    
   184   92   94 am   BACKBONE|DICT|INTERRES
   185   94   95 1    
   186   94  215 1    
   187   95   96 1    
   188   95   97 1    
   189   95  216 1    
   190   96  217 1    
   191   96  218 1    
   192   96  219 1    
   193   97   98 2    
   194   97   99 am   BACKBONE|DICT|INTERRES
   195   99  100 1    
   196   99  220 1    
   197  100  101 1    
   198  100  102 1    
   199  100  221 1    
   200  101  222 1    
   201  101  223 1    
   202  101  224 1    
   203  102  103 2    
   204  102  104 am   BACKBONE|DICT|INTERRES
   205  104  105 1    
   206  104  225 1    
   207  105  106 1    
   208  105  107 1    
   209  105  226 1    
   210  106  227 1    
   211  106  228 1    
   212  106  229 1    
   213  107  108 2    
   214  107  109 am   BACKBONE|DICT|INTERRES
   215  109  110 1    
   216  109  230 1    
   217  110  111 1    
   218  110  112 1    
   219  110  231 1    
   220  111  232 1    
   221  111  233 1    
   222  111  234 1    
   223  112  113 2    
   224  112  114 am   BACKBONE|DICT|INTERRES
   225  114  115 1    
   226  114  235 1    
   227  115  116 1    
   228  115  117 1    
   229  115  236 1    
   230  116  237 1    
   231  116  238 1    
   232  116  239 1    
   233  117  118 2    
   234  117  119 am   BACKBONE|DICT|INTERRES
   235  119  120 1    
   236  119  240 1    
   237  120  121 1    
   238  120  124 1    
   239  120  241 1    
   240  121  122 am   BACKBONE|DICT|INTERRES
   241  121  123 2    
   242  122  242 1    
   243  122  243 1    
   244  124  125 1    
   245  124  244 1    
   246  124  245 1    
   247  125  126 1    
   248  126  246 1    
   249  126  247 1    
@<TRIPOS>SUBSTRUCTURE
     1 UNK         1 GROUP             0       ****    0 ROOT    
