@<TRIPOS>MOLECULE
3R540
247   249    1
SMALL
USER_CHARGES


@<TRIPOS>ATOM
      1 CA          5.3140  -11.4291  -47.0508 C.3       0 UNK        -0.1800 
      2 C           4.0520  -12.2841  -46.9527 C.2       0 UNK         0.5000 
      3 O           3.0147  -11.7732  -46.5392 O.2       0 UNK        -0.5000 
      4 N           4.0801  -13.5778  -47.3079 N.am      1 UNK        -0.5000 
      5 CA          5.2347  -14.3368  -47.8152 C.3       1 UNK         0.1400 
      6 C6          4.8204  -15.6829  -48.4633 C.3       23 UNK        -0.0398 
      7 S7          3.5631  -15.4808  -49.7741 S.3       23 UNK        -0.2404 
      8 C8          2.3514  -16.7490  -49.2937 C.3       23 UNK        -0.0205 
      9 C9          1.0354  -16.5757  -50.0320 C.ar      23 UNK        -0.0193 
     10 C10         0.8505  -17.1258  -51.3042 C.ar      23 UNK        -0.1150 
     11 C11        -0.3707  -16.9805  -51.9729 C.ar      23 UNK        -0.0193 
     12 C12        -1.4127  -16.2869  -51.3475 C.ar      23 UNK        -0.1150 
     13 C13        -1.2449  -15.7528  -50.0674 C.ar      23 UNK        -0.0193 
     14 C14        -0.0117  -15.8806  -49.4244 C.ar      23 UNK        -0.1150 
     15 C15        -2.4076  -15.0746  -49.3615 C.3       23 UNK        -0.0205 
     16 S16        -3.5104  -16.2979  -48.5802 S.3       23 UNK        -0.2404 
     17 C17        -2.4202  -17.0310  -47.3104 C.3       23 UNK        -0.0398 
     18 CA         -1.7565  -18.3581  -47.7638 C.3       11 UNK         0.1400 
     19 N          -0.5642  -18.6784  -46.9736 N.am      11 UNK        -0.5000 
     20 C           0.2826  -19.6868  -47.2262 C.2       10 UNK         0.5000 
     21 O           0.1883  -20.4303  -48.2000 O.2       10 UNK        -0.5000 
     22 CA          1.3877  -19.9557  -46.1885 C.3       10 UNK         0.1400 
     23 CB          2.5990  -19.0395  -46.4118 C.3       10 UNK        -0.1800 
     24 N           0.9113  -19.8253  -44.8117 N.am      10 UNK        -0.5000 
     25 C          -0.0241  -20.6104  -44.2583 C.2       9 UNK         0.5000 
     26 O          -0.5477  -21.5610  -44.8390 O.2       9 UNK        -0.5000 
     27 CA         -0.4886  -20.2453  -42.8372 C.3       9 UNK         0.1400 
     28 CB          0.5163  -20.7435  -41.7883 C.3       9 UNK        -0.1800 
     29 N          -0.7053  -18.8080  -42.6690 N.am      9 UNK        -0.5000 
     30 C          -1.6224  -18.0924  -43.3360 C.2       8 UNK         0.5000 
     31 O          -2.4240  -18.5796  -44.1342 O.2       8 UNK        -0.5000 
     32 CA         -1.5983  -16.5673  -43.1206 C.3       8 UNK         0.1400 
     33 CB         -2.2807  -16.1812  -41.8002 C.3       8 UNK        -0.1800 
     34 N          -0.2403  -16.0197  -43.1585 N.am      8 UNK        -0.5000 
     35 C           0.5543  -16.0618  -44.2374 C.2       7 UNK         0.5000 
     36 O           0.2131  -16.5266  -45.3225 O.2       7 UNK        -0.5000 
     37 CA          1.9851  -15.5306  -44.0741 C.3       7 UNK         0.1400 
     38 CB          1.9953  -14.0043  -44.2199 C.3       7 UNK        -0.1800 
     39 N           2.5935  -15.9419  -42.8068 N.am      7 UNK        -0.5000 
     40 C           2.8638  -17.2175  -42.4886 C.2       6 UNK         0.5000 
     41 O           2.7202  -18.1576  -43.2685 O.2       6 UNK        -0.5000 
     42 CA          3.3008  -17.5048  -41.0421 C.3       6 UNK         0.1400 
     43 CB          4.8146  -17.3261  -40.8607 C.3       6 UNK        -0.1800 
     44 N           2.5750  -16.6751  -40.0808 N.am      6 UNK        -0.5000 
     45 C           1.2740  -16.8355  -39.7976 C.2       5 UNK         0.5000 
     46 O           0.5775  -17.7218  -40.2917 O.2       5 UNK        -0.5000 
     47 CA          0.6280  -15.8282  -38.8287 C.3       5 UNK         0.1400 
     48 CB          0.6662  -16.3668  -37.3910 C.3       5 UNK        -0.1800 
     49 N           1.2492  -14.5040  -38.8620 N.am      5 UNK        -0.5000 
     50 C           1.2312  -13.6704  -39.9109 C.2       4 UNK         0.5000 
     51 O           0.6666  -13.9367  -40.9743 O.2       4 UNK        -0.5000 
     52 CA          1.9707  -12.3196  -39.7514 C.3       4 UNK         0.1400 
     53 CB          2.7202  -12.1713  -38.4076 C.3       4 UNK        -0.1800 
     54 N           2.8927  -12.0120  -40.8527 N.am      4 UNK        -0.5000 
     55 C           3.8503  -12.8034  -41.3573 C.2       3 UNK         0.5000 
     56 O           4.0065  -13.9793  -41.0248 O.2       3 UNK        -0.5000 
     57 CA          4.7735  -12.1447  -42.4062 C.3       3 UNK         0.1400 
     58 CB          5.8285  -11.2464  -41.7311 C.3       3 UNK        -0.1800 
     59 N           5.3997  -13.0926  -43.3392 N.am      3 UNK        -0.5000 
     60 C           6.3225  -14.0399  -43.1038 C.2       2 UNK         0.5000 
     61 O           6.8895  -14.2035  -42.0233 O.2       2 UNK        -0.5000 
     62 CA          6.6905  -14.9582  -44.2893 C.3       2 UNK         0.1400 
     63 CB          6.5928  -16.4469  -43.9125 C.3       2 UNK        -0.1800 
     64 N           5.8509  -14.7202  -45.4690 N.am      2 UNK        -0.5000 
     65 C           6.2997  -14.5824  -46.7240 C.2       1 UNK         0.5000 
     66 O           7.4893  -14.6220  -47.0380 O.2       1 UNK        -0.5000 
     67 C          -2.7609  -19.5249  -47.7724 C.2       11 UNK         0.5000 
     68 O          -3.2079  -19.9303  -48.8444 O.2       11 UNK        -0.5000 
     69 N          -3.0546  -20.0798  -46.5873 N.am      12 UNK        -0.5000 
     70 CA         -3.9238  -21.2438  -46.4162 C.3       12 UNK         0.1400 
     71 CB         -4.1434  -21.5109  -44.9199 C.3       12 UNK        -0.1800 
     72 C          -3.3891  -22.4984  -47.1313 C.2       12 UNK         0.5000 
     73 O          -4.1625  -23.1884  -47.7958 O.2       12 UNK        -0.5000 
     74 N          -2.0769  -22.7456  -47.0190 N.am      13 UNK        -0.5000 
     75 CA         -1.3772  -23.8431  -47.6865 C.3       13 UNK         0.1400 
     76 CB          0.0476  -23.9608  -47.1245 C.3       13 UNK        -0.1800 
     77 C          -1.3500  -23.7006  -49.2199 C.2       13 UNK         0.5000 
     78 O          -1.5730  -24.6889  -49.9191 O.2       13 UNK        -0.5000 
     79 N          -1.0886  -22.4823  -49.7146 N.am      14 UNK        -0.5000 
     80 CA         -1.0629  -22.1557  -51.1414 C.3       14 UNK         0.1400 
     81 CB         -0.3964  -20.7880  -51.3465 C.3       14 UNK        -0.1800 
     82 C          -2.4605  -22.1844  -51.7837 C.2       14 UNK         0.5000 
     83 O          -2.5891  -22.5993  -52.9365 O.2       14 UNK        -0.5000 
     84 N          -3.4857  -21.7604  -51.0327 N.am      15 UNK        -0.5000 
     85 CA         -4.8839  -21.8496  -51.4395 C.3       15 UNK         0.1400 
     86 CB         -5.7548  -20.9608  -50.5401 C.3       15 UNK        -0.1800 
     87 C          -5.3954  -23.2983  -51.4267 C.2       15 UNK         0.5000 
     88 O          -6.0692  -23.7047  -52.3752 O.2       15 UNK        -0.5000 
     89 N          -5.0776  -24.0373  -50.3535 N.am      16 UNK        -0.5000 
     90 CA         -5.4839  -25.4173  -50.0679 C.3       16 UNK         0.1400 
     91 CB         -4.7997  -26.3988  -51.0405 C.3       16 UNK        -0.1800 
     92 C          -7.0179  -25.5658  -50.0455 C.2       16 UNK         0.5000 
     93 O          -7.5692  -26.4146  -50.7451 O.2       16 UNK        -0.5000 
     94 N          -7.6861  -24.6708  -49.3007 N.am      17 UNK        -0.5000 
     95 CA         -9.1475  -24.5056  -49.2374 C.3       17 UNK         0.1400 
     96 CB         -9.8098  -25.7226  -48.5578 C.3       17 UNK        -0.1800 
     97 C          -9.7708  -24.1684  -50.6130 C.2       17 UNK         0.5000 
     98 O         -10.8845  -24.5978  -50.9171 O.2       17 UNK        -0.5000 
     99 N          -9.0077  -23.4155  -51.4189 N.am      18 UNK        -0.5000 
    100 CA        -9.2621  -23.0014  -52.8023 C.3       18 UNK         0.1400 
    101 CB       -10.5630  -22.1801  -52.9174 C.3       18 UNK        -0.1800 
    102 C         -9.1854  -24.1459  -53.8368 C.2       18 UNK         0.5000 
    103 O         -9.5792  -23.9367  -54.9851 O.2       18 UNK        -0.5000 
    104 N         -8.6597  -25.3190  -53.4501 N.am      19 UNK        -0.5000 
    105 CA        -8.4298  -26.4425  -54.3615 C.3       19 UNK         0.1400 
    106 CB        -8.3194  -27.7506  -53.5644 C.3       19 UNK        -0.1800 
    107 C         -7.1771  -26.2381  -55.2328 C.2       19 UNK         0.5000 
    108 O         -7.1728  -26.6658  -56.3879 O.2       19 UNK        -0.5000 
    109 N         -6.1465  -25.5902  -54.6722 N.am      20 UNK        -0.5000 
    110 CA        -4.9106  -25.2407  -55.3736 C.3       20 UNK         0.1400 
    111 CB        -3.7084  -25.4587  -54.4432 C.3       20 UNK        -0.1800 
    112 C         -4.9579  -23.7902  -55.8771 C.2       20 UNK         0.5000 
    113 O         -4.4940  -23.5221  -56.9860 O.2       20 UNK        -0.5000 
    114 N         -5.5294  -22.8893  -55.0615 N.am      21 UNK        -0.5000 
    115 CA        -5.7998  -21.4737  -55.3445 C.3       21 UNK         0.1400 
    116 CB        -6.9818  -21.3595  -56.3286 C.3       21 UNK        -0.1800 
    117 C         -4.5592  -20.6733  -55.8051 C.2       21 UNK         0.5000 
    118 O         -4.6791  -19.8070  -56.6733 O.2       21 UNK        -0.5000 
    119 N         -3.3885  -20.9982  -55.2369 N.am      22 UNK        -0.5000 
    120 CA        -2.0614  -20.4754  -55.6119 C.3       22 UNK         0.1400 
    121 C         -1.5620  -20.9192  -57.0242 C.2       22 UNK         0.5000 
    122 N         -2.1828  -21.8875  -57.6881 N.am      22 UNK        -0.7600 
    123 O         -0.5645  -20.4025  -57.5207 O.2       22 UNK        -0.5000 
    124 C124       -1.9134  -18.9427  -55.3825 C.3       23 UNK        -0.0398 
    125 S125       -2.0911  -18.4666  -53.6280 S.3       23 UNK        -0.2404 
    126 C126       -0.5378  -17.5384  -53.3825 C.3       23 UNK        -0.0205 
    127 H127        5.7916  -11.5302  -48.0247 H         1 UNK         0.0600 
    128 H128        6.0295  -11.7006  -46.2752 H         1 UNK         0.0600 
    129 H129        5.0674  -10.3754  -46.9181 H         1 UNK         0.0600 
    130 H130        3.2112  -14.0907  -47.2904 H         1 UNK         0.3000 
    131 H131        5.7073  -13.7413  -48.5982 H         1 UNK         0.0600 
    132 H132        5.6886  -16.1689  -48.9124 H         1 UNK         0.0800 
    133 H133        4.4501  -16.3734  -47.7033 H         1 UNK         0.0800 
    134 H134        2.1711  -16.6926  -48.2198 H         1 UNK         0.0800 
    135 H135        2.7630  -17.7398  -49.4910 H         1 UNK         0.0800 
    136 H136        1.6642  -17.6590  -51.7754 H         1 UNK         0.1150 
    137 H137       -2.3635  -16.1773  -51.8497 H         1 UNK         0.1150 
    138 H138        0.1248  -15.4667  -48.4350 H         1 UNK         0.1150 
    139 H139       -2.0472  -14.3704  -48.6100 H         1 UNK         0.0800 
    140 H140       -2.9810  -14.4876  -50.0804 H         1 UNK         0.0800 
    141 H141       -2.9954  -17.1716  -46.3941 H         1 UNK         0.0800 
    142 H142       -1.6595  -16.2932  -47.0601 H         1 UNK         0.0800 
    143 H143       -1.4113  -18.2379  -48.7919 H         1 UNK         0.0600 
    144 H144       -0.3724  -18.0705  -46.1814 H         1 UNK         0.3000 
    145 H145        1.7208  -20.9864  -46.3249 H         1 UNK         0.0600 
    146 H146        3.4171  -19.3001  -45.7402 H         1 UNK         0.0600 
    147 H147        2.9757  -19.1311  -47.4307 H         1 UNK         0.0600 
    148 H148        2.3489  -17.9936  -46.2395 H         1 UNK         0.0600 
    149 H149        1.3395  -19.0947  -44.2503 H         1 UNK         0.3000 
    150 H150       -1.4416  -20.7479  -42.6602 H         1 UNK         0.0600 
    151 H151        0.6755  -21.8187  -41.8797 H         1 UNK         0.0600 
    152 H152        0.1572  -20.5520  -40.7770 H         1 UNK         0.0600 
    153 H153        1.4860  -20.2570  -41.8957 H         1 UNK         0.0600 
    154 H154       -0.1157  -18.3364  -41.9889 H         1 UNK         0.3000 
    155 H155       -2.1610  -16.1089  -43.9366 H         1 UNK         0.0600 
    156 H156       -1.7904  -16.6375  -40.9411 H         1 UNK         0.0600 
    157 H157       -3.3213  -16.5078  -41.7924 H         1 UNK         0.0600 
    158 H158       -2.2767  -15.1008  -41.6540 H         1 UNK         0.0600 
    159 H159        0.1078  -15.5791  -42.3152 H         1 UNK         0.3000 
    160 H160        2.5850  -15.9487  -44.8847 H         1 UNK         0.0600 
    161 H161        1.4971  -13.5076  -43.3886 H         1 UNK         0.0600 
    162 H162        1.4830  -13.6968  -45.1328 H         1 UNK         0.0600 
    163 H163        3.0082  -13.6210  -44.2842 H         1 UNK         0.0600 
    164 H164        2.7551  -15.2255  -42.1070 H         1 UNK         0.3000 
    165 H165        3.0662  -18.5500  -40.8291 H         1 UNK         0.0600 
    166 H166        5.1185  -17.5519  -39.8386 H         1 UNK         0.0600 
    167 H167        5.3647  -18.0006  -41.5177 H         1 UNK         0.0600 
    168 H168        5.1379  -16.3111  -41.0888 H         1 UNK         0.0600 
    169 H169        3.0720  -15.8865  -39.6898 H         1 UNK         0.3000 
    170 H170       -0.4174  -15.7139  -39.1214 H         1 UNK         0.0600 
    171 H171        0.1863  -17.3444  -37.3278 H         1 UNK         0.0600 
    172 H172        1.6893  -16.4794  -37.0300 H         1 UNK         0.0600 
    173 H173        0.1385  -15.7028  -36.7062 H         1 UNK         0.0600 
    174 H174        1.7401  -14.2151  -38.0284 H         1 UNK         0.3000 
    175 H175        1.1942  -11.5541  -39.7807 H         1 UNK         0.0600 
    176 H176        3.5102  -12.9156  -38.2978 H         1 UNK         0.0600 
    177 H177        3.1852  -11.1884  -38.3297 H         1 UNK         0.0600 
    178 H178        2.0433  -12.2659  -37.5576 H         1 UNK         0.0600 
    179 H179        2.8082  -11.0766  -41.2247 H         1 UNK         0.3000 
    180 H180        4.1439  -11.5053  -43.0273 H         1 UNK         0.0600 
    181 H181        6.4542  -11.8044  -41.0342 H         1 UNK         0.0600 
    182 H182        5.3543  -10.4439  -41.1651 H         1 UNK         0.0600 
    183 H183        6.4809  -10.7798  -42.4693 H         1 UNK         0.0600 
    184 H184        5.0556  -13.0313  -44.2836 H         1 UNK         0.3000 
    185 H185        7.7338  -14.7342  -44.5205 H         1 UNK         0.0600 
    186 H186        7.1833  -16.6742  -43.0242 H         1 UNK         0.0600 
    187 H187        5.5627  -16.7394  -43.7116 H         1 UNK         0.0600 
    188 H188        6.9660  -17.0795  -44.7179 H         1 UNK         0.0600 
    189 H189        4.8541  -14.7063  -45.3148 H         1 UNK         0.3000 
    190 H190       -2.6617  -19.6739  -45.7424 H         1 UNK         0.3000 
    191 H191       -4.8906  -20.9991  -46.8608 H         1 UNK         0.0600 
    192 H192       -3.2089  -21.7407  -44.4081 H         1 UNK         0.0600 
    193 H193       -4.8170  -22.3553  -44.7691 H         1 UNK         0.0600 
    194 H194       -4.5887  -20.6464  -44.4271 H         1 UNK         0.0600 
    195 H195       -1.5188  -22.1521  -46.4112 H         1 UNK         0.3000 
    196 H196       -1.9093  -24.7671  -47.4506 H         1 UNK         0.0600 
    197 H197        0.5830  -24.7910  -47.5867 H         1 UNK         0.0600 
    198 H198        0.0335  -24.1402  -46.0493 H         1 UNK         0.0600 
    199 H199        0.6270  -23.0549  -47.3040 H         1 UNK         0.0600 
    200 H200       -0.8539  -21.7271  -49.0746 H         1 UNK         0.3000 
    201 H201       -0.4522  -22.9061  -51.6476 H         1 UNK         0.0600 
    202 H202        0.6106  -20.7707  -50.9297 H         1 UNK         0.0600 
    203 H203       -0.9670  -19.9858  -50.8758 H         1 UNK         0.0600 
    204 H204       -0.3095  -20.5547  -52.4077 H         1 UNK         0.0600 
    205 H205       -3.2960  -21.3399  -50.1264 H         1 UNK         0.3000 
    206 H206       -4.9616  -21.4710  -52.4584 H         1 UNK         0.0600 
    207 H207       -5.4414  -19.9183  -50.6001 H         1 UNK         0.0600 
    208 H208       -6.8022  -21.0021  -50.8414 H         1 UNK         0.0600 
    209 H209       -5.6980  -21.2645  -49.4940 H         1 UNK         0.0600 
    210 H210       -4.5543  -23.5930  -49.6030 H         1 UNK         0.3000 
    211 H211       -5.1295  -25.6442  -49.0614 H         1 UNK         0.0600 
    212 H212       -5.1790  -26.2940  -52.0559 H         1 UNK         0.0600 
    213 H213       -4.9732  -27.4312  -50.7356 H         1 UNK         0.0600 
    214 H214       -3.7212  -26.2425  -51.0663 H         1 UNK         0.0600 
    215 H215       -7.1441  -24.0052  -48.7667 H         1 UNK         0.3000 
    216 H216       -9.3305  -23.6369  -48.6035 H         1 UNK         0.0600 
    217 H217      -10.8703  -25.5413  -48.3796 H         1 UNK         0.0600 
    218 H218       -9.3512  -25.9323  -47.5916 H         1 UNK         0.0600 
    219 H219       -9.7316  -26.6223  -49.1688 H         1 UNK         0.0600 
    220 H220       -8.0912  -23.1734  -51.0732 H         1 UNK         0.3000 
    221 H221       -8.4404  -22.3307  -53.0576 H         1 UNK         0.0600 
    222 H222      -11.4490  -22.7987  -52.7737 H         1 UNK         0.0600 
    223 H223      -10.5896  -21.3766  -52.1814 H         1 UNK         0.0600 
    224 H224      -10.6474  -21.7181  -53.9017 H         1 UNK         0.0600 
    225 H225       -8.3528  -25.4393  -52.4917 H         1 UNK         0.3000 
    226 H226       -9.2917  -26.5321  -55.0263 H         1 UNK         0.0600 
    227 H227       -9.1723  -27.8840  -52.8986 H         1 UNK         0.0600 
    228 H228       -8.2903  -28.6102  -54.2348 H         1 UNK         0.0600 
    229 H229       -7.4120  -27.7811  -52.9607 H         1 UNK         0.0600 
    230 H230       -6.2526  -25.2261  -53.7320 H         1 UNK         0.3000 
    231 H231       -4.7745  -25.8875  -56.2429 H         1 UNK         0.0600 
    232 H232       -3.6158  -26.5074  -54.1610 H         1 UNK         0.0600 
    233 H233       -3.7927  -24.8744  -53.5278 H         1 UNK         0.0600 
    234 H234       -2.7771  -25.1685  -54.9312 H         1 UNK         0.0600 
    235 H235       -5.8258  -23.2160  -54.1464 H         1 UNK         0.3000 
    236 H236       -6.1199  -21.0226  -54.4053 H         1 UNK         0.0600 
    237 H237       -6.7261  -21.7560  -57.3118 H         1 UNK         0.0600 
    238 H238       -7.8521  -21.9053  -55.9644 H         1 UNK         0.0600 
    239 H239       -7.2861  -20.3207  -56.4613 H         1 UNK         0.0600 
    240 H240       -3.3676  -21.7211  -54.5239 H         1 UNK         0.3000 
    241 H241       -1.3662  -20.9642  -54.9287 H         1 UNK         0.0600 
    242 H242       -1.8330  -22.1636  -58.5916 H         1 UNK         0.3800 
    243 H243       -3.0097  -22.3455  -57.3156 H         1 UNK         0.3800 
    244 H244       -2.6410  -18.3845  -55.9716 H         1 UNK         0.0800 
    245 H245       -0.9377  -18.6011  -55.7305 H         1 UNK         0.0800 
    246 H246       -0.5037  -16.7067  -54.0876 H         1 UNK         0.0800 
    247 H247        0.2993  -18.1933  -53.6300 H         1 UNK         0.0800 
@<TRIPOS>BOND
     1    1    2 1    
     2    1  127 1    
     3    1  128 1    
     4    1  129 1    
     5    2    3 2    
     6    2    4 am   BACKBONE|DICT|INTERRES
     7    4    5 1    
     8    4  130 1    
     9    5    6 1    
    10    5   65 1    
    11    5  131 1    
    12    6    7 1    
    13    6  132 1    
    14    6  133 1    
    15    7    8 1    
    16    8    9 1    
    17    8  134 1    
    18    8  135 1    
    19    9   10 ar   
    20    9   14 ar   
    21   10   11 ar   
    22   10  136 1    
    23   11   12 ar   
    24   11  126 1    
    25   12   13 ar   
    26   12  137 1    
    27   13   14 ar   
    28   13   15 1    
    29   14  138 1    
    30   15   16 1    
    31   15  139 1    
    32   15  140 1    
    33   16   17 1    
    34   17   18 1    
    35   17  141 1    
    36   17  142 1    
    37   18   19 1    
    38   18   67 1    
    39   18  143 1    
    40   19   20 am   BACKBONE|DICT|INTERRES
    41   19  144 1    
    42   20   21 2    
    43   20   22 1    
    44   22   23 1    
    45   22   24 1    
    46   22  145 1    
    47   23  146 1    
    48   23  147 1    
    49   23  148 1    
    50   24   25 am   BACKBONE|DICT|INTERRES
    51   24  149 1    
    52   25   26 2    
    53   25   27 1    
    54   27   28 1    
    55   27   29 1    
    56   27  150 1    
    57   28  151 1    
    58   28  152 1    
    59   28  153 1    
    60   29   30 am   BACKBONE|DICT|INTERRES
    61   29  154 1    
    62   30   31 2    
    63   30   32 1    
    64   32   33 1    
    65   32   34 1    
    66   32  155 1    
    67   33  156 1    
    68   33  157 1    
    69   33  158 1    
    70   34   35 am   BACKBONE|DICT|INTERRES
    71   34  159 1    
    72   35   36 2    
    73   35   37 1    
    74   37   38 1    
    75   37   39 1    
    76   37  160 1    
    77   38  161 1    
    78   38  162 1    
    79   38  163 1    
    80   39   40 am   BACKBONE|DICT|INTERRES
    81   39  164 1    
    82   40   41 2    
    83   40   42 1    
    84   42   43 1    
    85   42   44 1    
    86   42  165 1    
    87   43  166 1    
    88   43  167 1    
    89   43  168 1    
    90   44   45 am   BACKBONE|DICT|INTERRES
    91   44  169 1    
    92   45   46 2    
    93   45   47 1    
    94   47   48 1    
    95   47   49 1    
    96   47  170 1    
    97   48  171 1    
    98   48  172 1    
    99   48  173 1    
   100   49   50 am   BACKBONE|DICT|INTERRES
   101   49  174 1    
   102   50   51 2    
   103   50   52 1    
   104   52   53 1    
   105   52   54 1    
   106   52  175 1    
   107   53  176 1    
   108   53  177 1    
   109   53  178 1    
   110   54   55 am   BACKBONE|DICT|INTERRES
   111   54  179 1    
   112   55   56 2    
   113   55   57 1    
   114   57   58 1    
   115   57   59 1    
   116   57  180 1    
   117   58  181 1    
   118   58  182 1    
   119   58  183 1    
   120   59   60 am   BACKBONE|DICT|INTERRES
   121   59  184 1    
   122   60   61 2    
   123   60   62 1    
   124   62   63 1    
   125   62   64 1    
   126   62  185 1    
   127   63  186 1    
   128   63  187 1    
   129   63  188 1    
   130   64   65 am   BACKBONE|DICT|INTERRES
   131   64  189 1    
   132   65   66 2    
   133   67   68 2    
   134   67   69 am   BACKBONE|DICT|INTERRES
   135   69   70 1    
   136   69  190 1    
   137   70   71 1    
   138   70   72 1    
   139   70  191 1    
   140   71  192 1    
   141   71  193 1    
   142   71  194 1    
   143   72   73 2    
   144   72   74 am   BACKBONE|DICT|INTERRES
   145   74   75 1    
   146   74  195 1    
   147   75   76 1    
   148   75   77 1    
   149   75  196 1    
   150   76  197 1    
   151   76  198 1    
   152   76  199 1    
   153   77   78 2    
   154   77   79 am   BACKBONE|DICT|INTERRES
   155   79   80 1    
   156   79  200 1    
   157   80   81 1    
   158   80   82 1    
   159   80  201 1    
   160   81  202 1    
   161   81  203 1    
   162   81  204 1    
   163   82   83 2    
   164   82   84 am   BACKBONE|DICT|INTERRES
   165   84   85 1    
   166   84  205 1    
   167   85   86 1    
   168   85   87 1    
   169   85  206 1    
   170   86  207 1    
   171   86  208 1    
   172   86  209 1    
   173   87   88 2    
   174   87   89 am   BACKBONE|DICT|INTERRES
   175   89   90 1    
   176   89  210 1    
   177   90   91 1    
   178   90   92 1    
   179   90  211 1    
   180   91  212 1    
   181   91  213 1    
   182   91  214 1    
   183   92   93 2    
   184   92   94 am   BACKBONE|DICT|INTERRES
   185   94   95 1    
   186   94  215 1    
   187   95   96 1    
   188   95   97 1    
   189   95  216 1    
   190   96  217 1    
   191   96  218 1    
   192   96  219 1    
   193   97   98 2    
   194   97   99 am   BACKBONE|DICT|INTERRES
   195   99  100 1    
   196   99  220 1    
   197  100  101 1    
   198  100  102 1    
   199  100  221 1    
   200  101  222 1    
   201  101  223 1    
   202  101  224 1    
   203  102  103 2    
   204  102  104 am   BACKBONE|DICT|INTERRES
   205  104  105 1    
   206  104  225 1    
   207  105  106 1    
   208  105  107 1    
   209  105  226 1    
   210  106  227 1    
   211  106  228 1    
   212  106  229 1    
   213  107  108 2    
   214  107  109 am   BACKBONE|DICT|INTERRES
   215  109  110 1    
   216  109  230 1    
   217  110  111 1    
   218  110  112 1    
   219  110  231 1    
   220  111  232 1    
   221  111  233 1    
   222  111  234 1    
   223  112  113 2    
   224  112  114 am   BACKBONE|DICT|INTERRES
   225  114  115 1    
   226  114  235 1    
   227  115  116 1    
   228  115  117 1    
   229  115  236 1    
   230  116  237 1    
   231  116  238 1    
   232  116  239 1    
   233  117  118 2    
   234  117  119 am   BACKBONE|DICT|INTERRES
   235  119  120 1    
   236  119  240 1    
   237  120  121 1    
   238  120  124 1    
   239  120  241 1    
   240  121  122 am   BACKBONE|DICT|INTERRES
   241  121  123 2    
   242  122  242 1    
   243  122  243 1    
   244  124  125 1    
   245  124  244 1    
   246  124  245 1    
   247  125  126 1    
   248  126  246 1    
   249  126  247 1    
@<TRIPOS>SUBSTRUCTURE
     1 UNK         1 GROUP             0       ****    0 ROOT    
