@<TRIPOS>MOLECULE
3R540
247   249    1
SMALL
USER_CHARGES


@<TRIPOS>ATOM
      1 CA         -1.5977  -16.6005  -44.5092 C.3       0 UNK        -0.1800 
      2 C          -2.3370  -15.2821  -44.6766 C.2       0 UNK         0.5000 
      3 O          -3.2513  -14.9970  -43.9033 O.2       0 UNK        -0.5000 
      4 N          -1.9409  -14.4869  -45.6749 N.am      1 UNK        -0.5000 
      5 CA         -2.5209  -13.1816  -46.0098 C.3       1 UNK         0.1400 
      6 C6         -3.5011  -13.2617  -47.2159 C.3       23 UNK        -0.0398 
      7 S7         -5.0356  -14.1576  -46.7938 S.3       23 UNK        -0.2404 
      8 C8         -5.5009  -14.9270  -48.3798 C.3       23 UNK        -0.0205 
      9 C9         -4.4740  -15.9268  -48.8959 C.ar      23 UNK        -0.0193 
     10 C10        -4.0222  -15.8391  -50.2149 C.ar      23 UNK        -0.1150 
     11 C11        -3.0810  -16.7460  -50.7077 C.ar      23 UNK        -0.0193 
     12 C12        -2.6043  -17.7637  -49.8743 C.ar      23 UNK        -0.1150 
     13 C13        -3.0428  -17.8582  -48.5507 C.ar      23 UNK        -0.0193 
     14 C14        -3.9828  -16.9429  -48.0708 C.ar      23 UNK        -0.1150 
     15 C15        -2.4860  -18.9256  -47.6241 C.3       23 UNK        -0.0205 
     16 S16        -3.6741  -20.2791  -47.3869 S.3       23 UNK        -0.2404 
     17 C17        -2.8159  -21.2500  -46.1064 C.3       23 UNK        -0.0398 
     18 CA         -2.0889  -22.4837  -46.7058 C.3       11 UNK         0.1400 
     19 N          -0.6309  -22.3771  -46.6069 N.am      11 UNK        -0.5000 
     20 C           0.2337  -23.2377  -47.1636 C.2       10 UNK         0.5000 
     21 O          -0.0999  -24.1886  -47.8679 O.2       10 UNK        -0.5000 
     22 CA          1.7175  -23.0322  -46.8273 C.3       10 UNK         0.1400 
     23 CB          2.3212  -21.9073  -47.6828 C.3       10 UNK        -0.1800 
     24 N           1.8995  -22.7453  -45.4037 N.am      10 UNK        -0.5000 
     25 C           1.6829  -23.6407  -44.4277 C.2       9 UNK         0.5000 
     26 O           1.3687  -24.8134  -44.6340 O.2       9 UNK        -0.5000 
     27 CA          1.7910  -23.1301  -42.9790 C.3       9 UNK         0.1400 
     28 CB          3.2489  -23.1714  -42.4981 C.3       9 UNK        -0.1800 
     29 N           1.2638  -21.7744  -42.8143 N.am      9 UNK        -0.5000 
     30 C          -0.0247  -21.4339  -42.9620 C.2       8 UNK         0.5000 
     31 O          -0.9187  -22.2355  -43.2281 O.2       8 UNK        -0.5000 
     32 CA         -0.3612  -19.9363  -42.8502 C.3       8 UNK         0.1400 
     33 CB         -0.6190  -19.5405  -41.3897 C.3       8 UNK        -0.1800 
     34 N           0.6821  -19.0754  -43.4081 N.am      8 UNK        -0.5000 
     35 C           1.0685  -19.0611  -44.6893 C.2       7 UNK         0.5000 
     36 O           0.5741  -19.7936  -45.5499 O.2       7 UNK        -0.5000 
     37 CA          2.1919  -18.0662  -45.0491 C.3       7 UNK         0.1400 
     38 CB          2.5250  -18.0657  -46.5498 C.3       7 UNK        -0.1800 
     39 N           1.8783  -16.6966  -44.6360 N.am      7 UNK        -0.5000 
     40 C           2.0086  -16.1994  -43.3979 C.2       6 UNK         0.5000 
     41 O           2.3255  -16.8935  -42.4295 O.2       6 UNK        -0.5000 
     42 CA          1.7214  -14.6910  -43.2055 C.3       6 UNK         0.1400 
     43 CB          2.4881  -14.0912  -42.0095 C.3       6 UNK        -0.1800 
     44 N           1.9425  -13.8828  -44.4100 N.am      6 UNK        -0.5000 
     45 C           3.0693  -13.7756  -45.1286 C.2       5 UNK         0.5000 
     46 O           4.1355  -14.3222  -44.8385 O.2       5 UNK        -0.5000 
     47 CA          2.9607  -12.9280  -46.4105 C.3       5 UNK         0.1400 
     48 CB          4.2984  -12.2545  -46.7629 C.3       5 UNK        -0.1800 
     49 N           2.4842  -13.6480  -47.5970 N.am      5 UNK        -0.5000 
     50 C           1.4931  -14.5444  -47.7213 C.2       4 UNK         0.5000 
     51 O           0.8596  -15.0481  -46.7911 O.2       4 UNK        -0.5000 
     52 CA          1.0802  -14.8572  -49.1689 C.3       4 UNK         0.1400 
     53 CB          0.0517  -15.9945  -49.2485 C.3       4 UNK        -0.1800 
     54 N           0.4895  -13.6573  -49.7560 N.am      4 UNK        -0.5000 
     55 C           1.1715  -12.6581  -50.3273 C.2       3 UNK         0.5000 
     56 O           2.3815  -12.6929  -50.5530 O.2       3 UNK        -0.5000 
     57 CA          0.3719  -11.3738  -50.6014 C.3       3 UNK         0.1400 
     58 CB         -0.6311  -11.5667  -51.7494 C.3       3 UNK        -0.1800 
     59 N          -0.3354  -10.9203  -49.4000 N.am      3 UNK        -0.5000 
     60 C           0.2620  -10.3748  -48.3290 C.2       2 UNK         0.5000 
     61 O           1.4730  -10.1691  -48.2488 O.2       2 UNK        -0.5000 
     62 CA         -0.6491   -9.9964  -47.1470 C.3       2 UNK         0.1400 
     63 CB         -1.3650   -8.6639  -47.4175 C.3       2 UNK        -0.1800 
     64 N          -1.6426  -11.0321  -46.8544 N.am      2 UNK        -0.5000 
     65 C          -1.3669  -12.1750  -46.2104 C.2       1 UNK         0.5000 
     66 O          -0.2515  -12.4280  -45.7483 O.2       1 UNK        -0.5000 
     67 C          -2.6107  -23.8038  -46.1036 C.2       11 UNK         0.5000 
     68 O          -3.4311  -24.4673  -46.7340 O.2       11 UNK        -0.5000 
     69 N          -2.1001  -24.1889  -44.9255 N.am      12 UNK        -0.5000 
     70 CA         -2.4124  -25.4548  -44.2597 C.3       12 UNK         0.1400 
     71 CB         -1.7603  -25.4873  -42.8696 C.3       12 UNK        -0.1800 
     72 C          -2.0010  -26.6833  -45.0920 C.2       12 UNK         0.5000 
     73 O          -2.8002  -27.6091  -45.2359 O.2       12 UNK        -0.5000 
     74 N          -0.7931  -26.6466  -45.6744 N.am      13 UNK        -0.5000 
     75 CA         -0.2819  -27.6703  -46.5915 C.3       13 UNK         0.1400 
     76 CB          1.1977  -27.3920  -46.8961 C.3       13 UNK        -0.1800 
     77 C          -1.0997  -27.7789  -47.8952 C.2       13 UNK         0.5000 
     78 O          -1.2746  -28.8814  -48.4145 O.2       13 UNK        -0.5000 
     79 N          -1.6209  -26.6415  -48.3723 N.am      14 UNK        -0.5000 
     80 CA         -2.5157  -26.5264  -49.5250 C.3       14 UNK         0.1400 
     81 CB         -2.3782  -25.1120  -50.1119 C.3       14 UNK        -0.1800 
     82 C          -3.9924  -26.8457  -49.2003 C.2       14 UNK         0.5000 
     83 O          -4.8388  -26.6918  -50.0806 O.2       14 UNK        -0.5000 
     84 N          -4.2893  -27.2649  -47.9601 N.am      15 UNK        -0.5000 
     85 CA         -5.6138  -27.6130  -47.4328 C.3       15 UNK         0.1400 
     86 CB         -6.1823  -28.8593  -48.1439 C.3       15 UNK        -0.1800 
     87 C          -6.5913  -26.4179  -47.4181 C.2       15 UNK         0.5000 
     88 O          -7.7690  -26.5708  -47.7468 O.2       15 UNK        -0.5000 
     89 N          -6.0682  -25.2482  -47.0262 N.am      16 UNK        -0.5000 
     90 CA         -6.7367  -23.9512  -46.8852 C.3       16 UNK         0.1400 
     91 CB         -7.9058  -24.0224  -45.8803 C.3       16 UNK        -0.1800 
     92 C          -7.1302  -23.2954  -48.2242 C.2       16 UNK         0.5000 
     93 O          -7.9576  -22.3821  -48.2309 O.2       16 UNK        -0.5000 
     94 N          -6.5210  -23.7383  -49.3328 N.am      17 UNK        -0.5000 
     95 CA         -6.6555  -23.1124  -50.6448 C.3       17 UNK         0.1400 
     96 CB         -6.1817  -24.0877  -51.7327 C.3       17 UNK        -0.1800 
     97 C          -5.8501  -21.8030  -50.6871 C.2       17 UNK         0.5000 
     98 O          -4.6203  -21.8385  -50.5882 O.2       17 UNK        -0.5000 
     99 N          -6.5500  -20.6733  -50.8485 N.am      18 UNK        -0.5000 
    100 CA        -5.9903  -19.3202  -50.9091 C.3       18 UNK         0.1400 
    101 CB        -7.1010  -18.3064  -50.5825 C.3       18 UNK        -0.1800 
    102 C         -5.2937  -19.0324  -52.2575 C.2       18 UNK         0.5000 
    103 O         -5.6641  -18.0992  -52.9712 O.2       18 UNK        -0.5000 
    104 N         -4.2984  -19.8616  -52.5811 N.am      19 UNK        -0.5000 
    105 CA        -3.4540  -19.7918  -53.7732 C.3       19 UNK         0.1400 
    106 CB        -4.1383  -20.5525  -54.9237 C.3       19 UNK        -0.1800 
    107 C         -2.0384  -20.3373  -53.4905 C.2       19 UNK         0.5000 
    108 O         -1.2557  -20.4993  -54.4264 O.2       19 UNK        -0.5000 
    109 N         -1.7407  -20.6419  -52.2179 N.am      20 UNK        -0.5000 
    110 CA        -0.5778  -21.4184  -51.7882 C.3       20 UNK         0.1400 
    111 CB        -0.7516  -21.7759  -50.3068 C.3       20 UNK        -0.1800 
    112 C          0.7884  -20.7435  -52.0058 C.2       20 UNK         0.5000 
    113 O          1.7534  -21.4411  -52.3210 O.2       20 UNK        -0.5000 
    114 N          0.8599  -19.4213  -51.8036 N.am      21 UNK        -0.5000 
    115 CA         2.1182  -18.6667  -51.7984 C.3       21 UNK         0.1400 
    116 CB         2.7117  -18.6736  -50.3750 C.3       21 UNK        -0.1800 
    117 C          1.9708  -17.2451  -52.3724 C.2       21 UNK         0.5000 
    118 O          2.8399  -16.4052  -52.1351 O.2       21 UNK        -0.5000 
    119 N          0.8880  -16.9923  -53.1169 N.am      22 UNK        -0.5000 
    120 CA         0.6613  -15.7284  -53.8357 C.3       22 UNK         0.1400 
    121 C          1.3723  -15.7308  -55.2160 C.2       22 UNK         0.5000 
    122 N          1.8495  -14.5829  -55.6772 N.am      22 UNK        -0.7600 
    123 O          1.4628  -16.7542  -55.8908 O.2       22 UNK        -0.5000 
    124 C124       -0.8475  -15.4211  -53.9988 C.3       23 UNK        -0.0398 
    125 S125       -1.6403  -15.0887  -52.3922 S.3       23 UNK        -0.2404 
    126 C126       -2.5822  -16.6205  -52.1388 C.3       23 UNK        -0.0205 
    127 H127       -0.9098  -16.7822  -45.3351 H         1 UNK         0.0600 
    128 H128       -2.3073  -17.4267  -44.4714 H         1 UNK         0.0600 
    129 H129       -1.0318  -16.5987  -43.5785 H         1 UNK         0.0600 
    130 H130       -1.1031  -14.7259  -46.1967 H         1 UNK         0.3000 
    131 H131       -3.0733  -12.7973  -45.1499 H         1 UNK         0.0600 
    132 H132       -3.0111  -13.7356  -48.0676 H         1 UNK         0.0800 
    133 H133       -3.8157  -12.2737  -47.5521 H         1 UNK         0.0800 
    134 H134       -5.6759  -14.1366  -49.1114 H         1 UNK         0.0800 
    135 H135       -6.4524  -15.4444  -48.2521 H         1 UNK         0.0800 
    136 H136       -4.3940  -15.0576  -50.8627 H         1 UNK         0.1150 
    137 H137       -1.8724  -18.4662  -50.2427 H         1 UNK         0.1150 
    138 H138       -4.3257  -17.0168  -47.0483 H         1 UNK         0.1150 
    139 H139       -1.5477  -19.3264  -48.0100 H         1 UNK         0.0800 
    140 H140       -2.2500  -18.4738  -46.6611 H         1 UNK         0.0800 
    141 H141       -3.5687  -21.5304  -45.3669 H         1 UNK         0.0800 
    142 H142       -2.1223  -20.6069  -45.5641 H         1 UNK         0.0800 
    143 H143       -2.3115  -22.5433  -47.7729 H         1 UNK         0.0600 
    144 H144       -0.2605  -21.5985  -46.0724 H         1 UNK         0.3000 
    145 H145        2.2500  -23.9573  -47.0583 H         1 UNK         0.0600 
    146 H146        3.3593  -21.7141  -47.4125 H         1 UNK         0.0600 
    147 H147        2.3057  -22.1766  -48.7397 H         1 UNK         0.0600 
    148 H148        1.7654  -20.9755  -47.5822 H         1 UNK         0.0600 
    149 H149        2.1028  -21.7894  -45.1533 H         1 UNK         0.3000 
    150 H150        1.2042  -23.7994  -42.3464 H         1 UNK         0.0600 
    151 H151        3.6620  -24.1766  -42.5921 H         1 UNK         0.0600 
    152 H152        3.3261  -22.8868  -41.4486 H         1 UNK         0.0600 
    153 H153        3.8847  -22.4997  -43.0764 H         1 UNK         0.0600 
    154 H154        1.9297  -21.0478  -42.5967 H         1 UNK         0.3000 
    155 H155       -1.2773  -19.7594  -43.4168 H         1 UNK         0.0600 
    156 H156        0.2739  -19.6619  -40.7753 H         1 UNK         0.0600 
    157 H157       -1.4068  -20.1549  -40.9516 H         1 UNK         0.0600 
    158 H158       -0.9389  -18.5009  -41.3149 H         1 UNK         0.0600 
    159 H159        1.1472  -18.4341  -42.7727 H         1 UNK         0.3000 
    160 H160        3.0885  -18.3891  -44.5164 H         1 UNK         0.0600 
    161 H161        1.6407  -17.8620  -47.1506 H         1 UNK         0.0600 
    162 H162        2.9219  -19.0310  -46.8629 H         1 UNK         0.0600 
    163 H163        3.2769  -17.3140  -46.7909 H         1 UNK         0.0600 
    164 H164        1.5643  -16.0680  -45.3720 H         1 UNK         0.3000 
    165 H165        0.6556  -14.6153  -42.9862 H         1 UNK         0.0600 
    166 H166        3.5673  -14.1844  -42.1343 H         1 UNK         0.0600 
    167 H167        2.2551  -13.0340  -41.8823 H         1 UNK         0.0600 
    168 H168        2.2216  -14.5939  -41.0791 H         1 UNK         0.0600 
    169 H169        1.1135  -13.4352  -44.7962 H         1 UNK         0.3000 
    170 H170        2.2489  -12.1256  -46.2145 H         1 UNK         0.0600 
    171 H171        5.0506  -12.9850  -47.0634 H         1 UNK         0.0600 
    172 H172        4.1767  -11.5426  -47.5799 H         1 UNK         0.0600 
    173 H173        4.6963  -11.7025  -45.9104 H         1 UNK         0.0600 
    174 H174        2.8736  -13.3108  -48.4684 H         1 UNK         0.3000 
    175 H175        1.9714  -15.1581  -49.7236 H         1 UNK         0.0600 
    176 H176       -0.9094  -15.6947  -48.8293 H         1 UNK         0.0600 
    177 H177       -0.1067  -16.2989  -50.2807 H         1 UNK         0.0600 
    178 H178        0.3779  -16.8784  -48.7052 H         1 UNK         0.0600 
    179 H179       -0.4980  -13.5299  -49.5979 H         1 UNK         0.3000 
    180 H180        1.0806  -10.5986  -50.9013 H         1 UNK         0.0600 
    181 H181       -1.0827  -10.6175  -52.0378 H         1 UNK         0.0600 
    182 H182       -1.4371  -12.2471  -51.4743 H         1 UNK         0.0600 
    183 H183       -0.1420  -11.9760  -52.6345 H         1 UNK         0.0600 
    184 H184       -1.3366  -11.0401  -49.3875 H         1 UNK         0.3000 
    185 H185       -0.0147   -9.8613  -46.2679 H         1 UNK         0.0600 
    186 H186       -1.9515   -8.3501  -46.5538 H         1 UNK         0.0600 
    187 H187       -0.6459   -7.8705  -47.6256 H         1 UNK         0.0600 
    188 H188       -2.0374   -8.7299  -48.2737 H         1 UNK         0.0600 
    189 H189       -2.5853  -10.8499  -47.1653 H         1 UNK         0.3000 
    190 H190       -1.4768  -23.5565  -44.4295 H         1 UNK         0.3000 
    191 H191       -3.4952  -25.4958  -44.1247 H         1 UNK         0.0600 
    192 H192       -2.0084  -26.4100  -42.3437 H         1 UNK         0.0600 
    193 H193       -2.1066  -24.6580  -42.2526 H         1 UNK         0.0600 
    194 H194       -0.6739  -25.4267  -42.9311 H         1 UNK         0.0600 
    195 H195       -0.1791  -25.8617  -45.4815 H         1 UNK         0.3000 
    196 H196       -0.3469  -28.6337  -46.0818 H         1 UNK         0.0600 
    197 H197        1.3336  -26.4312  -47.3927 H         1 UNK         0.0600 
    198 H198        1.7930  -27.3828  -45.9829 H         1 UNK         0.0600 
    199 H199        1.6135  -28.1607  -47.5486 H         1 UNK         0.0600 
    200 H200       -1.3686  -25.7702  -47.9166 H         1 UNK         0.3000 
    201 H201       -2.1933  -27.2385  -50.2871 H         1 UNK         0.0600 
    202 H202       -2.9206  -25.0208  -51.0528 H         1 UNK         0.0600 
    203 H203       -2.7716  -24.3565  -49.4314 H         1 UNK         0.0600 
    204 H204       -1.3360  -24.8689  -50.3188 H         1 UNK         0.0600 
    205 H205       -3.5325  -27.3232  -47.2897 H         1 UNK         0.3000 
    206 H206       -5.4568  -27.8812  -46.3872 H         1 UNK         0.0600 
    207 H207       -5.4714  -29.6852  -48.1190 H         1 UNK         0.0600 
    208 H208       -7.0952  -29.2035  -47.6566 H         1 UNK         0.0600 
    209 H209       -6.4265  -28.6574  -49.1871 H         1 UNK         0.0600 
    210 H210       -5.0641  -25.2113  -46.8534 H         1 UNK         0.3000 
    211 H211       -5.9867  -23.2876  -46.4527 H         1 UNK         0.0600 
    212 H212       -8.2752  -23.0250  -45.6397 H         1 UNK         0.0600 
    213 H213       -7.5939  -24.4847  -44.9438 H         1 UNK         0.0600 
    214 H214       -8.7472  -24.5926  -46.2743 H         1 UNK         0.0600 
    215 H215       -5.8490  -24.4886  -49.2535 H         1 UNK         0.3000 
    216 H216       -7.7107  -22.8964  -50.8259 H         1 UNK         0.0600 
    217 H217       -5.1293  -24.3450  -51.6144 H         1 UNK         0.0600 
    218 H218       -6.3028  -23.6529  -52.7255 H         1 UNK         0.0600 
    219 H219       -6.7554  -25.0145  -51.7088 H         1 UNK         0.0600 
    220 H220       -7.5545  -20.7368  -50.9290 H         1 UNK         0.3000 
    221 H221       -5.2290  -19.2295  -50.1315 H         1 UNK         0.0600 
    222 H222       -7.5207  -18.4885  -49.5930 H         1 UNK         0.0600 
    223 H223       -7.9141  -18.3502  -51.3079 H         1 UNK         0.0600 
    224 H224       -6.7122  -17.2873  -50.5837 H         1 UNK         0.0600 
    225 H225       -4.1466  -20.6530  -51.9601 H         1 UNK         0.3000 
    226 H226       -3.3342  -18.7495  -54.0726 H         1 UNK         0.0600 
    227 H227       -4.2730  -21.6070  -54.6802 H         1 UNK         0.0600 
    228 H228       -5.1193  -20.1326  -55.1464 H         1 UNK         0.0600 
    229 H229       -3.5497  -20.4972  -55.8402 H         1 UNK         0.0600 
    230 H230       -2.4350  -20.4670  -51.5075 H         1 UNK         0.3000 
    231 H231       -0.5790  -22.3486  -52.3605 H         1 UNK         0.0600 
    232 H232       -0.7037  -20.8961  -49.6649 H         1 UNK         0.0600 
    233 H233        0.0340  -22.4603  -49.9879 H         1 UNK         0.0600 
    234 H234       -1.7064  -22.2687  -50.1272 H         1 UNK         0.0600 
    235 H235        0.0267  -18.9192  -51.5383 H         1 UNK         0.3000 
    236 H236        2.8350  -19.1575  -52.4599 H         1 UNK         0.0600 
    237 H237        2.8920  -19.6908  -50.0270 H         1 UNK         0.0600 
    238 H238        3.6674  -18.1497  -50.3378 H         1 UNK         0.0600 
    239 H239        2.0448  -18.1930  -49.6615 H         1 UNK         0.0600 
    240 H240        0.2832  -17.7602  -53.3638 H         1 UNK         0.3000 
    241 H241        1.0953  -14.9156  -53.2485 H         1 UNK         0.0600 
    242 H242        1.7846  -13.7282  -55.1461 H         1 UNK         0.3800 
    243 H243        2.3011  -14.5688  -56.5788 H         1 UNK         0.3800 
    244 H244       -1.3607  -16.2329  -54.5170 H         1 UNK         0.0800 
    245 H245       -0.9915  -14.5310  -54.6138 H         1 UNK         0.0800 
    246 H246       -3.4300  -16.6277  -52.8238 H         1 UNK         0.0800 
    247 H247       -1.9552  -17.4730  -52.3960 H         1 UNK         0.0800 
@<TRIPOS>BOND
     1    1    2 1    
     2    1  127 1    
     3    1  128 1    
     4    1  129 1    
     5    2    3 2    
     6    2    4 am   BACKBONE|DICT|INTERRES
     7    4    5 1    
     8    4  130 1    
     9    5    6 1    
    10    5   65 1    
    11    5  131 1    
    12    6    7 1    
    13    6  132 1    
    14    6  133 1    
    15    7    8 1    
    16    8    9 1    
    17    8  134 1    
    18    8  135 1    
    19    9   10 ar   
    20    9   14 ar   
    21   10   11 ar   
    22   10  136 1    
    23   11   12 ar   
    24   11  126 1    
    25   12   13 ar   
    26   12  137 1    
    27   13   14 ar   
    28   13   15 1    
    29   14  138 1    
    30   15   16 1    
    31   15  139 1    
    32   15  140 1    
    33   16   17 1    
    34   17   18 1    
    35   17  141 1    
    36   17  142 1    
    37   18   19 1    
    38   18   67 1    
    39   18  143 1    
    40   19   20 am   BACKBONE|DICT|INTERRES
    41   19  144 1    
    42   20   21 2    
    43   20   22 1    
    44   22   23 1    
    45   22   24 1    
    46   22  145 1    
    47   23  146 1    
    48   23  147 1    
    49   23  148 1    
    50   24   25 am   BACKBONE|DICT|INTERRES
    51   24  149 1    
    52   25   26 2    
    53   25   27 1    
    54   27   28 1    
    55   27   29 1    
    56   27  150 1    
    57   28  151 1    
    58   28  152 1    
    59   28  153 1    
    60   29   30 am   BACKBONE|DICT|INTERRES
    61   29  154 1    
    62   30   31 2    
    63   30   32 1    
    64   32   33 1    
    65   32   34 1    
    66   32  155 1    
    67   33  156 1    
    68   33  157 1    
    69   33  158 1    
    70   34   35 am   BACKBONE|DICT|INTERRES
    71   34  159 1    
    72   35   36 2    
    73   35   37 1    
    74   37   38 1    
    75   37   39 1    
    76   37  160 1    
    77   38  161 1    
    78   38  162 1    
    79   38  163 1    
    80   39   40 am   BACKBONE|DICT|INTERRES
    81   39  164 1    
    82   40   41 2    
    83   40   42 1    
    84   42   43 1    
    85   42   44 1    
    86   42  165 1    
    87   43  166 1    
    88   43  167 1    
    89   43  168 1    
    90   44   45 am   BACKBONE|DICT|INTERRES
    91   44  169 1    
    92   45   46 2    
    93   45   47 1    
    94   47   48 1    
    95   47   49 1    
    96   47  170 1    
    97   48  171 1    
    98   48  172 1    
    99   48  173 1    
   100   49   50 am   BACKBONE|DICT|INTERRES
   101   49  174 1    
   102   50   51 2    
   103   50   52 1    
   104   52   53 1    
   105   52   54 1    
   106   52  175 1    
   107   53  176 1    
   108   53  177 1    
   109   53  178 1    
   110   54   55 am   BACKBONE|DICT|INTERRES
   111   54  179 1    
   112   55   56 2    
   113   55   57 1    
   114   57   58 1    
   115   57   59 1    
   116   57  180 1    
   117   58  181 1    
   118   58  182 1    
   119   58  183 1    
   120   59   60 am   BACKBONE|DICT|INTERRES
   121   59  184 1    
   122   60   61 2    
   123   60   62 1    
   124   62   63 1    
   125   62   64 1    
   126   62  185 1    
   127   63  186 1    
   128   63  187 1    
   129   63  188 1    
   130   64   65 am   BACKBONE|DICT|INTERRES
   131   64  189 1    
   132   65   66 2    
   133   67   68 2    
   134   67   69 am   BACKBONE|DICT|INTERRES
   135   69   70 1    
   136   69  190 1    
   137   70   71 1    
   138   70   72 1    
   139   70  191 1    
   140   71  192 1    
   141   71  193 1    
   142   71  194 1    
   143   72   73 2    
   144   72   74 am   BACKBONE|DICT|INTERRES
   145   74   75 1    
   146   74  195 1    
   147   75   76 1    
   148   75   77 1    
   149   75  196 1    
   150   76  197 1    
   151   76  198 1    
   152   76  199 1    
   153   77   78 2    
   154   77   79 am   BACKBONE|DICT|INTERRES
   155   79   80 1    
   156   79  200 1    
   157   80   81 1    
   158   80   82 1    
   159   80  201 1    
   160   81  202 1    
   161   81  203 1    
   162   81  204 1    
   163   82   83 2    
   164   82   84 am   BACKBONE|DICT|INTERRES
   165   84   85 1    
   166   84  205 1    
   167   85   86 1    
   168   85   87 1    
   169   85  206 1    
   170   86  207 1    
   171   86  208 1    
   172   86  209 1    
   173   87   88 2    
   174   87   89 am   BACKBONE|DICT|INTERRES
   175   89   90 1    
   176   89  210 1    
   177   90   91 1    
   178   90   92 1    
   179   90  211 1    
   180   91  212 1    
   181   91  213 1    
   182   91  214 1    
   183   92   93 2    
   184   92   94 am   BACKBONE|DICT|INTERRES
   185   94   95 1    
   186   94  215 1    
   187   95   96 1    
   188   95   97 1    
   189   95  216 1    
   190   96  217 1    
   191   96  218 1    
   192   96  219 1    
   193   97   98 2    
   194   97   99 am   BACKBONE|DICT|INTERRES
   195   99  100 1    
   196   99  220 1    
   197  100  101 1    
   198  100  102 1    
   199  100  221 1    
   200  101  222 1    
   201  101  223 1    
   202  101  224 1    
   203  102  103 2    
   204  102  104 am   BACKBONE|DICT|INTERRES
   205  104  105 1    
   206  104  225 1    
   207  105  106 1    
   208  105  107 1    
   209  105  226 1    
   210  106  227 1    
   211  106  228 1    
   212  106  229 1    
   213  107  108 2    
   214  107  109 am   BACKBONE|DICT|INTERRES
   215  109  110 1    
   216  109  230 1    
   217  110  111 1    
   218  110  112 1    
   219  110  231 1    
   220  111  232 1    
   221  111  233 1    
   222  111  234 1    
   223  112  113 2    
   224  112  114 am   BACKBONE|DICT|INTERRES
   225  114  115 1    
   226  114  235 1    
   227  115  116 1    
   228  115  117 1    
   229  115  236 1    
   230  116  237 1    
   231  116  238 1    
   232  116  239 1    
   233  117  118 2    
   234  117  119 am   BACKBONE|DICT|INTERRES
   235  119  120 1    
   236  119  240 1    
   237  120  121 1    
   238  120  124 1    
   239  120  241 1    
   240  121  122 am   BACKBONE|DICT|INTERRES
   241  121  123 2    
   242  122  242 1    
   243  122  243 1    
   244  124  125 1    
   245  124  244 1    
   246  124  245 1    
   247  125  126 1    
   248  126  246 1    
   249  126  247 1    
@<TRIPOS>SUBSTRUCTURE
     1 UNK         1 GROUP             0       ****    0 ROOT    
