@<TRIPOS>MOLECULE
3R540
247   249    1
SMALL
USER_CHARGES


@<TRIPOS>ATOM
      1 CA          4.2901  -12.1357  -46.3040 C.3       0 UNK        -0.1800 
      2 C           2.8982  -12.7341  -46.4498 C.2       0 UNK         0.5000 
      3 O           2.3357  -13.2166  -45.4674 O.2       0 UNK        -0.5000 
      4 N           2.3518  -12.7144  -47.6715 N.am      1 UNK        -0.5000 
      5 CA          1.0195  -13.2288  -48.0016 C.3       1 UNK         0.1400 
      6 C6          0.8088  -13.3477  -49.5306 C.3       23 UNK        -0.0398 
      7 S7          1.8498  -14.6512  -50.2658 S.3       23 UNK        -0.2404 
      8 C8          0.6192  -15.9844  -50.4225 C.3       23 UNK        -0.0205 
      9 C9          1.2321  -17.2946  -50.8946 C.ar      23 UNK        -0.0193 
     10 C10         1.8228  -17.3769  -52.1596 C.ar      23 UNK        -0.1150 
     11 C11         2.3496  -18.5864  -52.6190 C.ar      23 UNK        -0.0193 
     12 C12         2.2736  -19.7208  -51.8079 C.ar      23 UNK        -0.1150 
     13 C13         1.6669  -19.6607  -50.5510 C.ar      23 UNK        -0.0193 
     14 C14         1.1589  -18.4402  -50.0931 C.ar      23 UNK        -0.1150 
     15 C15         1.5001  -20.9353  -49.7359 C.3       23 UNK        -0.0205 
     16 S16         2.4892  -20.9441  -48.2071 S.3       23 UNK        -0.2404 
     17 C17         1.1754  -20.7338  -46.9635 C.3       23 UNK        -0.0398 
     18 CA          0.5874  -22.0878  -46.4928 C.3       11 UNK         0.1400 
     19 N           1.5561  -22.9248  -45.7829 N.am      11 UNK        -0.5000 
     20 C           1.3940  -24.2345  -45.5434 C.2       10 UNK         0.5000 
     21 O           0.4460  -24.8964  -45.9647 O.2       10 UNK        -0.5000 
     22 CA          2.4568  -24.9146  -44.6596 C.3       10 UNK         0.1400 
     23 CB          3.6173  -25.4365  -45.5200 C.3       10 UNK        -0.1800 
     24 N           2.9884  -24.0287  -43.6223 N.am      10 UNK        -0.5000 
     25 C           2.2789  -23.5473  -42.5910 C.2       9 UNK         0.5000 
     26 O           1.1004  -23.8277  -42.3797 O.2       9 UNK        -0.5000 
     27 CA          2.9926  -22.5252  -41.6858 C.3       9 UNK         0.1400 
     28 CB          3.8253  -23.2387  -40.6106 C.3       9 UNK        -0.1800 
     29 N           3.8497  -21.6061  -42.4417 N.am      9 UNK        -0.5000 
     30 C           3.3988  -20.7619  -43.3776 C.2       8 UNK         0.5000 
     31 O           2.2047  -20.6442  -43.6728 O.2       8 UNK        -0.5000 
     32 CA          4.4539  -19.9672  -44.1559 C.3       8 UNK         0.1400 
     33 CB          5.1842  -20.8725  -45.1659 C.3       8 UNK        -0.1800 
     34 N           3.7643  -18.8922  -44.8529 N.am      8 UNK        -0.5000 
     35 C           4.3095  -17.7880  -45.3669 C.2       7 UNK         0.5000 
     36 O           5.5189  -17.5543  -45.3633 O.2       7 UNK        -0.5000 
     37 CA          3.3376  -16.7616  -45.9826 C.3       7 UNK         0.1400 
     38 CB          3.2931  -16.9246  -47.5072 C.3       7 UNK        -0.1800 
     39 N           1.9636  -16.8163  -45.4695 N.am      7 UNK        -0.5000 
     40 C           1.5906  -16.5996  -44.2029 C.2       6 UNK         0.5000 
     41 O           2.3924  -16.4552  -43.2791 O.2       6 UNK        -0.5000 
     42 CA          0.0814  -16.5219  -43.8814 C.3       6 UNK         0.1400 
     43 CB         -0.3226  -15.0623  -43.6069 C.3       6 UNK        -0.1800 
     44 N          -0.8721  -17.1244  -44.8276 N.am      6 UNK        -0.5000 
     45 C          -1.1105  -16.8307  -46.1128 C.2       5 UNK         0.5000 
     46 O          -0.3865  -16.1238  -46.8082 O.2       5 UNK        -0.5000 
     47 CA         -2.4237  -17.3575  -46.7135 C.3       5 UNK         0.1400 
     48 CB         -2.4354  -18.8834  -46.8933 C.3       5 UNK        -0.1800 
     49 N          -3.5970  -16.8733  -45.9840 N.am      5 UNK        -0.5000 
     50 C          -4.0188  -17.1730  -44.7470 C.2       4 UNK         0.5000 
     51 O          -3.4739  -18.0161  -44.0330 O.2       4 UNK        -0.5000 
     52 CA         -5.2166  -16.3642  -44.1980 C.3       4 UNK         0.1400 
     53 CB         -5.0253  -16.0185  -42.7109 C.3       4 UNK        -0.1800 
     54 N          -5.4360  -15.1174  -44.9375 N.am      4 UNK        -0.5000 
     55 C          -6.1706  -14.9835  -46.0502 C.2       3 UNK         0.5000 
     56 O          -6.8296  -15.8962  -46.5471 O.2       3 UNK        -0.5000 
     57 CA         -6.1112  -13.6112  -46.7549 C.3       3 UNK         0.1400 
     58 CB         -7.2897  -12.7301  -46.3141 C.3       3 UNK        -0.1800 
     59 N          -4.8548  -12.8828  -46.5285 N.am      3 UNK        -0.5000 
     60 C          -3.6441  -13.2975  -46.9282 C.2       2 UNK         0.5000 
     61 O          -3.4590  -14.3448  -47.5532 O.2       2 UNK        -0.5000 
     62 CA         -2.4458  -12.4180  -46.5335 C.3       2 UNK         0.1400 
     63 CB         -2.3510  -12.2431  -45.0059 C.3       2 UNK        -0.1800 
     64 N          -1.2176  -13.0284  -47.0376 N.am      2 UNK        -0.5000 
     65 C          -0.1019  -12.3742  -47.3740 C.2       1 UNK         0.5000 
     66 O           0.0425  -11.1545  -47.2539 O.2       1 UNK        -0.5000 
     67 C          -0.6653  -21.8716  -45.6273 C.2       11 UNK         0.5000 
     68 O          -1.7735  -22.0948  -46.1089 O.2       11 UNK        -0.5000 
     69 N          -0.4655  -21.4753  -44.3617 N.am      12 UNK        -0.5000 
     70 CA         -1.5249  -21.2268  -43.3806 C.3       12 UNK         0.1400 
     71 CB         -0.8997  -20.6585  -42.0987 C.3       12 UNK        -0.1800 
     72 C          -2.3828  -22.4699  -43.0722 C.2       12 UNK         0.5000 
     73 O          -3.5979  -22.3488  -42.9171 O.2       12 UNK        -0.5000 
     74 N          -1.7460  -23.6483  -43.0326 N.am      13 UNK        -0.5000 
     75 CA         -2.3906  -24.9488  -42.8315 C.3       13 UNK         0.1400 
     76 CB         -1.3061  -26.0051  -42.5679 C.3       13 UNK        -0.1800 
     77 C          -3.2984  -25.3977  -43.9963 C.2       13 UNK         0.5000 
     78 O          -4.1214  -26.2929  -43.7996 O.2       13 UNK        -0.5000 
     79 N          -3.1393  -24.7861  -45.1758 N.am      14 UNK        -0.5000 
     80 CA         -3.8862  -25.0833  -46.3972 C.3       14 UNK         0.1400 
     81 CB         -2.9626  -25.8399  -47.3668 C.3       14 UNK        -0.1800 
     82 C          -4.4836  -23.7975  -46.9998 C.2       14 UNK         0.5000 
     83 O          -4.6278  -23.6875  -48.2199 O.2       14 UNK        -0.5000 
     84 N          -4.8141  -22.8322  -46.1327 N.am      15 UNK        -0.5000 
     85 CA         -5.4055  -21.5541  -46.5100 C.3       15 UNK         0.1400 
     86 CB         -5.2754  -20.5822  -45.3303 C.3       15 UNK        -0.1800 
     87 C          -6.8916  -21.7081  -46.9006 C.2       15 UNK         0.5000 
     88 O          -7.5778  -22.5509  -46.3212 O.2       15 UNK        -0.5000 
     89 N          -7.4283  -20.8962  -47.8227 N.am      16 UNK        -0.5000 
     90 CA         -6.7342  -19.9241  -48.6763 C.3       16 UNK         0.1400 
     91 CB         -7.7278  -18.8187  -49.0634 C.3       16 UNK        -0.1800 
     92 C          -6.1418  -20.5692  -49.9468 C.2       16 UNK         0.5000 
     93 O          -5.3892  -19.9045  -50.6577 O.2       16 UNK        -0.5000 
     94 N          -6.4969  -21.8353  -50.2138 N.am      17 UNK        -0.5000 
     95 CA         -6.1987  -22.5994  -51.4289 C.3       17 UNK         0.1400 
     96 CB         -6.7150  -24.0362  -51.2585 C.3       17 UNK        -0.1800 
     97 C          -4.7188  -22.6074  -51.8505 C.2       17 UNK         0.5000 
     98 O          -4.4293  -22.4412  -53.0355 O.2       17 UNK        -0.5000 
     99 N          -3.8114  -22.7651  -50.8777 N.am      18 UNK        -0.5000 
    100 CA        -2.3643  -22.7621  -51.1000 C.3       18 UNK         0.1400 
    101 CB        -1.6516  -23.1937  -49.8121 C.3       18 UNK        -0.1800 
    102 C         -1.8169  -21.4123  -51.6008 C.2       18 UNK         0.5000 
    103 O         -0.8731  -21.4053  -52.3895 O.2       18 UNK        -0.5000 
    104 N         -2.4247  -20.3049  -51.1538 N.am      19 UNK        -0.5000 
    105 CA        -2.0977  -18.9553  -51.6106 C.3       19 UNK         0.1400 
    106 CB        -2.4542  -17.9367  -50.5188 C.3       19 UNK        -0.1800 
    107 C         -2.8057  -18.6167  -52.9292 C.2       19 UNK         0.5000 
    108 O         -2.1909  -18.0129  -53.8064 O.2       19 UNK        -0.5000 
    109 N         -4.0713  -19.0388  -53.0615 N.am      20 UNK        -0.5000 
    110 CA        -4.9092  -18.8417  -54.2482 C.3       20 UNK         0.1400 
    111 CB        -6.3372  -19.3128  -53.9360 C.3       20 UNK        -0.1800 
    112 C         -4.3728  -19.5382  -55.5156 C.2       20 UNK         0.5000 
    113 O         -4.6899  -19.1056  -56.6242 O.2       20 UNK        -0.5000 
    114 N         -3.5620  -20.5891  -55.3326 N.am      21 UNK        -0.5000 
    115 CA        -2.8321  -21.2865  -56.3901 C.3       21 UNK         0.1400 
    116 CB        -2.2376  -22.5790  -55.8097 C.3       21 UNK        -0.1800 
    117 C         -1.7254  -20.4322  -57.0448 C.2       21 UNK         0.5000 
    118 O         -1.3870  -20.6806  -58.2033 O.2       21 UNK        -0.5000 
    119 N         -1.1818  -19.4554  -56.3078 N.am      22 UNK        -0.5000 
    120 CA        -0.1792  -18.4969  -56.7922 C.3       22 UNK         0.1400 
    121 C         -0.8439  -17.2442  -57.4251 C.2       22 UNK         0.5000 
    122 N         -0.1834  -16.6090  -58.3841 N.am      22 UNK        -0.7600 
    123 O         -1.9311  -16.8179  -57.0428 O.2       22 UNK        -0.5000 
    124 C124        0.8078  -18.0935  -55.6673 C.3       23 UNK        -0.0398 
    125 S125        1.8965  -19.4802  -55.2013 S.3       23 UNK        -0.2404 
    126 C126        2.9972  -18.6816  -53.9913 C.3       23 UNK        -0.0205 
    127 H127        4.6708  -11.7570  -47.2529 H         1 UNK         0.0600 
    128 H128        4.9851  -12.8904  -45.9357 H         1 UNK         0.0600 
    129 H129        4.2709  -11.3111  -45.5915 H         1 UNK         0.0600 
    130 H130        2.8594  -12.2943  -48.4362 H         1 UNK         0.3000 
    131 H131        0.9584  -14.2261  -47.5696 H         1 UNK         0.0600 
    132 H132       -0.2350  -13.5634  -49.7679 H         1 UNK         0.0800 
    133 H133        1.0352  -12.4008  -50.0236 H         1 UNK         0.0800 
    134 H134        0.1206  -16.1221  -49.4621 H         1 UNK         0.0800 
    135 H135       -0.1504  -15.6795  -51.1327 H         1 UNK         0.0800 
    136 H136        1.8678  -16.4973  -52.7863 H         1 UNK         0.1150 
    137 H137        2.6608  -20.6610  -52.1747 H         1 UNK         0.1150 
    138 H138        0.6819  -18.3895  -49.1252 H         1 UNK         0.1150 
    139 H139        0.4425  -21.0682  -49.5100 H         1 UNK         0.0800 
    140 H140        1.7853  -21.8053  -50.3293 H         1 UNK         0.0800 
    141 H141        0.4008  -20.0967  -47.3871 H         1 UNK         0.0800 
    142 H142        1.5856  -20.1730  -46.1259 H         1 UNK         0.0800 
    143 H143        0.2659  -22.6351  -47.3818 H         1 UNK         0.0600 
    144 H144        2.3484  -22.4520  -45.3767 H         1 UNK         0.3000 
    145 H145        1.9832  -25.7667  -44.1673 H         1 UNK         0.0600 
    146 H146        4.3403  -25.9854  -44.9164 H         1 UNK         0.0600 
    147 H147        3.2553  -26.1181  -46.2909 H         1 UNK         0.0600 
    148 H148        4.1449  -24.6240  -46.0215 H         1 UNK         0.0600 
    149 H149        3.9522  -23.7450  -43.7163 H         1 UNK         0.3000 
    150 H150        2.2241  -21.9326  -41.1851 H         1 UNK         0.0600 
    151 H151        4.6323  -23.8276  -41.0483 H         1 UNK         0.0600 
    152 H152        3.2045  -23.9172  -40.0237 H         1 UNK         0.0600 
    153 H153        4.2686  -22.5242  -39.9168 H         1 UNK         0.0600 
    154 H154        4.8406  -21.6512  -42.2517 H         1 UNK         0.3000 
    155 H155        5.1661  -19.5400  -43.4473 H         1 UNK         0.0600 
    156 H156        4.4917  -21.3194  -45.8799 H         1 UNK         0.0600 
    157 H157        5.7079  -21.6854  -44.6622 H         1 UNK         0.0600 
    158 H158        5.9299  -20.3152  -45.7329 H         1 UNK         0.0600 
    159 H159        2.7563  -18.9754  -44.8339 H         1 UNK         0.3000 
    160 H160        3.7291  -15.7682  -45.7559 H         1 UNK         0.0600 
    161 H161        2.9175  -17.9067  -47.7945 H         1 UNK         0.0600 
    162 H162        4.2847  -16.8095  -47.9463 H         1 UNK         0.0600 
    163 H163        2.6477  -16.1738  -47.9589 H         1 UNK         0.0600 
    164 H164        1.2204  -16.8151  -46.1610 H         1 UNK         0.3000 
    165 H165       -0.0508  -17.0772  -42.9516 H         1 UNK         0.0600 
    166 H166        0.3061  -14.6171  -42.8348 H         1 UNK         0.0600 
    167 H167       -1.3539  -14.9994  -43.2602 H         1 UNK         0.0600 
    168 H168       -0.2231  -14.4449  -44.5006 H         1 UNK         0.0600 
    169 H169       -1.5839  -17.7003  -44.3862 H         1 UNK         0.3000 
    170 H170       -2.5089  -16.9166  -47.7072 H         1 UNK         0.0600 
    171 H171       -1.6441  -19.2024  -47.5684 H         1 UNK         0.0600 
    172 H172       -2.2935  -19.4057  -45.9496 H         1 UNK         0.0600 
    173 H173       -3.3767  -19.2182  -47.3266 H         1 UNK         0.0600 
    174 H174       -4.0766  -16.1173  -46.4569 H         1 UNK         0.3000 
    175 H175       -6.1003  -16.9992  -44.2873 H         1 UNK         0.0600 
    176 H176       -5.8736  -15.4527  -42.3253 H         1 UNK         0.0600 
    177 H177       -4.9392  -16.9208  -42.1040 H         1 UNK         0.0600 
    178 H178       -4.1240  -15.4259  -42.5488 H         1 UNK         0.0600 
    179 H179       -4.9250  -14.3104  -44.6112 H         1 UNK         0.3000 
    180 H180       -6.2027  -13.7925  -47.8280 H         1 UNK         0.0600 
    181 H181       -7.2390  -12.4920  -45.2509 H         1 UNK         0.0600 
    182 H182       -8.2414  -13.2323  -46.4930 H         1 UNK         0.0600 
    183 H183       -7.3104  -11.7918  -46.8687 H         1 UNK         0.0600 
    184 H184       -4.9308  -12.0099  -46.0261 H         1 UNK         0.3000 
    185 H185       -2.5830  -11.4426  -47.0047 H         1 UNK         0.0600 
    186 H186       -3.1829  -11.6518  -44.6227 H         1 UNK         0.0600 
    187 H187       -2.3688  -13.2034  -44.4916 H         1 UNK         0.0600 
    188 H188       -1.4345  -11.7270  -44.7190 H         1 UNK         0.0600 
    189 H189       -1.2844  -14.0269  -47.2054 H         1 UNK         0.3000 
    190 H190        0.4865  -21.3040  -44.0473 H         1 UNK         0.3000 
    191 H191       -2.1875  -20.4663  -43.7954 H         1 UNK         0.0600 
    192 H192       -0.3484  -19.7404  -42.3029 H         1 UNK         0.0600 
    193 H193       -1.6682  -20.4204  -41.3623 H         1 UNK         0.0600 
    194 H194       -0.2106  -21.3679  -41.6398 H         1 UNK         0.0600 
    195 H195       -0.7325  -23.6549  -43.0993 H         1 UNK         0.3000 
    196 H196       -3.0195  -24.8772  -41.9418 H         1 UNK         0.0600 
    197 H197       -1.7451  -26.9906  -42.4075 H         1 UNK         0.0600 
    198 H198       -0.7271  -25.7617  -41.6770 H         1 UNK         0.0600 
    199 H199       -0.6139  -26.0851  -43.4072 H         1 UNK         0.0600 
    200 H200       -2.4649  -24.0330  -45.2521 H         1 UNK         0.3000 
    201 H201       -4.7408  -25.7255  -46.1768 H         1 UNK         0.0600 
    202 H202       -3.4441  -26.0187  -48.3289 H         1 UNK         0.0600 
    203 H203       -2.0406  -25.2867  -47.5452 H         1 UNK         0.0600 
    204 H204       -2.6859  -26.8120  -46.9589 H         1 UNK         0.0600 
    205 H205       -4.6679  -22.9917  -45.1460 H         1 UNK         0.3000 
    206 H206       -4.8190  -21.1759  -47.3468 H         1 UNK         0.0600 
    207 H207       -4.2343  -20.4626  -45.0360 H         1 UNK         0.0600 
    208 H208       -5.6584  -19.5952  -45.5904 H         1 UNK         0.0600 
    209 H209       -5.8275  -20.9306  -44.4565 H         1 UNK         0.0600 
    210 H210       -8.4158  -20.9935  -48.0092 H         1 UNK         0.3000 
    211 H211       -5.9230  -19.4423  -48.1291 H         1 UNK         0.0600 
    212 H212       -8.5734  -19.2132  -49.6282 H         1 UNK         0.0600 
    213 H213       -7.2471  -18.0579  -49.6803 H         1 UNK         0.0600 
    214 H214       -8.1187  -18.3138  -48.1794 H         1 UNK         0.0600 
    215 H215       -7.0900  -22.3000  -49.5424 H         1 UNK         0.3000 
    216 H216       -6.7638  -22.1372  -52.2393 H         1 UNK         0.0600 
    217 H217       -6.5238  -24.6300  -52.1534 H         1 UNK         0.0600 
    218 H218       -7.7909  -24.0517  -51.0840 H         1 UNK         0.0600 
    219 H219       -6.2315  -24.5399  -50.4203 H         1 UNK         0.0600 
    220 H220       -4.1350  -22.9462  -49.9303 H         1 UNK         0.3000 
    221 H221       -2.1463  -23.5053  -51.8700 H         1 UNK         0.0600 
    222 H222       -1.8766  -22.5263  -48.9791 H         1 UNK         0.0600 
    223 H223       -1.9553  -24.2001  -49.5315 H         1 UNK         0.0600 
    224 H224       -0.5699  -23.2132  -49.9465 H         1 UNK         0.0600 
    225 H225       -3.2482  -20.4019  -50.5746 H         1 UNK         0.3000 
    226 H226       -1.0246  -18.8894  -51.7974 H         1 UNK         0.0600 
    227 H227       -2.3087  -16.9150  -50.8710 H         1 UNK         0.0600 
    228 H228       -3.4915  -18.0265  -50.1953 H         1 UNK         0.0600 
    229 H229       -1.8140  -18.0714  -49.6499 H         1 UNK         0.0600 
    230 H230       -4.5138  -19.4921  -52.2662 H         1 UNK         0.3000 
    231 H231       -4.9394  -17.7699  -54.4537 H         1 UNK         0.0600 
    232 H232       -6.3695  -20.3857  -53.7496 H         1 UNK         0.0600 
    233 H233       -7.0079  -19.1051  -54.7706 H         1 UNK         0.0600 
    234 H234       -6.7405  -18.8057  -53.0591 H         1 UNK         0.0600 
    235 H235       -3.4291  -20.9286  -54.3883 H         1 UNK         0.3000 
    236 H236       -3.5457  -21.5576  -57.1707 H         1 UNK         0.0600 
    237 H237       -1.5319  -22.3690  -55.0048 H         1 UNK         0.0600 
    238 H238       -3.0174  -23.2280  -55.4105 H         1 UNK         0.0600 
    239 H239       -1.7049  -23.1439  -56.5757 H         1 UNK         0.0600 
    240 H240       -1.5685  -19.2534  -55.3933 H         1 UNK         0.3000 
    241 H241        0.4039  -18.9762  -57.5815 H         1 UNK         0.0600 
    242 H242       -0.5950  -15.7869  -58.7986 H         1 UNK         0.3800 
    243 H243        0.7120  -16.9327  -58.7170 H         1 UNK         0.3800 
    244 H244        0.2726  -17.7403  -54.7849 H         1 UNK         0.0800 
    245 H245        1.4454  -17.2692  -55.9919 H         1 UNK         0.0800 
    246 H246        3.2970  -17.6963  -54.3515 H         1 UNK         0.0800 
    247 H247        3.9144  -19.2671  -53.9130 H         1 UNK         0.0800 
@<TRIPOS>BOND
     1    1    2 1    
     2    1  127 1    
     3    1  128 1    
     4    1  129 1    
     5    2    3 2    
     6    2    4 am   BACKBONE|DICT|INTERRES
     7    4    5 1    
     8    4  130 1    
     9    5    6 1    
    10    5   65 1    
    11    5  131 1    
    12    6    7 1    
    13    6  132 1    
    14    6  133 1    
    15    7    8 1    
    16    8    9 1    
    17    8  134 1    
    18    8  135 1    
    19    9   10 ar   
    20    9   14 ar   
    21   10   11 ar   
    22   10  136 1    
    23   11   12 ar   
    24   11  126 1    
    25   12   13 ar   
    26   12  137 1    
    27   13   14 ar   
    28   13   15 1    
    29   14  138 1    
    30   15   16 1    
    31   15  139 1    
    32   15  140 1    
    33   16   17 1    
    34   17   18 1    
    35   17  141 1    
    36   17  142 1    
    37   18   19 1    
    38   18   67 1    
    39   18  143 1    
    40   19   20 am   BACKBONE|DICT|INTERRES
    41   19  144 1    
    42   20   21 2    
    43   20   22 1    
    44   22   23 1    
    45   22   24 1    
    46   22  145 1    
    47   23  146 1    
    48   23  147 1    
    49   23  148 1    
    50   24   25 am   BACKBONE|DICT|INTERRES
    51   24  149 1    
    52   25   26 2    
    53   25   27 1    
    54   27   28 1    
    55   27   29 1    
    56   27  150 1    
    57   28  151 1    
    58   28  152 1    
    59   28  153 1    
    60   29   30 am   BACKBONE|DICT|INTERRES
    61   29  154 1    
    62   30   31 2    
    63   30   32 1    
    64   32   33 1    
    65   32   34 1    
    66   32  155 1    
    67   33  156 1    
    68   33  157 1    
    69   33  158 1    
    70   34   35 am   BACKBONE|DICT|INTERRES
    71   34  159 1    
    72   35   36 2    
    73   35   37 1    
    74   37   38 1    
    75   37   39 1    
    76   37  160 1    
    77   38  161 1    
    78   38  162 1    
    79   38  163 1    
    80   39   40 am   BACKBONE|DICT|INTERRES
    81   39  164 1    
    82   40   41 2    
    83   40   42 1    
    84   42   43 1    
    85   42   44 1    
    86   42  165 1    
    87   43  166 1    
    88   43  167 1    
    89   43  168 1    
    90   44   45 am   BACKBONE|DICT|INTERRES
    91   44  169 1    
    92   45   46 2    
    93   45   47 1    
    94   47   48 1    
    95   47   49 1    
    96   47  170 1    
    97   48  171 1    
    98   48  172 1    
    99   48  173 1    
   100   49   50 am   BACKBONE|DICT|INTERRES
   101   49  174 1    
   102   50   51 2    
   103   50   52 1    
   104   52   53 1    
   105   52   54 1    
   106   52  175 1    
   107   53  176 1    
   108   53  177 1    
   109   53  178 1    
   110   54   55 am   BACKBONE|DICT|INTERRES
   111   54  179 1    
   112   55   56 2    
   113   55   57 1    
   114   57   58 1    
   115   57   59 1    
   116   57  180 1    
   117   58  181 1    
   118   58  182 1    
   119   58  183 1    
   120   59   60 am   BACKBONE|DICT|INTERRES
   121   59  184 1    
   122   60   61 2    
   123   60   62 1    
   124   62   63 1    
   125   62   64 1    
   126   62  185 1    
   127   63  186 1    
   128   63  187 1    
   129   63  188 1    
   130   64   65 am   BACKBONE|DICT|INTERRES
   131   64  189 1    
   132   65   66 2    
   133   67   68 2    
   134   67   69 am   BACKBONE|DICT|INTERRES
   135   69   70 1    
   136   69  190 1    
   137   70   71 1    
   138   70   72 1    
   139   70  191 1    
   140   71  192 1    
   141   71  193 1    
   142   71  194 1    
   143   72   73 2    
   144   72   74 am   BACKBONE|DICT|INTERRES
   145   74   75 1    
   146   74  195 1    
   147   75   76 1    
   148   75   77 1    
   149   75  196 1    
   150   76  197 1    
   151   76  198 1    
   152   76  199 1    
   153   77   78 2    
   154   77   79 am   BACKBONE|DICT|INTERRES
   155   79   80 1    
   156   79  200 1    
   157   80   81 1    
   158   80   82 1    
   159   80  201 1    
   160   81  202 1    
   161   81  203 1    
   162   81  204 1    
   163   82   83 2    
   164   82   84 am   BACKBONE|DICT|INTERRES
   165   84   85 1    
   166   84  205 1    
   167   85   86 1    
   168   85   87 1    
   169   85  206 1    
   170   86  207 1    
   171   86  208 1    
   172   86  209 1    
   173   87   88 2    
   174   87   89 am   BACKBONE|DICT|INTERRES
   175   89   90 1    
   176   89  210 1    
   177   90   91 1    
   178   90   92 1    
   179   90  211 1    
   180   91  212 1    
   181   91  213 1    
   182   91  214 1    
   183   92   93 2    
   184   92   94 am   BACKBONE|DICT|INTERRES
   185   94   95 1    
   186   94  215 1    
   187   95   96 1    
   188   95   97 1    
   189   95  216 1    
   190   96  217 1    
   191   96  218 1    
   192   96  219 1    
   193   97   98 2    
   194   97   99 am   BACKBONE|DICT|INTERRES
   195   99  100 1    
   196   99  220 1    
   197  100  101 1    
   198  100  102 1    
   199  100  221 1    
   200  101  222 1    
   201  101  223 1    
   202  101  224 1    
   203  102  103 2    
   204  102  104 am   BACKBONE|DICT|INTERRES
   205  104  105 1    
   206  104  225 1    
   207  105  106 1    
   208  105  107 1    
   209  105  226 1    
   210  106  227 1    
   211  106  228 1    
   212  106  229 1    
   213  107  108 2    
   214  107  109 am   BACKBONE|DICT|INTERRES
   215  109  110 1    
   216  109  230 1    
   217  110  111 1    
   218  110  112 1    
   219  110  231 1    
   220  111  232 1    
   221  111  233 1    
   222  111  234 1    
   223  112  113 2    
   224  112  114 am   BACKBONE|DICT|INTERRES
   225  114  115 1    
   226  114  235 1    
   227  115  116 1    
   228  115  117 1    
   229  115  236 1    
   230  116  237 1    
   231  116  238 1    
   232  116  239 1    
   233  117  118 2    
   234  117  119 am   BACKBONE|DICT|INTERRES
   235  119  120 1    
   236  119  240 1    
   237  120  121 1    
   238  120  124 1    
   239  120  241 1    
   240  121  122 am   BACKBONE|DICT|INTERRES
   241  121  123 2    
   242  122  242 1    
   243  122  243 1    
   244  124  125 1    
   245  124  244 1    
   246  124  245 1    
   247  125  126 1    
   248  126  246 1    
   249  126  247 1    
@<TRIPOS>SUBSTRUCTURE
     1 UNK         1 GROUP             0       ****    0 ROOT    
