@<TRIPOS>MOLECULE
3R540
247   249    1
SMALL
USER_CHARGES


@<TRIPOS>ATOM
      1 CA          5.5732  -12.9019  -47.3059 C.3       0 UNK        -0.1800 
      2 C           4.3400  -13.7925  -47.3253 C.2       0 UNK         0.5000 
      3 O           4.0242  -14.4276  -46.3205 O.2       0 UNK        -0.5000 
      4 N           3.6239  -13.8314  -48.4565 N.am      1 UNK        -0.5000 
      5 CA          2.4360  -14.6712  -48.6683 C.3       1 UNK         0.1400 
      6 C6          2.0572  -14.7771  -50.1669 C.3       23 UNK        -0.0398 
      7 S7          3.2740  -15.7357  -51.1384 S.3       23 UNK        -0.2404 
      8 C8          3.0351  -17.4531  -50.5569 C.3       23 UNK        -0.0205 
      9 C9          1.7498  -18.0928  -51.0653 C.ar      23 UNK        -0.0193 
     10 C10         1.7829  -18.9697  -52.1537 C.ar      23 UNK        -0.1150 
     11 C11         0.6123  -19.5850  -52.6079 C.ar      23 UNK        -0.0193 
     12 C12        -0.6045  -19.2977  -51.9836 C.ar      23 UNK        -0.1150 
     13 C13        -0.6507  -18.4244  -50.8939 C.ar      23 UNK        -0.0193 
     14 C14         0.5318  -17.8447  -50.4263 C.ar      23 UNK        -0.1150 
     15 C15        -1.9752  -18.1115  -50.2134 C.3       23 UNK        -0.0205 
     16 S16        -2.6055  -19.5288  -49.2661 S.3       23 UNK        -0.2404 
     17 C17        -1.2737  -19.7458  -48.0413 C.3       23 UNK        -0.0398 
     18 CA         -0.4685  -21.0531  -48.2647 C.3       11 UNK         0.1400 
     19 N           0.9722  -20.8220  -48.1284 N.am      11 UNK        -0.5000 
     20 C           1.9511  -21.7344  -48.2219 C.2       10 UNK         0.5000 
     21 O           1.7662  -22.9084  -48.5431 O.2       10 UNK        -0.5000 
     22 CA          3.3677  -21.2688  -47.8191 C.3       10 UNK         0.1400 
     23 CB          4.2209  -21.0243  -49.0726 C.3       10 UNK        -0.1800 
     24 N           3.3907  -20.0599  -46.9817 N.am      10 UNK        -0.5000 
     25 C           2.7828  -19.9187  -45.7935 C.2       9 UNK         0.5000 
     26 O           2.1541  -20.8245  -45.2401 O.2       9 UNK        -0.5000 
     27 CA          2.8138  -18.5029  -45.1889 C.3       9 UNK         0.1400 
     28 CB          2.0313  -17.5268  -46.0810 C.3       9 UNK        -0.1800 
     29 N           2.2210  -18.4736  -43.8568 N.am      9 UNK        -0.5000 
     30 C           2.8502  -18.8126  -42.7257 C.2       8 UNK         0.5000 
     31 O           4.0400  -19.1293  -42.6782 O.2       8 UNK        -0.5000 
     32 CA          2.0219  -18.7884  -41.4268 C.3       8 UNK         0.1400 
     33 CB          2.5688  -17.7366  -40.4478 C.3       8 UNK        -0.1800 
     34 N           0.6043  -18.5134  -41.6835 N.am      8 UNK        -0.5000 
     35 C          -0.3589  -19.4453  -41.6920 C.2       7 UNK         0.5000 
     36 O          -0.1635  -20.6299  -41.4193 O.2       7 UNK        -0.5000 
     37 CA         -1.7856  -18.9953  -42.0618 C.3       7 UNK         0.1400 
     38 CB         -2.6254  -18.7878  -40.7934 C.3       7 UNK        -0.1800 
     39 N          -1.8297  -17.7836  -42.8846 N.am      7 UNK        -0.5000 
     40 C          -1.4885  -17.7462  -44.1812 C.2       6 UNK         0.5000 
     41 O          -1.0599  -18.7314  -44.7812 O.2       6 UNK        -0.5000 
     42 CA         -1.5894  -16.4044  -44.9390 C.3       6 UNK         0.1400 
     43 CB         -2.3805  -16.5377  -46.2551 C.3       6 UNK        -0.1800 
     44 N          -2.0767  -15.2807  -44.1354 N.am      6 UNK        -0.5000 
     45 C          -3.3120  -15.0343  -43.6795 C.2       5 UNK         0.5000 
     46 O          -4.2941  -15.7400  -43.9102 O.2       5 UNK        -0.5000 
     47 CA         -3.4288  -13.7874  -42.7757 C.3       5 UNK         0.1400 
     48 CB         -4.7606  -13.7151  -41.9993 C.3       5 UNK        -0.1800 
     49 N          -2.2748  -13.6608  -41.8736 N.am      5 UNK        -0.5000 
     50 C          -1.8987  -14.5401  -40.9322 C.2       4 UNK         0.5000 
     51 O          -2.5469  -15.5455  -40.6445 O.2       4 UNK        -0.5000 
     52 CA         -0.5427  -14.2713  -40.2462 C.3       4 UNK         0.1400 
     53 CB         -0.0699  -15.4532  -39.3754 C.3       4 UNK        -0.1800 
     54 N           0.5044  -13.8762  -41.1974 N.am      4 UNK        -0.5000 
     55 C           0.9546  -14.5732  -42.2516 C.2       3 UNK         0.5000 
     56 O           0.5655  -15.7017  -42.5600 O.2       3 UNK        -0.5000 
     57 CA          2.0126  -13.8678  -43.1223 C.3       3 UNK         0.1400 
     58 CB          3.3061  -14.6953  -43.1677 C.3       3 UNK        -0.1800 
     59 N           1.5647  -13.5737  -44.4910 N.am      3 UNK        -0.5000 
     60 C           0.4330  -12.9311  -44.8297 C.2       2 UNK         0.5000 
     61 O          -0.4261  -12.5963  -44.0128 O.2       2 UNK        -0.5000 
     62 CA          0.2044  -12.5680  -46.3121 C.3       2 UNK         0.1400 
     63 CB          0.1280  -11.0420  -46.4839 C.3       2 UNK        -0.1800 
     64 N           1.2402  -13.0787  -47.2087 N.am      2 UNK        -0.5000 
     65 C           1.2170  -14.2778  -47.8032 C.2       1 UNK         0.5000 
     66 O           0.2924  -15.0798  -47.6758 O.2       1 UNK        -0.5000 
     67 C          -0.9985  -22.1640  -47.3328 C.2       11 UNK         0.5000 
     68 O          -1.9675  -22.8341  -47.6884 O.2       11 UNK        -0.5000 
     69 N          -0.3490  -22.3666  -46.1747 N.am      12 UNK        -0.5000 
     70 CA         -0.6654  -23.4032  -45.1890 C.3       12 UNK         0.1400 
     71 CB          0.2953  -23.2723  -43.9998 C.3       12 UNK        -0.1800 
     72 C          -0.6359  -24.8406  -45.7484 C.2       12 UNK         0.5000 
     73 O          -1.3668  -25.6933  -45.2439 O.2       12 UNK        -0.5000 
     74 N           0.1446  -25.0762  -46.8151 N.am      13 UNK        -0.5000 
     75 CA          0.1680  -26.3339  -47.5697 C.3       13 UNK         0.1400 
     76 CB          1.3453  -26.3052  -48.5553 C.3       13 UNK        -0.1800 
     77 C          -1.1524  -26.6270  -48.3158 C.2       13 UNK         0.5000 
     78 O          -1.4410  -27.7897  -48.5997 O.2       13 UNK        -0.5000 
     79 N          -1.9353  -25.5765  -48.5923 N.am      14 UNK        -0.5000 
     80 CA         -3.2766  -25.6210  -49.1717 C.3       14 UNK         0.1400 
     81 CB         -3.2971  -24.7229  -50.4213 C.3       14 UNK        -0.1800 
     82 C          -4.3321  -25.1828  -48.1344 C.2       14 UNK         0.5000 
     83 O          -5.3981  -24.6997  -48.5170 O.2       14 UNK        -0.5000 
     84 N          -4.0075  -25.3210  -46.8375 N.am      15 UNK        -0.5000 
     85 CA         -4.8233  -24.9736  -45.6656 C.3       15 UNK         0.1400 
     86 CB         -6.0584  -25.8943  -45.5787 C.3       15 UNK        -0.1800 
     87 C          -5.1962  -23.4763  -45.5707 C.2       15 UNK         0.5000 
     88 O          -6.1786  -23.1336  -44.9112 O.2       15 UNK        -0.5000 
     89 N          -4.4079  -22.6153  -46.2318 N.am      16 UNK        -0.5000 
     90 CA         -4.5900  -21.1695  -46.3827 C.3       16 UNK         0.1400 
     91 CB         -4.3628  -20.4401  -45.0429 C.3       16 UNK        -0.1800 
     92 C          -5.9104  -20.7901  -47.0868 C.2       16 UNK         0.5000 
     93 O          -6.5137  -19.7695  -46.7520 O.2       16 UNK        -0.5000 
     94 N          -6.3434  -21.6325  -48.0382 N.am      17 UNK        -0.5000 
     95 CA         -7.6057  -21.4992  -48.7644 C.3       17 UNK         0.1400 
     96 CB         -7.8549  -22.7640  -49.6015 C.3       17 UNK        -0.1800 
     97 C          -7.6855  -20.2347  -49.6384 C.2       17 UNK         0.5000 
     98 O          -8.6208  -19.4494  -49.4752 O.2       17 UNK        -0.5000 
     99 N          -6.7149  -20.0607  -50.5446 N.am      18 UNK        -0.5000 
    100 CA        -6.6472  -18.9625  -51.5062 C.3       18 UNK         0.1400 
    101 CB        -7.7979  -19.0670  -52.5322 C.3       18 UNK        -0.1800 
    102 C         -5.3037  -18.9997  -52.2457 C.2       18 UNK         0.5000 
    103 O         -4.6554  -20.0474  -52.3026 O.2       18 UNK        -0.5000 
    104 N         -4.9544  -17.8689  -52.8754 N.am      19 UNK        -0.5000 
    105 CA        -3.8049  -17.7187  -53.7766 C.3       19 UNK         0.1400 
    106 CB        -3.6140  -16.2300  -54.1013 C.3       19 UNK        -0.1800 
    107 C         -3.9187  -18.5501  -55.0709 C.2       19 UNK         0.5000 
    108 O         -2.9022  -18.8178  -55.7086 O.2       19 UNK        -0.5000 
    109 N         -5.1418  -18.9903  -55.4044 N.am      20 UNK        -0.5000 
    110 CA        -5.4759  -19.8998  -56.5053 C.3       20 UNK         0.1400 
    111 CB        -7.0060  -20.0174  -56.5913 C.3       20 UNK        -0.1800 
    112 C         -4.8289  -21.2996  -56.4016 C.2       20 UNK         0.5000 
    113 O         -4.8573  -22.0494  -57.3781 O.2       20 UNK        -0.5000 
    114 N         -4.2377  -21.6225  -55.2414 N.am      21 UNK        -0.5000 
    115 CA        -3.3894  -22.7924  -55.0104 C.3       21 UNK         0.1400 
    116 CB        -3.0713  -22.8724  -53.5091 C.3       21 UNK        -0.1800 
    117 C         -2.0843  -22.7984  -55.8397 C.2       21 UNK         0.5000 
    118 O         -1.4676  -23.8563  -55.9736 O.2       21 UNK        -0.5000 
    119 N         -1.6858  -21.6423  -56.3832 N.am      22 UNK        -0.5000 
    120 CA        -0.5284  -21.4663  -57.2683 C.3       22 UNK         0.1400 
    121 C         -0.8109  -20.4350  -58.3996 C.2       22 UNK         0.5000 
    122 N          0.1628  -20.1477  -59.2542 N.am      22 UNK        -0.7600 
    123 O         -1.9149  -19.9143  -58.5453 O.2       22 UNK        -0.5000 
    124 C124        0.7828  -21.2069  -56.4755 C.3       23 UNK        -0.0398 
    125 S125        0.7175  -19.7537  -55.3677 S.3       23 UNK        -0.2404 
    126 C126        0.6702  -20.5831  -53.7515 C.3       23 UNK        -0.0205 
    127 H127        5.7189  -12.3904  -48.2576 H         1 UNK         0.0600 
    128 H128        6.4617  -13.4986  -47.1002 H         1 UNK         0.0600 
    129 H129        5.4787  -12.1483  -46.5242 H         1 UNK         0.0600 
    130 H130        3.9294  -13.2935  -49.2554 H         1 UNK         0.3000 
    131 H131        2.7052  -15.6651  -48.3219 H         1 UNK         0.0600 
    132 H132        1.9880  -13.7790  -50.6023 H         1 UNK         0.0800 
    133 H133        1.0706  -15.2131  -50.3143 H         1 UNK         0.0800 
    134 H134        3.0694  -17.5047  -49.4702 H         1 UNK         0.0800 
    135 H135        3.8910  -18.0371  -50.8985 H         1 UNK         0.0800 
    136 H136        2.7225  -19.1854  -52.6430 H         1 UNK         0.1150 
    137 H137       -1.5142  -19.7678  -52.3304 H         1 UNK         0.1150 
    138 H138        0.4997  -17.1977  -49.5618 H         1 UNK         0.1150 
    139 H139       -1.8775  -17.2505  -49.5500 H         1 UNK         0.0800 
    140 H140       -2.7142  -17.8301  -50.9617 H         1 UNK         0.0800 
    141 H141       -1.7192  -19.7003  -47.0471 H         1 UNK         0.0800 
    142 H142       -0.6186  -18.8763  -48.0799 H         1 UNK         0.0800 
    143 H143       -0.6140  -21.4002  -49.2900 H         1 UNK         0.0600 
    144 H144        1.2437  -19.8915  -47.8543 H         1 UNK         0.3000 
    145 H145        3.8224  -22.0771  -47.2431 H         1 UNK         0.0600 
    146 H146        5.2438  -20.7532  -48.8107 H         1 UNK         0.0600 
    147 H147        4.2727  -21.9221  -49.6901 H         1 UNK         0.0600 
    148 H148        3.8069  -20.2276  -49.6907 H         1 UNK         0.0600 
    149 H149        3.8974  -19.2735  -47.3609 H         1 UNK         0.3000 
    150 H150        3.8529  -18.1718  -45.1306 H         1 UNK         0.0600 
    151 H151        2.4759  -17.4681  -47.0718 H         1 UNK         0.0600 
    152 H152        2.0314  -16.5192  -45.6652 H         1 UNK         0.0600 
    153 H153        0.9943  -17.8350  -46.2118 H         1 UNK         0.0600 
    154 H154        1.2264  -18.3070  -43.8122 H         1 UNK         0.3000 
    155 H155        2.1410  -19.7675  -40.9588 H         1 UNK         0.0600 
    156 H156        2.4923  -16.7283  -40.8524 H         1 UNK         0.0600 
    157 H157        3.6200  -17.9191  -40.2217 H         1 UNK         0.0600 
    158 H158        2.0278  -17.7622  -39.5021 H         1 UNK         0.0600 
    159 H159        0.3733  -17.5555  -41.9352 H         1 UNK         0.3000 
    160 H160       -2.2437  -19.8045  -42.6338 H         1 UNK         0.0600 
    161 H161       -2.1626  -18.0677  -40.1183 H         1 UNK         0.0600 
    162 H162       -2.7335  -19.7232  -40.2433 H         1 UNK         0.0600 
    163 H163       -3.6278  -18.4321  -41.0325 H         1 UNK         0.0600 
    164 H164       -2.1396  -16.9343  -42.4296 H         1 UNK         0.3000 
    165 H165       -0.5655  -16.1374  -45.2030 H         1 UNK         0.0600 
    166 H166       -3.3771  -16.9496  -46.0949 H         1 UNK         0.0600 
    167 H167       -2.4861  -15.5739  -46.7531 H         1 UNK         0.0600 
    168 H168       -1.8631  -17.1965  -46.9495 H         1 UNK         0.0600 
    169 H169       -1.3542  -14.6406  -43.8302 H         1 UNK         0.3000 
    170 H170       -3.3906  -12.9250  -43.4429 H         1 UNK         0.0600 
    171 H171       -5.6074  -13.6678  -42.6848 H         1 UNK         0.0600 
    172 H172       -4.9093  -14.5857  -41.3600 H         1 UNK         0.0600 
    173 H173       -4.8024  -12.8257  -41.3708 H         1 UNK         0.0600 
    174 H174       -1.6378  -12.9056  -42.0973 H         1 UNK         0.3000 
    175 H175       -0.6985  -13.4174  -39.5854 H         1 UNK         0.0600 
    176 H176        0.0070  -16.3731  -39.9531 H         1 UNK         0.0600 
    177 H177        0.9034  -15.2531  -38.9277 H         1 UNK         0.0600 
    178 H178       -0.7704  -15.6412  -38.5610 H         1 UNK         0.0600 
    179 H179        0.8802  -12.9493  -41.0526 H         1 UNK         0.3000 
    180 H180        2.2538  -12.9093  -42.6588 H         1 UNK         0.0600 
    181 H181        3.1667  -15.6334  -43.7052 H         1 UNK         0.0600 
    182 H182        3.6518  -14.9412  -42.1631 H         1 UNK         0.0600 
    183 H183        4.1096  -14.1442  -43.6559 H         1 UNK         0.0600 
    184 H184        2.2105  -13.8333  -45.2269 H         1 UNK         0.3000 
    185 H185       -0.7629  -12.9869  -46.5983 H         1 UNK         0.0600 
    186 H186        1.0612  -10.5570  -46.1947 H         1 UNK         0.0600 
    187 H187       -0.0844  -10.7722  -47.5186 H         1 UNK         0.0600 
    188 H188       -0.6673  -10.6156  -45.8710 H         1 UNK         0.0600 
    189 H189        2.0452  -12.4874  -47.3570 H         1 UNK         0.3000 
    190 H190        0.4435  -21.7730  -45.9499 H         1 UNK         0.3000 
    191 H191       -1.6794  -23.2124  -44.8321 H         1 UNK         0.0600 
    192 H192        0.0543  -23.9932  -43.2176 H         1 UNK         0.0600 
    193 H193        0.2371  -22.2786  -43.5558 H         1 UNK         0.0600 
    194 H194        1.3302  -23.4422  -44.2996 H         1 UNK         0.0600 
    195 H195        0.6974  -24.3157  -47.1934 H         1 UNK         0.3000 
    196 H196        0.3338  -27.1485  -46.8616 H         1 UNK         0.0600 
    197 H197        1.2265  -25.5163  -49.2991 H         1 UNK         0.0600 
    198 H198        2.2906  -26.1390  -48.0384 H         1 UNK         0.0600 
    199 H199        1.4294  -27.2513  -49.0915 H         1 UNK         0.0600 
    200 H200       -1.6378  -24.6535  -48.2909 H         1 UNK         0.3000 
    201 H201       -3.5307  -26.6381  -49.4753 H         1 UNK         0.0600 
    202 H202       -3.1109  -23.6778  -50.1695 H         1 UNK         0.0600 
    203 H203       -4.2613  -24.7730  -50.9287 H         1 UNK         0.0600 
    204 H204       -2.5383  -25.0345  -51.1388 H         1 UNK         0.0600 
    205 H205       -3.0934  -25.6984  -46.6199 H         1 UNK         0.3000 
    206 H206       -4.1989  -25.1792  -44.7951 H         1 UNK         0.0600 
    207 H207       -5.7722  -26.9444  -45.6359 H         1 UNK         0.0600 
    208 H208       -6.5866  -25.7558  -44.6347 H         1 UNK         0.0600 
    209 H209       -6.7682  -25.6951  -46.3821 H         1 UNK         0.0600 
    210 H210       -3.6249  -22.9936  -46.7577 H         1 UNK         0.3000 
    211 H211       -3.8030  -20.8468  -47.0580 H         1 UNK         0.0600 
    212 H212       -4.3615  -19.3580  -45.1802 H         1 UNK         0.0600 
    213 H213       -3.3984  -20.7091  -44.6123 H         1 UNK         0.0600 
    214 H214       -5.1373  -20.6782  -44.3137 H         1 UNK         0.0600 
    215 H215       -5.8085  -22.4726  -48.2218 H         1 UNK         0.3000 
    216 H216       -8.4033  -21.4326  -48.0214 H         1 UNK         0.0600 
    217 H217       -7.0449  -22.9491  -50.3081 H         1 UNK         0.0600 
    218 H218       -8.7797  -22.6804  -50.1738 H         1 UNK         0.0600 
    219 H219       -7.9476  -23.6435  -48.9639 H         1 UNK         0.0600 
    220 H220       -5.9533  -20.7248  -50.6129 H         1 UNK         0.3000 
    221 H221       -6.7179  -18.0177  -50.9633 H         1 UNK         0.0600 
    222 H222       -8.7746  -18.9654  -52.0602 H         1 UNK         0.0600 
    223 H223       -7.7800  -20.0242  -53.0551 H         1 UNK         0.0600 
    224 H224       -7.7341  -18.2804  -53.2849 H         1 UNK         0.0600 
    225 H225       -5.5484  -17.0573  -52.7801 H         1 UNK         0.3000 
    226 H226       -2.9136  -18.0688  -53.2562 H         1 UNK         0.0600 
    227 H227       -4.4831  -15.8147  -54.6130 H         1 UNK         0.0600 
    228 H228       -3.4447  -15.6476  -53.1954 H         1 UNK         0.0600 
    229 H229       -2.7486  -16.0796  -54.7482 H         1 UNK         0.0600 
    230 H230       -5.9109  -18.7115  -54.8150 H         1 UNK         0.3000 
    231 H231       -5.1106  -19.4473  -57.4294 H         1 UNK         0.0600 
    232 H232       -7.4267  -20.4517  -55.6835 H         1 UNK         0.0600 
    233 H233       -7.3044  -20.6517  -57.4270 H         1 UNK         0.0600 
    234 H234       -7.4700  -19.0429  -56.7450 H         1 UNK         0.0600 
    235 H235       -4.2929  -20.9606  -54.4785 H         1 UNK         0.3000 
    236 H236       -3.9579  -23.6813  -55.2908 H         1 UNK         0.0600 
    237 H237       -3.9820  -22.9686  -52.9176 H         1 UNK         0.0600 
    238 H238       -2.4448  -23.7367  -53.2859 H         1 UNK         0.0600 
    239 H239       -2.5428  -21.9840  -53.1617 H         1 UNK         0.0600 
    240 H240       -2.2412  -20.8035  -56.2486 H         1 UNK         0.3000 
    241 H241       -0.3945  -22.4041  -57.8107 H         1 UNK         0.0600 
    242 H242       -0.0217  -19.4899  -59.9958 H         1 UNK         0.3800 
    243 H243        1.0754  -20.5704  -59.1879 H         1 UNK         0.3800 
    244 H244        1.6296  -21.0829  -57.1509 H         1 UNK         0.0800 
    245 H245        1.0222  -22.0949  -55.8891 H         1 UNK         0.0800 
    246 H246        1.5545  -21.2123  -53.6393 H         1 UNK         0.0800 
    247 H247       -0.1909  -21.2516  -53.7146 H         1 UNK         0.0800 
@<TRIPOS>BOND
     1    1    2 1    
     2    1  127 1    
     3    1  128 1    
     4    1  129 1    
     5    2    3 2    
     6    2    4 am   BACKBONE|DICT|INTERRES
     7    4    5 1    
     8    4  130 1    
     9    5    6 1    
    10    5   65 1    
    11    5  131 1    
    12    6    7 1    
    13    6  132 1    
    14    6  133 1    
    15    7    8 1    
    16    8    9 1    
    17    8  134 1    
    18    8  135 1    
    19    9   10 ar   
    20    9   14 ar   
    21   10   11 ar   
    22   10  136 1    
    23   11   12 ar   
    24   11  126 1    
    25   12   13 ar   
    26   12  137 1    
    27   13   14 ar   
    28   13   15 1    
    29   14  138 1    
    30   15   16 1    
    31   15  139 1    
    32   15  140 1    
    33   16   17 1    
    34   17   18 1    
    35   17  141 1    
    36   17  142 1    
    37   18   19 1    
    38   18   67 1    
    39   18  143 1    
    40   19   20 am   BACKBONE|DICT|INTERRES
    41   19  144 1    
    42   20   21 2    
    43   20   22 1    
    44   22   23 1    
    45   22   24 1    
    46   22  145 1    
    47   23  146 1    
    48   23  147 1    
    49   23  148 1    
    50   24   25 am   BACKBONE|DICT|INTERRES
    51   24  149 1    
    52   25   26 2    
    53   25   27 1    
    54   27   28 1    
    55   27   29 1    
    56   27  150 1    
    57   28  151 1    
    58   28  152 1    
    59   28  153 1    
    60   29   30 am   BACKBONE|DICT|INTERRES
    61   29  154 1    
    62   30   31 2    
    63   30   32 1    
    64   32   33 1    
    65   32   34 1    
    66   32  155 1    
    67   33  156 1    
    68   33  157 1    
    69   33  158 1    
    70   34   35 am   BACKBONE|DICT|INTERRES
    71   34  159 1    
    72   35   36 2    
    73   35   37 1    
    74   37   38 1    
    75   37   39 1    
    76   37  160 1    
    77   38  161 1    
    78   38  162 1    
    79   38  163 1    
    80   39   40 am   BACKBONE|DICT|INTERRES
    81   39  164 1    
    82   40   41 2    
    83   40   42 1    
    84   42   43 1    
    85   42   44 1    
    86   42  165 1    
    87   43  166 1    
    88   43  167 1    
    89   43  168 1    
    90   44   45 am   BACKBONE|DICT|INTERRES
    91   44  169 1    
    92   45   46 2    
    93   45   47 1    
    94   47   48 1    
    95   47   49 1    
    96   47  170 1    
    97   48  171 1    
    98   48  172 1    
    99   48  173 1    
   100   49   50 am   BACKBONE|DICT|INTERRES
   101   49  174 1    
   102   50   51 2    
   103   50   52 1    
   104   52   53 1    
   105   52   54 1    
   106   52  175 1    
   107   53  176 1    
   108   53  177 1    
   109   53  178 1    
   110   54   55 am   BACKBONE|DICT|INTERRES
   111   54  179 1    
   112   55   56 2    
   113   55   57 1    
   114   57   58 1    
   115   57   59 1    
   116   57  180 1    
   117   58  181 1    
   118   58  182 1    
   119   58  183 1    
   120   59   60 am   BACKBONE|DICT|INTERRES
   121   59  184 1    
   122   60   61 2    
   123   60   62 1    
   124   62   63 1    
   125   62   64 1    
   126   62  185 1    
   127   63  186 1    
   128   63  187 1    
   129   63  188 1    
   130   64   65 am   BACKBONE|DICT|INTERRES
   131   64  189 1    
   132   65   66 2    
   133   67   68 2    
   134   67   69 am   BACKBONE|DICT|INTERRES
   135   69   70 1    
   136   69  190 1    
   137   70   71 1    
   138   70   72 1    
   139   70  191 1    
   140   71  192 1    
   141   71  193 1    
   142   71  194 1    
   143   72   73 2    
   144   72   74 am   BACKBONE|DICT|INTERRES
   145   74   75 1    
   146   74  195 1    
   147   75   76 1    
   148   75   77 1    
   149   75  196 1    
   150   76  197 1    
   151   76  198 1    
   152   76  199 1    
   153   77   78 2    
   154   77   79 am   BACKBONE|DICT|INTERRES
   155   79   80 1    
   156   79  200 1    
   157   80   81 1    
   158   80   82 1    
   159   80  201 1    
   160   81  202 1    
   161   81  203 1    
   162   81  204 1    
   163   82   83 2    
   164   82   84 am   BACKBONE|DICT|INTERRES
   165   84   85 1    
   166   84  205 1    
   167   85   86 1    
   168   85   87 1    
   169   85  206 1    
   170   86  207 1    
   171   86  208 1    
   172   86  209 1    
   173   87   88 2    
   174   87   89 am   BACKBONE|DICT|INTERRES
   175   89   90 1    
   176   89  210 1    
   177   90   91 1    
   178   90   92 1    
   179   90  211 1    
   180   91  212 1    
   181   91  213 1    
   182   91  214 1    
   183   92   93 2    
   184   92   94 am   BACKBONE|DICT|INTERRES
   185   94   95 1    
   186   94  215 1    
   187   95   96 1    
   188   95   97 1    
   189   95  216 1    
   190   96  217 1    
   191   96  218 1    
   192   96  219 1    
   193   97   98 2    
   194   97   99 am   BACKBONE|DICT|INTERRES
   195   99  100 1    
   196   99  220 1    
   197  100  101 1    
   198  100  102 1    
   199  100  221 1    
   200  101  222 1    
   201  101  223 1    
   202  101  224 1    
   203  102  103 2    
   204  102  104 am   BACKBONE|DICT|INTERRES
   205  104  105 1    
   206  104  225 1    
   207  105  106 1    
   208  105  107 1    
   209  105  226 1    
   210  106  227 1    
   211  106  228 1    
   212  106  229 1    
   213  107  108 2    
   214  107  109 am   BACKBONE|DICT|INTERRES
   215  109  110 1    
   216  109  230 1    
   217  110  111 1    
   218  110  112 1    
   219  110  231 1    
   220  111  232 1    
   221  111  233 1    
   222  111  234 1    
   223  112  113 2    
   224  112  114 am   BACKBONE|DICT|INTERRES
   225  114  115 1    
   226  114  235 1    
   227  115  116 1    
   228  115  117 1    
   229  115  236 1    
   230  116  237 1    
   231  116  238 1    
   232  116  239 1    
   233  117  118 2    
   234  117  119 am   BACKBONE|DICT|INTERRES
   235  119  120 1    
   236  119  240 1    
   237  120  121 1    
   238  120  124 1    
   239  120  241 1    
   240  121  122 am   BACKBONE|DICT|INTERRES
   241  121  123 2    
   242  122  242 1    
   243  122  243 1    
   244  124  125 1    
   245  124  244 1    
   246  124  245 1    
   247  125  126 1    
   248  126  246 1    
   249  126  247 1    
@<TRIPOS>SUBSTRUCTURE
     1 UNK         1 GROUP             0       ****    0 ROOT    
