@<TRIPOS>MOLECULE
3R540
247   249    1
SMALL
USER_CHARGES


@<TRIPOS>ATOM
      1 CA         -6.4417  -13.9880  -51.1797 C.3       0 UNK        -0.1800 
      2 C          -5.3264  -14.0737  -50.1474 C.2       0 UNK         0.5000 
      3 O          -4.1526  -13.9794  -50.5064 O.2       0 UNK        -0.5000 
      4 N          -5.6898  -14.2612  -48.8735 N.am      1 UNK        -0.5000 
      5 CA         -4.7623  -14.3663  -47.7429 C.3       1 UNK         0.1400 
      6 C6         -5.4433  -14.9322  -46.4666 C.3       23 UNK        -0.0398 
      7 S7         -6.4330  -16.4432  -46.7421 S.3       23 UNK        -0.2404 
      8 C8         -5.2208  -17.7655  -46.4286 C.3       23 UNK        -0.0205 
      9 C9         -4.1326  -17.8084  -47.4918 C.ar      23 UNK        -0.0193 
     10 C10        -4.4684  -18.0274  -48.8322 C.ar      23 UNK        -0.1150 
     11 C11        -3.4823  -18.0193  -49.8214 C.ar      23 UNK        -0.0193 
     12 C12        -2.1494  -17.8102  -49.4584 C.ar      23 UNK        -0.1150 
     13 C13        -1.7950  -17.6267  -48.1192 C.ar      23 UNK        -0.0193 
     14 C14        -2.7923  -17.6179  -47.1398 C.ar      23 UNK        -0.1150 
     15 C15        -0.3384  -17.4048  -47.7401 C.3       23 UNK        -0.0205 
     16 S16         0.4319  -18.8507  -46.9378 S.3       23 UNK        -0.2404 
     17 C17         0.2978  -20.1413  -48.2251 C.3       23 UNK        -0.0398 
     18 CA         -0.3777  -21.4470  -47.7428 C.3       11 UNK         0.1400 
     19 N           0.4207  -22.1463  -46.7322 N.am      11 UNK        -0.5000 
     20 C           0.2615  -23.4391  -46.4193 C.2       10 UNK         0.5000 
     21 O          -0.5778  -24.1698  -46.9454 O.2       10 UNK        -0.5000 
     22 CA          1.1557  -23.9938  -45.2964 C.3       10 UNK         0.1400 
     23 CB          2.5525  -24.3374  -45.8344 C.3       10 UNK        -0.1800 
     24 N           1.2877  -23.0921  -44.1497 N.am      10 UNK        -0.5000 
     25 C           0.2789  -22.6395  -43.3959 C.2       9 UNK         0.5000 
     26 O          -0.9032  -22.8790  -43.6384 O.2       9 UNK        -0.5000 
     27 CA          0.6258  -21.7633  -42.1782 C.3       9 UNK         0.1400 
     28 CB          0.9026  -22.6295  -40.9358 C.3       9 UNK        -0.1800 
     29 N           1.6944  -20.7797  -42.3954 N.am      9 UNK        -0.5000 
     30 C           3.0057  -20.9714  -42.6098 C.2       8 UNK         0.5000 
     31 O           3.5222  -22.0839  -42.7209 O.2       8 UNK        -0.5000 
     32 CA          3.8956  -19.7178  -42.7519 C.3       8 UNK         0.1400 
     33 CB          4.3419  -19.5511  -44.2129 C.3       8 UNK        -0.1800 
     34 N           3.2418  -18.4836  -42.3073 N.am      8 UNK        -0.5000 
     35 C           3.0093  -18.1605  -41.0245 C.2       7 UNK         0.5000 
     36 O           3.4235  -18.8263  -40.0750 O.2       7 UNK        -0.5000 
     37 CA          2.1452  -16.9101  -40.7416 C.3       7 UNK         0.1400 
     38 CB          3.0366  -15.7145  -40.3729 C.3       7 UNK        -0.1800 
     39 N           1.2722  -16.5164  -41.8490 N.am      7 UNK        -0.5000 
     40 C           0.3368  -17.2809  -42.4294 C.2       6 UNK         0.5000 
     41 O           0.0161  -18.3961  -42.0195 O.2       6 UNK        -0.5000 
     42 CA         -0.2965  -16.7452  -43.7266 C.3       6 UNK         0.1400 
     43 CB         -1.6835  -16.1504  -43.4438 C.3       6 UNK        -0.1800 
     44 N           0.5226  -15.7535  -44.4328 N.am      6 UNK        -0.5000 
     45 C           1.7656  -15.9423  -44.9041 C.2       5 UNK         0.5000 
     46 O           2.4081  -16.9788  -44.7433 O.2       5 UNK        -0.5000 
     47 CA          2.4156  -14.7552  -45.6314 C.3       5 UNK         0.1400 
     48 CB          1.8713  -14.6076  -47.0604 C.3       5 UNK        -0.1800 
     49 N           2.1961  -13.5120  -44.8973 N.am      5 UNK        -0.5000 
     50 C           2.9759  -13.0779  -43.8983 C.2       4 UNK         0.5000 
     51 O           3.9991  -13.6535  -43.5274 O.2       4 UNK        -0.5000 
     52 CA          2.5360  -11.7850  -43.1852 C.3       4 UNK         0.1400 
     53 CB          3.1850  -10.5591  -43.8454 C.3       4 UNK        -0.1800 
     54 N           1.0835  -11.6042  -43.1647 N.am      4 UNK        -0.5000 
     55 C           0.2340  -12.3685  -42.4654 C.2       3 UNK         0.5000 
     56 O           0.5844  -13.3079  -41.7505 O.2       3 UNK        -0.5000 
     57 CA         -1.2642  -12.0473  -42.6212 C.3       3 UNK         0.1400 
     58 CB         -1.6857  -10.9580  -41.6235 C.3       3 UNK        -0.1800 
     59 N          -1.6652  -11.6445  -43.9754 N.am      3 UNK        -0.5000 
     60 C          -1.5072  -12.3907  -45.0760 C.2       2 UNK         0.5000 
     61 O          -0.8813  -13.4517  -45.1039 O.2       2 UNK        -0.5000 
     62 CA         -2.1614  -11.8927  -46.3667 C.3       2 UNK         0.1400 
     63 CB         -1.1043  -11.3910  -47.3629 C.3       2 UNK        -0.1800 
     64 N          -2.8741  -13.0323  -46.9339 N.am      2 UNK        -0.5000 
     65 C          -4.1168  -13.0008  -47.4229 C.2       1 UNK         0.5000 
     66 O          -4.7689  -11.9630  -47.5678 O.2       1 UNK        -0.5000 
     67 C          -1.8384  -21.2275  -47.2963 C.2       11 UNK         0.5000 
     68 O          -2.7223  -21.1935  -48.1466 O.2       11 UNK        -0.5000 
     69 N          -2.0675  -21.1095  -45.9800 N.am      12 UNK        -0.5000 
     70 CA         -3.3963  -20.9733  -45.3894 C.3       12 UNK         0.1400 
     71 CB         -3.2815  -20.2998  -44.0135 C.3       12 UNK        -0.1800 
     72 C          -4.1217  -22.3267  -45.2996 C.2       12 UNK         0.5000 
     73 O          -5.3344  -22.3799  -45.5027 O.2       12 UNK        -0.5000 
     74 N          -3.3694  -23.4020  -45.0286 N.am      13 UNK        -0.5000 
     75 CA         -3.8565  -24.7813  -45.0352 C.3       13 UNK         0.1400 
     76 CB         -2.7856  -25.7022  -44.4307 C.3       13 UNK        -0.1800 
     77 C          -4.2552  -25.2531  -46.4466 C.2       13 UNK         0.5000 
     78 O          -5.2843  -25.9111  -46.6006 O.2       13 UNK        -0.5000 
     79 N          -3.4523  -24.8765  -47.4492 N.am      14 UNK        -0.5000 
     80 CA         -3.6671  -25.1624  -48.8676 C.3       14 UNK         0.1400 
     81 CB         -2.3521  -25.6999  -49.4606 C.3       14 UNK        -0.1800 
     82 C          -4.1983  -23.9250  -49.6219 C.2       14 UNK         0.5000 
     83 O          -3.8472  -23.7189  -50.7857 O.2       14 UNK        -0.5000 
     84 N          -5.0378  -23.1170  -48.9570 N.am      15 UNK        -0.5000 
     85 CA         -5.6249  -21.8925  -49.5051 C.3       15 UNK         0.1400 
     86 CB         -6.4677  -21.1887  -48.4324 C.3       15 UNK        -0.1800 
     87 C          -6.4608  -22.1680  -50.7661 C.2       15 UNK         0.5000 
     88 O          -7.3835  -22.9844  -50.7214 O.2       15 UNK        -0.5000 
     89 N          -6.0887  -21.4960  -51.8630 N.am      16 UNK        -0.5000 
     90 CA         -6.6376  -21.6187  -53.2177 C.3       16 UNK         0.1400 
     91 CB         -8.1390  -21.2652  -53.2528 C.3       16 UNK        -0.1800 
     92 C          -6.3277  -22.9638  -53.9138 C.2       16 UNK         0.5000 
     93 O          -6.8725  -23.2186  -54.9884 O.2       16 UNK        -0.5000 
     94 N          -5.4243  -23.7743  -53.3434 N.am      17 UNK        -0.5000 
     95 CA         -4.9126  -25.0185  -53.9242 C.3       17 UNK         0.1400 
     96 CB         -5.0353  -26.1527  -52.8905 C.3       17 UNK        -0.1800 
     97 C          -3.4667  -24.8089  -54.4166 C.2       17 UNK         0.5000 
     98 O          -2.6077  -25.6708  -54.2193 O.2       17 UNK        -0.5000 
     99 N          -3.2312  -23.6455  -55.0418 N.am      18 UNK        -0.5000 
    100 CA        -1.9680  -23.1072  -55.5533 C.3       18 UNK         0.1400 
    101 CB        -1.3576  -24.0033  -56.6489 C.3       18 UNK        -0.1800 
    102 C         -0.9574  -22.7828  -54.4403 C.2       18 UNK         0.5000 
    103 O         -0.6394  -21.6110  -54.2408 O.2       18 UNK        -0.5000 
    104 N         -0.4503  -23.8146  -53.7522 N.am      19 UNK        -0.5000 
    105 CA         0.4664  -23.7691  -52.6007 C.3       19 UNK         0.1400 
    106 CB        -0.2644  -23.1596  -51.3886 C.3       19 UNK        -0.1800 
    107 C          1.8142  -23.0482  -52.8446 C.2       19 UNK         0.5000 
    108 O          2.5338  -22.7770  -51.8824 O.2       19 UNK        -0.5000 
    109 N          2.1126  -22.7185  -54.1111 N.am      20 UNK        -0.5000 
    110 CA         3.1650  -21.8058  -54.5722 C.3       20 UNK         0.1400 
    111 CB         4.5636  -22.4110  -54.3290 C.3       20 UNK        -0.1800 
    112 C          3.0151  -20.3740  -54.0013 C.2       20 UNK         0.5000 
    113 O          4.0200  -19.6869  -53.8070 O.2       20 UNK        -0.5000 
    114 N          1.7697  -19.9516  -53.7331 N.am      21 UNK        -0.5000 
    115 CA         1.4499  -18.6814  -53.0770 C.3       21 UNK         0.1400 
    116 CB         1.3861  -18.8980  -51.5552 C.3       21 UNK        -0.1800 
    117 C          0.1386  -18.0591  -53.5828 C.2       21 UNK         0.5000 
    118 O          0.0524  -16.8336  -53.6685 O.2       21 UNK        -0.5000 
    119 N         -0.8570  -18.8949  -53.8993 N.am      22 UNK        -0.5000 
    120 CA        -2.2055  -18.4825  -54.3217 C.3       22 UNK         0.1400 
    121 C         -2.3599  -18.3096  -55.8604 C.2       22 UNK         0.5000 
    122 N         -1.3497  -18.6043  -56.6697 N.am      22 UNK        -0.7600 
    123 O         -3.4147  -17.8918  -56.3297 O.2       22 UNK        -0.5000 
    124 C124       -3.3067  -19.4252  -53.7588 C.3       23 UNK        -0.0398 
    125 S125       -3.1691  -19.7418  -51.9652 S.3       23 UNK        -0.2404 
    126 C126       -3.8494  -18.1960  -51.2863 C.3       23 UNK        -0.0205 
    127 H127       -6.3254  -14.7769  -51.9229 H         1 UNK         0.0600 
    128 H128       -7.4262  -14.0940  -50.7231 H         1 UNK         0.0600 
    129 H129       -6.4059  -13.0266  -51.6920 H         1 UNK         0.0600 
    130 H130       -6.6693  -14.3233  -48.6372 H         1 UNK         0.3000 
    131 H131       -3.9664  -15.0516  -48.0398 H         1 UNK         0.0600 
    132 H132       -6.1195  -14.1894  -46.0389 H         1 UNK         0.0800 
    133 H133       -4.6976  -15.1351  -45.6958 H         1 UNK         0.0800 
    134 H134       -5.7472  -18.7201  -46.4212 H         1 UNK         0.0800 
    135 H135       -4.7954  -17.6406  -45.4316 H         1 UNK         0.0800 
    136 H136       -5.5036  -18.1752  -49.1048 H         1 UNK         0.1150 
    137 H137       -1.3880  -17.7996  -50.2255 H         1 UNK         0.1150 
    138 H138       -2.5207  -17.4643  -46.1058 H         1 UNK         0.1150 
    139 H139        0.2507  -17.1262  -48.6151 H         1 UNK         0.0800 
    140 H140       -0.2876  -16.5592  -47.0559 H         1 UNK         0.0800 
    141 H141        1.3021  -20.3604  -48.5899 H         1 UNK         0.0800 
    142 H142       -0.2422  -19.7528  -49.0874 H         1 UNK         0.0800 
    143 H143       -0.4316  -22.1049  -48.6117 H         1 UNK         0.0600 
    144 H144        1.1138  -21.6004  -46.2415 H         1 UNK         0.3000 
    145 H145        0.6937  -24.9151  -44.9359 H         1 UNK         0.0600 
    146 H146        3.1591  -24.8252  -45.0711 H         1 UNK         0.0600 
    147 H147        2.4881  -25.0198  -46.6830 H         1 UNK         0.0600 
    148 H148        3.0867  -23.4466  -46.1673 H         1 UNK         0.0600 
    149 H149        2.2294  -22.8578  -43.8473 H         1 UNK         0.3000 
    150 H150       -0.2670  -21.1731  -41.9654 H         1 UNK         0.0600 
    151 H151        0.0523  -23.2767  -40.7171 H         1 UNK         0.0600 
    152 H152        1.0748  -22.0104  -40.0553 H         1 UNK         0.0600 
    153 H153        1.7730  -23.2721  -41.0702 H         1 UNK         0.0600 
    154 H154        1.3708  -19.8190  -42.3416 H         1 UNK         0.3000 
    155 H155        4.7858  -19.8756  -42.1396 H         1 UNK         0.0600 
    156 H156        3.4885  -19.4455  -44.8842 H         1 UNK         0.0600 
    157 H157        4.9157  -20.4160  -44.5480 H         1 UNK         0.0600 
    158 H158        4.9759  -18.6729  -44.3360 H         1 UNK         0.0600 
    159 H159        2.8831  -17.8804  -43.0425 H         1 UNK         0.3000 
    160 H160        1.5067  -17.1421  -39.8871 H         1 UNK         0.0600 
    161 H161        2.4381  -14.8483  -40.0893 H         1 UNK         0.0600 
    162 H162        3.6768  -15.4206  -41.2058 H         1 UNK         0.0600 
    163 H163        3.6837  -15.9529  -39.5277 H         1 UNK         0.0600 
    164 H164        1.4324  -15.5981  -42.2404 H         1 UNK         0.3000 
    165 H165       -0.4246  -17.5979  -44.3948 H         1 UNK         0.0600 
    166 H166       -2.1687  -15.8166  -44.3608 H         1 UNK         0.0600 
    167 H167       -2.3387  -16.8883  -42.9792 H         1 UNK         0.0600 
    168 H168       -1.6188  -15.2969  -42.7693 H         1 UNK         0.0600 
    169 H169        0.0665  -14.8627  -44.6225 H         1 UNK         0.3000 
    170 H170        3.4876  -14.9517  -45.7035 H         1 UNK         0.0600 
    171 H171        2.3725  -13.7962  -47.5883 H         1 UNK         0.0600 
    172 H172        2.0384  -15.5191  -47.6352 H         1 UNK         0.0600 
    173 H173        0.8014  -14.3988  -47.0703 H         1 UNK         0.0600 
    174 H174        1.3385  -13.0150  -45.0950 H         1 UNK         0.3000 
    175 H175        2.8859  -11.8427  -42.1522 H         1 UNK         0.0600 
    176 H176        2.9427   -9.6445  -43.3038 H         1 UNK         0.0600 
    177 H177        4.2719  -10.6509  -43.8557 H         1 UNK         0.0600 
    178 H178        2.8561  -10.4361  -44.8781 H         1 UNK         0.0600 
    179 H179        0.7059  -10.8574  -43.7292 H         1 UNK         0.3000 
    180 H180       -1.8167  -12.9561  -42.3767 H         1 UNK         0.0600 
    181 H181       -1.2023  -10.0045  -41.8398 H         1 UNK         0.0600 
    182 H182       -1.4188  -11.2376  -40.6033 H         1 UNK         0.0600 
    183 H183       -2.7643  -10.8004  -41.6429 H         1 UNK         0.0600 
    184 H184       -2.1809  -10.7789  -44.0453 H         1 UNK         0.3000 
    185 H185       -2.8511  -11.0802  -46.1284 H         1 UNK         0.0600 
    186 H186       -0.3854  -12.1707  -47.6178 H         1 UNK         0.0600 
    187 H187       -1.5692  -11.0515  -48.2886 H         1 UNK         0.0600 
    188 H188       -0.5463  -10.5497  -46.9501 H         1 UNK         0.0600 
    189 H189       -2.4075  -13.9191  -46.7958 H         1 UNK         0.3000 
    190 H190       -1.2901  -21.1926  -45.3420 H         1 UNK         0.3000 
    191 H191       -3.9929  -20.3248  -46.0310 H         1 UNK         0.0600 
    192 H192       -2.7982  -19.3256  -44.0914 H         1 UNK         0.0600 
    193 H193       -2.7065  -20.9037  -43.3114 H         1 UNK         0.0600 
    194 H194       -4.2680  -20.1398  -43.5769 H         1 UNK         0.0600 
    195 H195       -2.3923  -23.2629  -44.7875 H         1 UNK         0.3000 
    196 H196       -4.7446  -24.8296  -44.4015 H         1 UNK         0.0600 
    197 H197       -3.1346  -26.7349  -44.3934 H         1 UNK         0.0600 
    198 H198       -2.5395  -25.4038  -43.4114 H         1 UNK         0.0600 
    199 H199       -1.8643  -25.6872  -45.0137 H         1 UNK         0.0600 
    200 H200       -2.6070  -24.3610  -47.2254 H         1 UNK         0.3000 
    201 H201       -4.4218  -25.9421  -48.9861 H         1 UNK         0.0600 
    202 H202       -2.0378  -26.6110  -48.9516 H         1 UNK         0.0600 
    203 H203       -1.5458  -24.9733  -49.3638 H         1 UNK         0.0600 
    204 H204       -2.4565  -25.9413  -50.5189 H         1 UNK         0.0600 
    205 H205       -5.2772  -23.3455  -48.0035 H         1 UNK         0.3000 
    206 H206       -4.8023  -21.2259  -49.7709 H         1 UNK         0.0600 
    207 H207       -5.8395  -20.8444  -47.6127 H         1 UNK         0.0600 
    208 H208       -6.9705  -20.3110  -48.8404 H         1 UNK         0.0600 
    209 H209       -7.2328  -21.8480  -48.0211 H         1 UNK         0.0600 
    210 H210       -5.2823  -20.8888  -51.7848 H         1 UNK         0.3000 
    211 H211       -6.1193  -20.8623  -53.8080 H         1 UNK         0.0600 
    212 H212       -8.7490  -22.0260  -52.7654 H         1 UNK         0.0600 
    213 H213       -8.4953  -21.1753  -54.2796 H         1 UNK         0.0600 
    214 H214       -8.3321  -20.3122  -52.7603 H         1 UNK         0.0600 
    215 H215       -4.9895  -23.4957  -52.4684 H         1 UNK         0.3000 
    216 H216       -5.5025  -25.3058  -54.7965 H         1 UNK         0.0600 
    217 H217       -4.7540  -27.1111  -53.3283 H         1 UNK         0.0600 
    218 H218       -6.0597  -26.2483  -52.5304 H         1 UNK         0.0600 
    219 H219       -4.3914  -25.9872  -52.0280 H         1 UNK         0.0600 
    220 H220       -4.0210  -23.0233  -55.1317 H         1 UNK         0.3000 
    221 H221       -2.2226  -22.1565  -56.0250 H         1 UNK         0.0600 
    222 H222       -1.0746  -24.9872  -56.2747 H         1 UNK         0.0600 
    223 H223       -2.0599  -24.1501  -57.4694 H         1 UNK         0.0600 
    224 H224       -0.4611  -23.5456  -57.0689 H         1 UNK         0.0600 
    225 H225       -0.8322  -24.7295  -53.9717 H         1 UNK         0.3000 
    226 H226        0.7077  -24.8058  -52.3629 H         1 UNK         0.0600 
    227 H227       -1.2448  -23.6124  -51.2546 H         1 UNK         0.0600 
    228 H228        0.3009  -23.3241  -50.4713 H         1 UNK         0.0600 
    229 H229       -0.4119  -22.0845  -51.5003 H         1 UNK         0.0600 
    230 H230        1.4458  -22.9984  -54.8156 H         1 UNK         0.3000 
    231 H231        3.0324  -21.7117  -55.6507 H         1 UNK         0.0600 
    232 H232        4.6344  -23.4178  -54.7404 H         1 UNK         0.0600 
    233 H233        4.8040  -22.4646  -53.2670 H         1 UNK         0.0600 
    234 H234        5.3380  -21.8112  -54.8084 H         1 UNK         0.0600 
    235 H235        0.9924  -20.5727  -53.9333 H         1 UNK         0.3000 
    236 H236        2.2368  -17.9542  -53.2885 H         1 UNK         0.0600 
    237 H237        1.1333  -17.9738  -51.0341 H         1 UNK         0.0600 
    238 H238        0.6324  -19.6422  -51.2967 H         1 UNK         0.0600 
    239 H239        2.3433  -19.2422  -51.1634 H         1 UNK         0.0600 
    240 H240       -0.7241  -19.9014  -53.8361 H         1 UNK         0.3000 
    241 H241       -2.3980  -17.4912  -53.9092 H         1 UNK         0.0600 
    242 H242       -1.4561  -18.4827  -57.6646 H         1 UNK         0.3800 
    243 H243       -0.4780  -18.9401  -56.2932 H         1 UNK         0.3800 
    244 H244       -4.2988  -19.0195  -53.9643 H         1 UNK         0.0800 
    245 H245       -3.2638  -20.3919  -54.2623 H         1 UNK         0.0800 
    246 H246       -4.9318  -18.1877  -51.4229 H         1 UNK         0.0800 
    247 H247       -3.4609  -17.3409  -51.8400 H         1 UNK         0.0800 
@<TRIPOS>BOND
     1    1    2 1    
     2    1  127 1    
     3    1  128 1    
     4    1  129 1    
     5    2    3 2    
     6    2    4 am   BACKBONE|DICT|INTERRES
     7    4    5 1    
     8    4  130 1    
     9    5    6 1    
    10    5   65 1    
    11    5  131 1    
    12    6    7 1    
    13    6  132 1    
    14    6  133 1    
    15    7    8 1    
    16    8    9 1    
    17    8  134 1    
    18    8  135 1    
    19    9   10 ar   
    20    9   14 ar   
    21   10   11 ar   
    22   10  136 1    
    23   11   12 ar   
    24   11  126 1    
    25   12   13 ar   
    26   12  137 1    
    27   13   14 ar   
    28   13   15 1    
    29   14  138 1    
    30   15   16 1    
    31   15  139 1    
    32   15  140 1    
    33   16   17 1    
    34   17   18 1    
    35   17  141 1    
    36   17  142 1    
    37   18   19 1    
    38   18   67 1    
    39   18  143 1    
    40   19   20 am   BACKBONE|DICT|INTERRES
    41   19  144 1    
    42   20   21 2    
    43   20   22 1    
    44   22   23 1    
    45   22   24 1    
    46   22  145 1    
    47   23  146 1    
    48   23  147 1    
    49   23  148 1    
    50   24   25 am   BACKBONE|DICT|INTERRES
    51   24  149 1    
    52   25   26 2    
    53   25   27 1    
    54   27   28 1    
    55   27   29 1    
    56   27  150 1    
    57   28  151 1    
    58   28  152 1    
    59   28  153 1    
    60   29   30 am   BACKBONE|DICT|INTERRES
    61   29  154 1    
    62   30   31 2    
    63   30   32 1    
    64   32   33 1    
    65   32   34 1    
    66   32  155 1    
    67   33  156 1    
    68   33  157 1    
    69   33  158 1    
    70   34   35 am   BACKBONE|DICT|INTERRES
    71   34  159 1    
    72   35   36 2    
    73   35   37 1    
    74   37   38 1    
    75   37   39 1    
    76   37  160 1    
    77   38  161 1    
    78   38  162 1    
    79   38  163 1    
    80   39   40 am   BACKBONE|DICT|INTERRES
    81   39  164 1    
    82   40   41 2    
    83   40   42 1    
    84   42   43 1    
    85   42   44 1    
    86   42  165 1    
    87   43  166 1    
    88   43  167 1    
    89   43  168 1    
    90   44   45 am   BACKBONE|DICT|INTERRES
    91   44  169 1    
    92   45   46 2    
    93   45   47 1    
    94   47   48 1    
    95   47   49 1    
    96   47  170 1    
    97   48  171 1    
    98   48  172 1    
    99   48  173 1    
   100   49   50 am   BACKBONE|DICT|INTERRES
   101   49  174 1    
   102   50   51 2    
   103   50   52 1    
   104   52   53 1    
   105   52   54 1    
   106   52  175 1    
   107   53  176 1    
   108   53  177 1    
   109   53  178 1    
   110   54   55 am   BACKBONE|DICT|INTERRES
   111   54  179 1    
   112   55   56 2    
   113   55   57 1    
   114   57   58 1    
   115   57   59 1    
   116   57  180 1    
   117   58  181 1    
   118   58  182 1    
   119   58  183 1    
   120   59   60 am   BACKBONE|DICT|INTERRES
   121   59  184 1    
   122   60   61 2    
   123   60   62 1    
   124   62   63 1    
   125   62   64 1    
   126   62  185 1    
   127   63  186 1    
   128   63  187 1    
   129   63  188 1    
   130   64   65 am   BACKBONE|DICT|INTERRES
   131   64  189 1    
   132   65   66 2    
   133   67   68 2    
   134   67   69 am   BACKBONE|DICT|INTERRES
   135   69   70 1    
   136   69  190 1    
   137   70   71 1    
   138   70   72 1    
   139   70  191 1    
   140   71  192 1    
   141   71  193 1    
   142   71  194 1    
   143   72   73 2    
   144   72   74 am   BACKBONE|DICT|INTERRES
   145   74   75 1    
   146   74  195 1    
   147   75   76 1    
   148   75   77 1    
   149   75  196 1    
   150   76  197 1    
   151   76  198 1    
   152   76  199 1    
   153   77   78 2    
   154   77   79 am   BACKBONE|DICT|INTERRES
   155   79   80 1    
   156   79  200 1    
   157   80   81 1    
   158   80   82 1    
   159   80  201 1    
   160   81  202 1    
   161   81  203 1    
   162   81  204 1    
   163   82   83 2    
   164   82   84 am   BACKBONE|DICT|INTERRES
   165   84   85 1    
   166   84  205 1    
   167   85   86 1    
   168   85   87 1    
   169   85  206 1    
   170   86  207 1    
   171   86  208 1    
   172   86  209 1    
   173   87   88 2    
   174   87   89 am   BACKBONE|DICT|INTERRES
   175   89   90 1    
   176   89  210 1    
   177   90   91 1    
   178   90   92 1    
   179   90  211 1    
   180   91  212 1    
   181   91  213 1    
   182   91  214 1    
   183   92   93 2    
   184   92   94 am   BACKBONE|DICT|INTERRES
   185   94   95 1    
   186   94  215 1    
   187   95   96 1    
   188   95   97 1    
   189   95  216 1    
   190   96  217 1    
   191   96  218 1    
   192   96  219 1    
   193   97   98 2    
   194   97   99 am   BACKBONE|DICT|INTERRES
   195   99  100 1    
   196   99  220 1    
   197  100  101 1    
   198  100  102 1    
   199  100  221 1    
   200  101  222 1    
   201  101  223 1    
   202  101  224 1    
   203  102  103 2    
   204  102  104 am   BACKBONE|DICT|INTERRES
   205  104  105 1    
   206  104  225 1    
   207  105  106 1    
   208  105  107 1    
   209  105  226 1    
   210  106  227 1    
   211  106  228 1    
   212  106  229 1    
   213  107  108 2    
   214  107  109 am   BACKBONE|DICT|INTERRES
   215  109  110 1    
   216  109  230 1    
   217  110  111 1    
   218  110  112 1    
   219  110  231 1    
   220  111  232 1    
   221  111  233 1    
   222  111  234 1    
   223  112  113 2    
   224  112  114 am   BACKBONE|DICT|INTERRES
   225  114  115 1    
   226  114  235 1    
   227  115  116 1    
   228  115  117 1    
   229  115  236 1    
   230  116  237 1    
   231  116  238 1    
   232  116  239 1    
   233  117  118 2    
   234  117  119 am   BACKBONE|DICT|INTERRES
   235  119  120 1    
   236  119  240 1    
   237  120  121 1    
   238  120  124 1    
   239  120  241 1    
   240  121  122 am   BACKBONE|DICT|INTERRES
   241  121  123 2    
   242  122  242 1    
   243  122  243 1    
   244  124  125 1    
   245  124  244 1    
   246  124  245 1    
   247  125  126 1    
   248  126  246 1    
   249  126  247 1    
@<TRIPOS>SUBSTRUCTURE
     1 UNK         1 GROUP             0       ****    0 ROOT    
