@<TRIPOS>MOLECULE
3R540
247   249    1
SMALL
USER_CHARGES


@<TRIPOS>ATOM
      1 CA         -5.7961   -9.0485  -44.9680 C.3       0 UNK        -0.1800 
      2 C          -4.5919   -9.6424  -45.6841 C.2       0 UNK         0.5000 
      3 O          -3.6210   -8.9323  -45.9473 O.2       0 UNK        -0.5000 
      4 N          -4.6405  -10.9461  -45.9890 N.am      1 UNK        -0.5000 
      5 CA         -3.5797  -11.6867  -46.6858 C.3       1 UNK         0.1400 
      6 C6         -4.1068  -12.9929  -47.3299 C.3       23 UNK        -0.0398 
      7 S7         -4.7815  -14.2197  -46.1502 S.3       23 UNK        -0.2404 
      8 C8         -3.3667  -15.3436  -45.8955 C.3       23 UNK        -0.0205 
      9 C9         -3.0205  -16.1442  -47.1426 C.ar      23 UNK        -0.0193 
     10 C10        -1.9591  -15.7535  -47.9643 C.ar      23 UNK        -0.1150 
     11 C11        -1.6422  -16.4867  -49.1104 C.ar      23 UNK        -0.0193 
     12 C12        -2.3926  -17.6214  -49.4321 C.ar      23 UNK        -0.1150 
     13 C13        -3.4450  -18.0335  -48.6083 C.ar      23 UNK        -0.0193 
     14 C14        -3.7530  -17.2889  -47.4658 C.ar      23 UNK        -0.1150 
     15 C15        -4.2730  -19.2643  -48.9543 C.3       23 UNK        -0.0205 
     16 S16        -3.2680  -20.7532  -49.2644 S.3       23 UNK        -0.2404 
     17 C17        -2.3359  -20.9207  -47.7051 C.3       23 UNK        -0.0398 
     18 CA         -1.9386  -22.3900  -47.4163 C.3       11 UNK         0.1400 
     19 N          -0.6988  -22.4729  -46.6374 N.am      11 UNK        -0.5000 
     20 C          -0.0543  -23.5914  -46.2730 C.2       10 UNK         0.5000 
     21 O          -0.4289  -24.7229  -46.5777 O.2       10 UNK        -0.5000 
     22 CA          1.1786  -23.4249  -45.3643 C.3       10 UNK         0.1400 
     23 CB          2.4726  -23.4835  -46.1895 C.3       10 UNK        -0.1800 
     24 N           1.1475  -22.1880  -44.5774 N.am      10 UNK        -0.5000 
     25 C           0.2716  -21.9286  -43.5944 C.2       9 UNK         0.5000 
     26 O          -0.5903  -22.7248  -43.2212 O.2       9 UNK        -0.5000 
     27 CA          0.3465  -20.5317  -42.9530 C.3       9 UNK         0.1400 
     28 CB          1.4050  -20.4989  -41.8405 C.3       9 UNK        -0.1800 
     29 N           0.6434  -19.4967  -43.9442 N.am      9 UNK        -0.5000 
     30 C          -0.2578  -19.0086  -44.8112 C.2       8 UNK         0.5000 
     31 O          -1.4457  -19.3302  -44.8105 O.2       8 UNK        -0.5000 
     32 CA          0.2577  -18.0237  -45.8803 C.3       8 UNK         0.1400 
     33 CB          0.2015  -16.5865  -45.3430 C.3       8 UNK        -0.1800 
     34 N           1.6225  -18.3106  -46.3249 N.am      8 UNK        -0.5000 
     35 C           2.0294  -19.4658  -46.8722 C.2       7 UNK         0.5000 
     36 O           1.2618  -20.3862  -47.1440 O.2       7 UNK        -0.5000 
     37 CA          3.5448  -19.6699  -47.0910 C.3       7 UNK         0.1400 
     38 CB          3.9106  -19.4719  -48.5682 C.3       7 UNK        -0.1800 
     39 N           4.3908  -18.8012  -46.2711 N.am      7 UNK        -0.5000 
     40 C           4.3760  -18.7248  -44.9324 C.2       6 UNK         0.5000 
     41 O           3.7207  -19.4839  -44.2167 O.2       6 UNK        -0.5000 
     42 CA          5.1636  -17.5632  -44.2885 C.3       6 UNK         0.1400 
     43 CB          6.4785  -18.0804  -43.6863 C.3       6 UNK        -0.1800 
     44 N           5.4605  -16.4350  -45.1852 N.am      6 UNK        -0.5000 
     45 C           4.5649  -15.7161  -45.8795 C.2       5 UNK         0.5000 
     46 O           3.3565  -15.9611  -45.8860 O.2       5 UNK        -0.5000 
     47 CA          5.1406  -14.5864  -46.7600 C.3       5 UNK         0.1400 
     48 CB          5.9362  -15.1785  -47.9365 C.3       5 UNK        -0.1800 
     49 N           4.1130  -13.7004  -47.3102 N.am      5 UNK        -0.5000 
     50 C           3.3120  -12.8955  -46.6010 C.2       4 UNK         0.5000 
     51 O           3.3994  -12.7506  -45.3786 O.2       4 UNK        -0.5000 
     52 CA          2.2389  -12.1422  -47.4184 C.3       4 UNK         0.1400 
     53 CB          1.2715  -13.1302  -48.0948 C.3       4 UNK        -0.1800 
     54 N           1.4588  -11.2034  -46.6101 N.am      4 UNK        -0.5000 
     55 C           1.9176  -10.0463  -46.1088 C.2       3 UNK         0.5000 
     56 O           3.0383   -9.5978  -46.3575 O.2       3 UNK        -0.5000 
     57 CA          0.9758   -9.2362  -45.1886 C.3       3 UNK         0.1400 
     58 CB          0.4248   -8.0076  -45.9295 C.3       3 UNK        -0.1800 
     59 N          -0.1532  -10.0112  -44.6727 N.am      3 UNK        -0.5000 
     60 C          -0.0697  -10.9959  -43.7674 C.2       2 UNK         0.5000 
     61 O           0.9616  -11.2657  -43.1518 O.2       2 UNK        -0.5000 
     62 CA         -1.3419  -11.8353  -43.5134 C.3       2 UNK         0.1400 
     63 CB         -1.9214  -11.5312  -42.1230 C.3       2 UNK        -0.1800 
     64 N          -2.4070  -11.6658  -44.5085 N.am      2 UNK        -0.5000 
     65 C          -2.3233  -11.9361  -45.8199 C.2       1 UNK         0.5000 
     66 O          -1.2978  -12.3544  -46.3552 O.2       1 UNK        -0.5000 
     67 C          -3.1160  -23.1852  -46.8051 C.2       11 UNK         0.5000 
     68 O          -4.0114  -23.5919  -47.5438 O.2       11 UNK        -0.5000 
     69 N          -3.0771  -23.4655  -45.4936 N.am      12 UNK        -0.5000 
     70 CA         -4.0098  -24.3640  -44.8088 C.3       12 UNK         0.1400 
     71 CB         -3.7042  -24.3563  -43.3044 C.3       12 UNK        -0.1800 
     72 C          -3.9878  -25.8070  -45.3588 C.2       12 UNK         0.5000 
     73 O          -5.0374  -26.4489  -45.4063 O.2       12 UNK        -0.5000 
     74 N          -2.8160  -26.2753  -45.8176 N.am      13 UNK        -0.5000 
     75 CA         -2.6464  -27.5707  -46.4847 C.3       13 UNK         0.1400 
     76 CB         -1.1694  -27.9886  -46.4222 C.3       13 UNK        -0.1800 
     77 C          -3.1458  -27.5551  -47.9440 C.2       13 UNK         0.5000 
     78 O          -3.4358  -28.6160  -48.4966 O.2       13 UNK        -0.5000 
     79 N          -3.2742  -26.3551  -48.5259 N.am      14 UNK        -0.5000 
     80 CA         -3.8735  -26.0914  -49.8348 C.3       14 UNK         0.1400 
     81 CB         -3.0805  -24.9638  -50.5227 C.3       14 UNK        -0.1800 
     82 C          -5.3709  -25.7332  -49.7095 C.2       14 UNK         0.5000 
     83 O          -5.9322  -25.1507  -50.6380 O.2       14 UNK        -0.5000 
     84 N          -5.9821  -26.0411  -48.5526 N.am      15 UNK        -0.5000 
     85 CA         -7.3832  -25.8065  -48.1793 C.3       15 UNK         0.1400 
     86 CB         -8.3179  -26.6862  -49.0353 C.3       15 UNK        -0.1800 
     87 C          -7.7964  -24.3182  -48.1967 C.2       15 UNK         0.5000 
     88 O          -8.9784  -24.0130  -48.3627 O.2       15 UNK        -0.5000 
     89 N          -6.8095  -23.4213  -48.0501 N.am      16 UNK        -0.5000 
     90 CA         -6.8911  -21.9641  -48.1733 C.3       16 UNK         0.1400 
     91 CB         -7.7655  -21.3590  -47.0568 C.3       16 UNK        -0.1800 
     92 C          -7.2932  -21.4762  -49.5844 C.2       16 UNK         0.5000 
     93 O          -7.7112  -20.3272  -49.7328 O.2       16 UNK        -0.5000 
     94 N          -7.1521  -22.3403  -50.6008 N.am      17 UNK        -0.5000 
     95 CA         -7.5642  -22.0767  -51.9812 C.3       17 UNK         0.1400 
     96 CB         -7.9554  -23.4107  -52.6387 C.3       17 UNK        -0.1800 
     97 C          -6.4856  -21.3616  -52.8174 C.2       17 UNK         0.5000 
     98 O          -6.7615  -21.0132  -53.9659 O.2       17 UNK        -0.5000 
     99 N          -5.2809  -21.1823  -52.2508 N.am      18 UNK        -0.5000 
    100 CA        -4.0812  -20.6196  -52.8874 C.3       18 UNK         0.1400 
    101 CB        -4.2928  -19.1387  -53.2677 C.3       18 UNK        -0.1800 
    102 C         -3.5651  -21.4905  -54.0540 C.2       18 UNK         0.5000 
    103 O         -3.0394  -20.9734  -55.0408 O.2       18 UNK        -0.5000 
    104 N         -3.7325  -22.8137  -53.9165 N.am      19 UNK        -0.5000 
    105 CA        -3.3341  -23.8099  -54.9117 C.3       19 UNK         0.1400 
    106 CB        -4.1713  -25.0819  -54.7023 C.3       19 UNK        -0.1800 
    107 C         -1.8289  -24.1391  -54.8741 C.2       19 UNK         0.5000 
    108 O         -1.2968  -24.6174  -55.8767 O.2       19 UNK        -0.5000 
    109 N         -1.1737  -23.8939  -53.7309 N.am      20 UNK        -0.5000 
    110 CA         0.2390  -24.2049  -53.4932 C.3       20 UNK         0.1400 
    111 CB         0.3574  -25.6165  -52.8867 C.3       20 UNK        -0.1800 
    112 C          0.9361  -23.1333  -52.6316 C.2       20 UNK         0.5000 
    113 O          1.9809  -23.4117  -52.0415 O.2       20 UNK        -0.5000 
    114 N          0.3611  -21.9271  -52.5715 N.am      21 UNK        -0.5000 
    115 CA         0.8727  -20.7732  -51.8378 C.3       21 UNK         0.1400 
    116 CB         0.5462  -20.9208  -50.3402 C.3       21 UNK        -0.1800 
    117 C          0.2203  -19.5061  -52.4195 C.2       21 UNK         0.5000 
    118 O         -0.8684  -19.6145  -52.9819 O.2       21 UNK        -0.5000 
    119 N          0.8179  -18.3139  -52.3014 N.am      22 UNK        -0.5000 
    120 CA         2.1399  -18.0059  -51.7221 C.3       22 UNK         0.1400 
    121 C          3.2940  -18.0141  -52.7674 C.2       22 UNK         0.5000 
    122 N          3.0333  -18.2455  -54.0484 N.am      22 UNK        -0.7600 
    123 O          4.4524  -17.8315  -52.4059 O.2       22 UNK        -0.5000 
    124 C124        2.1083  -16.6752  -50.9251 C.3       23 UNK        -0.0398 
    125 S125        1.0658  -16.8129  -49.4365 S.3       23 UNK        -0.2404 
    126 C126       -0.4882  -16.0591  -49.9998 C.3       23 UNK        -0.0205 
    127 H127       -6.5728   -9.7939  -44.7945 H         1 UNK         0.0600 
    128 H128       -6.2254   -8.2421  -45.5624 H         1 UNK         0.0600 
    129 H129       -5.4951   -8.6398  -44.0034 H         1 UNK         0.0600 
    130 H130       -5.4554  -11.4892  -45.7382 H         1 UNK         0.3000 
    131 H131       -3.2413  -11.0535  -47.5090 H         1 UNK         0.0600 
    132 H132       -4.9076  -12.7441  -48.0275 H         1 UNK         0.0800 
    133 H133       -3.3339  -13.4464  -47.9485 H         1 UNK         0.0800 
    134 H134       -3.6098  -16.0317  -45.0845 H         1 UNK         0.0800 
    135 H135       -2.5016  -14.7759  -45.5538 H         1 UNK         0.0800 
    136 H136       -1.3774  -14.8780  -47.7117 H         1 UNK         0.1150 
    137 H137       -2.1503  -18.1917  -50.3184 H         1 UNK         0.1150 
    138 H138       -4.5703  -17.5928  -46.8269 H         1 UNK         0.1150 
    139 H139       -4.8658  -19.0487  -49.8441 H         1 UNK         0.0800 
    140 H140       -4.9846  -19.4777  -48.1564 H         1 UNK         0.0800 
    141 H141       -2.9008  -20.4893  -46.8764 H         1 UNK         0.0800 
    142 H142       -1.4445  -20.3005  -47.8115 H         1 UNK         0.0800 
    143 H143       -1.7034  -22.8712  -48.3678 H         1 UNK         0.0600 
    144 H144       -0.2472  -21.5915  -46.4209 H         1 UNK         0.3000 
    145 H145        1.1856  -24.2631  -44.6644 H         1 UNK         0.0600 
    146 H146        3.3526  -23.3394  -45.5624 H         1 UNK         0.0600 
    147 H147        2.5752  -24.4545  -46.6755 H         1 UNK         0.0600 
    148 H148        2.4877  -22.7285  -46.9749 H         1 UNK         0.0600 
    149 H149        1.8048  -21.4674  -44.8375 H         1 UNK         0.3000 
    150 H150       -0.6241  -20.3164  -42.5007 H         1 UNK         0.0600 
    151 H151        2.4001  -20.7335  -42.2197 H         1 UNK         0.0600 
    152 H152        1.1723  -21.2263  -41.0618 H         1 UNK         0.0600 
    153 H153        1.4494  -19.5181  -41.3667 H         1 UNK         0.0600 
    154 H154        1.6132  -19.2143  -44.0296 H         1 UNK         0.3000 
    155 H155       -0.4003  -18.0985  -46.7485 H         1 UNK         0.0600 
    156 H156        0.9025  -16.4367  -44.5211 H         1 UNK         0.0600 
    157 H157       -0.7937  -16.3456  -44.9710 H         1 UNK         0.0600 
    158 H158        0.4450  -15.8665  -46.1240 H         1 UNK         0.0600 
    159 H159        2.3059  -17.5755  -46.1646 H         1 UNK         0.3000 
    160 H160        3.7765  -20.7000  -46.8161 H         1 UNK         0.0600 
    161 H161        3.7266  -18.4469  -48.8916 H         1 UNK         0.0600 
    162 H162        3.3241  -20.1342  -49.2058 H         1 UNK         0.0600 
    163 H163        4.9615  -19.6977  -48.7497 H         1 UNK         0.0600 
    164 H164        4.9505  -18.1253  -46.7682 H         1 UNK         0.3000 
    165 H165        4.5454  -17.1755  -43.4766 H         1 UNK         0.0600 
    166 H166        6.9946  -17.2970  -43.1310 H         1 UNK         0.0600 
    167 H167        7.1558  -18.4491  -44.4578 H         1 UNK         0.0600 
    168 H168        6.2952  -18.9009  -42.9910 H         1 UNK         0.0600 
    169 H169        6.4349  -16.1785  -45.2538 H         1 UNK         0.3000 
    170 H170        5.8116  -13.9850  -46.1435 H         1 UNK         0.0600 
    171 H171        6.3682  -14.3921  -48.5559 H         1 UNK         0.0600 
    172 H172        5.3061  -15.7993  -48.5754 H         1 UNK         0.0600 
    173 H173        6.7628  -15.7991  -47.5887 H         1 UNK         0.0600 
    174 H174        3.9537  -13.7792  -48.3031 H         1 UNK         0.3000 
    175 H175        2.7503  -11.5730  -48.1973 H         1 UNK         0.0600 
    176 H176        0.7998  -13.7875  -47.3639 H         1 UNK         0.0600 
    177 H177        0.4810  -12.6077  -48.6338 H         1 UNK         0.0600 
    178 H178        1.7862  -13.7641  -48.8171 H         1 UNK         0.0600 
    179 H179        0.5260  -11.5114  -46.3562 H         1 UNK         0.3000 
    180 H180        1.5684   -8.8881  -44.3400 H         1 UNK         0.0600 
    181 H181       -0.1910   -8.2962  -46.7824 H         1 UNK         0.0600 
    182 H182        1.2342   -7.3804  -46.3053 H         1 UNK         0.0600 
    183 H183       -0.1844   -7.3891  -45.2700 H         1 UNK         0.0600 
    184 H184       -1.0477   -9.8504  -45.1138 H         1 UNK         0.3000 
    185 H185       -1.0387  -12.8840  -43.5365 H         1 UNK         0.0600 
    186 H186       -2.7621  -12.1861  -41.8932 H         1 UNK         0.0600 
    187 H187       -1.1731  -11.6821  -41.3437 H         1 UNK         0.0600 
    188 H188       -2.2679  -10.4995  -42.0503 H         1 UNK         0.0600 
    189 H189       -3.2893  -11.3186  -44.1624 H         1 UNK         0.3000 
    190 H190       -2.3042  -23.1127  -44.9445 H         1 UNK         0.3000 
    191 H191       -5.0177  -23.9706  -44.9566 H         1 UNK         0.0600 
    192 H192       -4.4035  -24.9918  -42.7595 H         1 UNK         0.0600 
    193 H193       -3.7869  -23.3514  -42.8899 H         1 UNK         0.0600 
    194 H194       -2.6972  -24.7211  -43.0974 H         1 UNK         0.0600 
    195 H195       -1.9994  -25.6717  -45.8058 H         1 UNK         0.3000 
    196 H196       -3.2305  -28.3181  -45.9436 H         1 UNK         0.0600 
    197 H197       -0.5345  -27.3210  -47.0051 H         1 UNK         0.0600 
    198 H198       -0.8017  -27.9927  -45.3960 H         1 UNK         0.0600 
    199 H199       -1.0339  -28.9949  -46.8203 H         1 UNK         0.0600 
    200 H200       -3.0607  -25.5343  -47.9751 H         1 UNK         0.3000 
    201 H201       -3.8034  -26.9840  -50.4592 H         1 UNK         0.0600 
    202 H202       -3.2222  -24.0040  -50.0265 H         1 UNK         0.0600 
    203 H203       -3.3962  -24.8420  -51.5578 H         1 UNK         0.0600 
    204 H204       -2.0129  -25.1805  -50.5323 H         1 UNK         0.0600 
    205 H205       -5.4181  -26.4710  -47.8326 H         1 UNK         0.3000 
    206 H206       -7.4783  -26.1321  -47.1425 H         1 UNK         0.0600 
    207 H207       -8.0131  -27.7322  -49.0039 H         1 UNK         0.0600 
    208 H208       -9.3449  -26.6390  -48.6715 H         1 UNK         0.0600 
    209 H209       -8.3261  -26.3699  -50.0790 H         1 UNK         0.0600 
    210 H210       -5.8630  -23.7708  -47.9197 H         1 UNK         0.3000 
    211 H211       -5.8743  -21.6102  -48.0125 H         1 UNK         0.0600 
    212 H212       -7.6881  -20.2712  -47.0456 H         1 UNK         0.0600 
    213 H213       -7.4520  -21.7145  -46.0752 H         1 UNK         0.0600 
    214 H214       -8.8188  -21.6092  -47.1852 H         1 UNK         0.0600 
    215 H215       -6.7906  -23.2701  -50.4129 H         1 UNK         0.3000 
    216 H216       -8.4485  -21.4360  -51.9730 H         1 UNK         0.0600 
    217 H217       -7.0936  -24.0667  -52.7644 H         1 UNK         0.0600 
    218 H218       -8.3865  -23.2478  -53.6272 H         1 UNK         0.0600 
    219 H219       -8.6985  -23.9429  -52.0443 H         1 UNK         0.0600 
    220 H220       -5.1654  -21.4998  -51.2989 H         1 UNK         0.3000 
    221 H221       -3.2919  -20.6465  -52.1372 H         1 UNK         0.0600 
    222 H222       -4.6376  -18.5587  -52.4118 H         1 UNK         0.0600 
    223 H223       -5.0207  -19.0220  -54.0705 H         1 UNK         0.0600 
    224 H224       -3.3608  -18.6867  -53.6079 H         1 UNK         0.0600 
    225 H225       -4.2067  -23.1553  -53.0939 H         1 UNK         0.3000 
    226 H226       -3.5603  -23.4197  -55.9065 H         1 UNK         0.0600 
    227 H227       -3.9809  -25.5408  -53.7322 H         1 UNK         0.0600 
    228 H228       -5.2383  -24.8675  -54.7684 H         1 UNK         0.0600 
    229 H229       -3.9436  -25.8274  -55.4654 H         1 UNK         0.0600 
    230 H230       -1.6845  -23.5024  -52.9534 H         1 UNK         0.3000 
    231 H231        0.7743  -24.2009  -54.4448 H         1 UNK         0.0600 
    232 H232       -0.1079  -25.6701  -51.9026 H         1 UNK         0.0600 
    233 H233        1.4013  -25.9111  -52.7731 H         1 UNK         0.0600 
    234 H234       -0.1183  -26.3621  -53.5238 H         1 UNK         0.0600 
    235 H235       -0.4521  -21.7214  -53.1384 H         1 UNK         0.3000 
    236 H236        1.9521  -20.7251  -51.9873 H         1 UNK         0.0600 
    237 H237        1.1200  -21.7266  -49.8823 H         1 UNK         0.0600 
    238 H238        0.7719  -20.0078  -49.7890 H         1 UNK         0.0600 
    239 H239       -0.5098  -21.1364  -50.1856 H         1 UNK         0.0600 
    240 H240        0.3449  -17.5201  -52.7046 H         1 UNK         0.3000 
    241 H241        2.4095  -18.7807  -51.0074 H         1 UNK         0.0600 
    242 H242        3.7915  -18.2552  -54.7130 H         1 UNK         0.3800 
    243 H243        2.0885  -18.3908  -54.3676 H         1 UNK         0.3800 
    244 H244        1.7679  -15.8484  -51.5503 H         1 UNK         0.0800 
    245 H245        3.1083  -16.4041  -50.5819 H         1 UNK         0.0800 
    246 H246       -0.6958  -16.3482  -51.0302 H         1 UNK         0.0800 
    247 H247       -0.3872  -14.9729  -49.9972 H         1 UNK         0.0800 
@<TRIPOS>BOND
     1    1    2 1    
     2    1  127 1    
     3    1  128 1    
     4    1  129 1    
     5    2    3 2    
     6    2    4 am   BACKBONE|DICT|INTERRES
     7    4    5 1    
     8    4  130 1    
     9    5    6 1    
    10    5   65 1    
    11    5  131 1    
    12    6    7 1    
    13    6  132 1    
    14    6  133 1    
    15    7    8 1    
    16    8    9 1    
    17    8  134 1    
    18    8  135 1    
    19    9   10 ar   
    20    9   14 ar   
    21   10   11 ar   
    22   10  136 1    
    23   11   12 ar   
    24   11  126 1    
    25   12   13 ar   
    26   12  137 1    
    27   13   14 ar   
    28   13   15 1    
    29   14  138 1    
    30   15   16 1    
    31   15  139 1    
    32   15  140 1    
    33   16   17 1    
    34   17   18 1    
    35   17  141 1    
    36   17  142 1    
    37   18   19 1    
    38   18   67 1    
    39   18  143 1    
    40   19   20 am   BACKBONE|DICT|INTERRES
    41   19  144 1    
    42   20   21 2    
    43   20   22 1    
    44   22   23 1    
    45   22   24 1    
    46   22  145 1    
    47   23  146 1    
    48   23  147 1    
    49   23  148 1    
    50   24   25 am   BACKBONE|DICT|INTERRES
    51   24  149 1    
    52   25   26 2    
    53   25   27 1    
    54   27   28 1    
    55   27   29 1    
    56   27  150 1    
    57   28  151 1    
    58   28  152 1    
    59   28  153 1    
    60   29   30 am   BACKBONE|DICT|INTERRES
    61   29  154 1    
    62   30   31 2    
    63   30   32 1    
    64   32   33 1    
    65   32   34 1    
    66   32  155 1    
    67   33  156 1    
    68   33  157 1    
    69   33  158 1    
    70   34   35 am   BACKBONE|DICT|INTERRES
    71   34  159 1    
    72   35   36 2    
    73   35   37 1    
    74   37   38 1    
    75   37   39 1    
    76   37  160 1    
    77   38  161 1    
    78   38  162 1    
    79   38  163 1    
    80   39   40 am   BACKBONE|DICT|INTERRES
    81   39  164 1    
    82   40   41 2    
    83   40   42 1    
    84   42   43 1    
    85   42   44 1    
    86   42  165 1    
    87   43  166 1    
    88   43  167 1    
    89   43  168 1    
    90   44   45 am   BACKBONE|DICT|INTERRES
    91   44  169 1    
    92   45   46 2    
    93   45   47 1    
    94   47   48 1    
    95   47   49 1    
    96   47  170 1    
    97   48  171 1    
    98   48  172 1    
    99   48  173 1    
   100   49   50 am   BACKBONE|DICT|INTERRES
   101   49  174 1    
   102   50   51 2    
   103   50   52 1    
   104   52   53 1    
   105   52   54 1    
   106   52  175 1    
   107   53  176 1    
   108   53  177 1    
   109   53  178 1    
   110   54   55 am   BACKBONE|DICT|INTERRES
   111   54  179 1    
   112   55   56 2    
   113   55   57 1    
   114   57   58 1    
   115   57   59 1    
   116   57  180 1    
   117   58  181 1    
   118   58  182 1    
   119   58  183 1    
   120   59   60 am   BACKBONE|DICT|INTERRES
   121   59  184 1    
   122   60   61 2    
   123   60   62 1    
   124   62   63 1    
   125   62   64 1    
   126   62  185 1    
   127   63  186 1    
   128   63  187 1    
   129   63  188 1    
   130   64   65 am   BACKBONE|DICT|INTERRES
   131   64  189 1    
   132   65   66 2    
   133   67   68 2    
   134   67   69 am   BACKBONE|DICT|INTERRES
   135   69   70 1    
   136   69  190 1    
   137   70   71 1    
   138   70   72 1    
   139   70  191 1    
   140   71  192 1    
   141   71  193 1    
   142   71  194 1    
   143   72   73 2    
   144   72   74 am   BACKBONE|DICT|INTERRES
   145   74   75 1    
   146   74  195 1    
   147   75   76 1    
   148   75   77 1    
   149   75  196 1    
   150   76  197 1    
   151   76  198 1    
   152   76  199 1    
   153   77   78 2    
   154   77   79 am   BACKBONE|DICT|INTERRES
   155   79   80 1    
   156   79  200 1    
   157   80   81 1    
   158   80   82 1    
   159   80  201 1    
   160   81  202 1    
   161   81  203 1    
   162   81  204 1    
   163   82   83 2    
   164   82   84 am   BACKBONE|DICT|INTERRES
   165   84   85 1    
   166   84  205 1    
   167   85   86 1    
   168   85   87 1    
   169   85  206 1    
   170   86  207 1    
   171   86  208 1    
   172   86  209 1    
   173   87   88 2    
   174   87   89 am   BACKBONE|DICT|INTERRES
   175   89   90 1    
   176   89  210 1    
   177   90   91 1    
   178   90   92 1    
   179   90  211 1    
   180   91  212 1    
   181   91  213 1    
   182   91  214 1    
   183   92   93 2    
   184   92   94 am   BACKBONE|DICT|INTERRES
   185   94   95 1    
   186   94  215 1    
   187   95   96 1    
   188   95   97 1    
   189   95  216 1    
   190   96  217 1    
   191   96  218 1    
   192   96  219 1    
   193   97   98 2    
   194   97   99 am   BACKBONE|DICT|INTERRES
   195   99  100 1    
   196   99  220 1    
   197  100  101 1    
   198  100  102 1    
   199  100  221 1    
   200  101  222 1    
   201  101  223 1    
   202  101  224 1    
   203  102  103 2    
   204  102  104 am   BACKBONE|DICT|INTERRES
   205  104  105 1    
   206  104  225 1    
   207  105  106 1    
   208  105  107 1    
   209  105  226 1    
   210  106  227 1    
   211  106  228 1    
   212  106  229 1    
   213  107  108 2    
   214  107  109 am   BACKBONE|DICT|INTERRES
   215  109  110 1    
   216  109  230 1    
   217  110  111 1    
   218  110  112 1    
   219  110  231 1    
   220  111  232 1    
   221  111  233 1    
   222  111  234 1    
   223  112  113 2    
   224  112  114 am   BACKBONE|DICT|INTERRES
   225  114  115 1    
   226  114  235 1    
   227  115  116 1    
   228  115  117 1    
   229  115  236 1    
   230  116  237 1    
   231  116  238 1    
   232  116  239 1    
   233  117  118 2    
   234  117  119 am   BACKBONE|DICT|INTERRES
   235  119  120 1    
   236  119  240 1    
   237  120  121 1    
   238  120  124 1    
   239  120  241 1    
   240  121  122 am   BACKBONE|DICT|INTERRES
   241  121  123 2    
   242  122  242 1    
   243  122  243 1    
   244  124  125 1    
   245  124  244 1    
   246  124  245 1    
   247  125  126 1    
   248  126  246 1    
   249  126  247 1    
@<TRIPOS>SUBSTRUCTURE
     1 UNK         1 GROUP             0       ****    0 ROOT    
