@<TRIPOS>MOLECULE
3R540
247   249    1
SMALL
USER_CHARGES


@<TRIPOS>ATOM
      1 CA          3.2660  -12.0867  -44.9711 C.3       0 UNK        -0.1800 
      2 C           3.0859  -13.2801  -45.8981 C.2       0 UNK         0.5000 
      3 O           2.2187  -14.1210  -45.6564 O.2       0 UNK        -0.5000 
      4 N           3.8856  -13.3544  -46.9712 N.am      1 UNK        -0.5000 
      5 CA          3.8191  -14.3936  -48.0061 C.3       1 UNK         0.1400 
      6 C6          5.1702  -14.5613  -48.7532 C.3       23 UNK        -0.0398 
      7 S7          5.5348  -16.3035  -49.1608 S.3       23 UNK        -0.2404 
      8 C8          4.8658  -16.4882  -50.8481 C.3       23 UNK        -0.0205 
      9 C9          3.6040  -17.3429  -50.8771 C.ar      23 UNK        -0.0193 
     10 C10         2.3906  -16.8132  -51.3282 C.ar      23 UNK        -0.1150 
     11 C11         1.2398  -17.6063  -51.3808 C.ar      23 UNK        -0.0193 
     12 C12         1.3132  -18.9447  -50.9825 C.ar      23 UNK        -0.1150 
     13 C13         2.5209  -19.4917  -50.5385 C.ar      23 UNK        -0.0193 
     14 C14         3.6608  -18.6853  -50.4902 C.ar      23 UNK        -0.1150 
     15 C15         2.6111  -20.9582  -50.1378 C.3       23 UNK        -0.0205 
     16 S16         2.6103  -21.1744  -48.3292 S.3       23 UNK        -0.2404 
     17 C17         0.8628  -20.8574  -47.9219 C.3       23 UNK        -0.0398 
     18 CA          0.1826  -22.0476  -47.2076 C.3       11 UNK         0.1400 
     19 N           0.8443  -22.4367  -45.9627 N.am      11 UNK        -0.5000 
     20 C           0.6338  -23.5968  -45.3250 C.2       10 UNK         0.5000 
     21 O          -0.0860  -24.4968  -45.7581 O.2       10 UNK        -0.5000 
     22 CA          1.3112  -23.7575  -43.9517 C.3       10 UNK         0.1400 
     23 CB          2.7431  -24.2891  -44.1132 C.3       10 UNK        -0.1800 
     24 N           1.3413  -22.5062  -43.1913 N.am      10 UNK        -0.5000 
     25 C           0.2531  -21.8803  -42.7211 C.2       9 UNK         0.5000 
     26 O          -0.8921  -22.3156  -42.8423 O.2       9 UNK        -0.5000 
     27 CA          0.4809  -20.5163  -42.0433 C.3       9 UNK         0.1400 
     28 CB          0.8142  -20.7105  -40.5570 C.3       9 UNK        -0.1800 
     29 N           1.5257  -19.7060  -42.6784 N.am      9 UNK        -0.5000 
     30 C           1.5071  -19.2861  -43.9532 C.2       8 UNK         0.5000 
     31 O           0.6197  -19.5876  -44.7522 O.2       8 UNK        -0.5000 
     32 CA          2.6684  -18.3843  -44.4034 C.3       8 UNK         0.1400 
     33 CB          2.3421  -17.5694  -45.6670 C.3       8 UNK        -0.1800 
     34 N           3.0308  -17.4674  -43.3281 N.am      8 UNK        -0.5000 
     35 C           4.2763  -17.2112  -42.9087 C.2       7 UNK         0.5000 
     36 O           5.2810  -17.7311  -43.3952 O.2       7 UNK        -0.5000 
     37 CA          4.4390  -16.2055  -41.7492 C.3       7 UNK         0.1400 
     38 CB          4.9030  -14.8456  -42.2923 C.3       7 UNK        -0.1800 
     39 N           3.2182  -16.0033  -40.9659 N.am      7 UNK        -0.5000 
     40 C           2.6295  -16.9278  -40.1946 C.2       6 UNK         0.5000 
     41 O           3.0923  -18.0525  -40.0040 O.2       6 UNK        -0.5000 
     42 CA          1.2723  -16.5466  -39.5687 C.3       6 UNK         0.1400 
     43 CB          1.4661  -16.0614  -38.1244 C.3       6 UNK        -0.1800 
     44 N           0.5238  -15.5309  -40.3199 N.am      6 UNK        -0.5000 
     45 C           0.0902  -15.6646  -41.5804 C.2       5 UNK         0.5000 
     46 O           0.3221  -16.6491  -42.2874 O.2       5 UNK        -0.5000 
     47 CA         -0.6967  -14.4836  -42.1599 C.3       5 UNK         0.1400 
     48 CB          0.2533  -13.3541  -42.5969 C.3       5 UNK        -0.1800 
     49 N          -1.4633  -14.9595  -43.3056 N.am      5 UNK        -0.5000 
     50 C          -2.5918  -14.4122  -43.7708 C.2       4 UNK         0.5000 
     51 O          -3.1058  -13.4053  -43.2806 O.2       4 UNK        -0.5000 
     52 CA         -3.2465  -15.0962  -44.9863 C.3       4 UNK         0.1400 
     53 CB         -4.0617  -14.1175  -45.8556 C.3       4 UNK        -0.1800 
     54 N          -2.2450  -15.7696  -45.8126 N.am      4 UNK        -0.5000 
     55 C          -2.4761  -16.8376  -46.5857 C.2       3 UNK         0.5000 
     56 O          -3.5626  -17.4141  -46.6424 O.2       3 UNK        -0.5000 
     57 CA         -1.2859  -17.3260  -47.4420 C.3       3 UNK         0.1400 
     58 CB         -1.7138  -18.2668  -48.5866 C.3       3 UNK        -0.1800 
     59 N          -0.4645  -16.2211  -47.9600 N.am      3 UNK        -0.5000 
     60 C          -0.8817  -15.2061  -48.7385 C.2       2 UNK         0.5000 
     61 O          -2.0257  -15.1095  -49.1789 O.2       2 UNK        -0.5000 
     62 CA          0.1332  -14.0960  -49.0670 C.3       2 UNK         0.1400 
     63 CB         -0.4075  -12.7107  -48.6698 C.3       2 UNK        -0.1800 
     64 N           1.4139  -14.3083  -48.3953 N.am      2 UNK        -0.5000 
     65 C           2.6192  -14.1391  -48.9453 C.2       1 UNK         0.5000 
     66 O           2.7941  -13.7531  -50.1019 O.2       1 UNK        -0.5000 
     67 C          -1.2981  -21.7295  -46.9461 C.2       11 UNK         0.5000 
     68 O          -2.1481  -22.1864  -47.7064 O.2       11 UNK        -0.5000 
     69 N          -1.5819  -20.9766  -45.8731 N.am      12 UNK        -0.5000 
     70 CA         -2.9265  -20.5796  -45.4489 C.3       12 UNK         0.1400 
     71 CB         -2.8308  -19.6563  -44.2237 C.3       12 UNK        -0.1800 
     72 C          -3.8416  -21.7803  -45.1577 C.2       12 UNK         0.5000 
     73 O          -4.9809  -21.8020  -45.6234 O.2       12 UNK        -0.5000 
     74 N          -3.3036  -22.7846  -44.4519 N.am      13 UNK        -0.5000 
     75 CA         -3.9754  -24.0494  -44.1428 C.3       13 UNK         0.1400 
     76 CB         -3.0879  -24.8631  -43.1888 C.3       13 UNK        -0.1800 
     77 C          -4.3306  -24.8865  -45.3889 C.2       13 UNK         0.5000 
     78 O          -5.3134  -25.6280  -45.3602 O.2       13 UNK        -0.5000 
     79 N          -3.5357  -24.7447  -46.4566 N.am      14 UNK        -0.5000 
     80 CA         -3.7164  -25.4237  -47.7391 C.3       14 UNK         0.1400 
     81 CB         -2.3250  -25.7997  -48.2761 C.3       14 UNK        -0.1800 
     82 C          -4.4709  -24.5638  -48.7729 C.2       14 UNK         0.5000 
     83 O          -4.6868  -25.0350  -49.8900 O.2       14 UNK        -0.5000 
     84 N          -4.7999  -23.3092  -48.4265 N.am      15 UNK        -0.5000 
     85 CA         -5.3408  -22.2600  -49.3009 C.3       15 UNK         0.1400 
     86 CB         -6.7947  -22.5788  -49.7039 C.3       15 UNK        -0.1800 
     87 C          -4.4327  -21.9747  -50.5182 C.2       15 UNK         0.5000 
     88 O          -4.9283  -21.7917  -51.6323 O.2       15 UNK        -0.5000 
     89 N          -3.1132  -21.9678  -50.2797 N.am      16 UNK        -0.5000 
     90 CA         -2.0255  -21.8745  -51.2600 C.3       16 UNK         0.1400 
     91 CB         -2.0256  -20.5015  -51.9580 C.3       16 UNK        -0.1800 
     92 C          -2.0157  -23.0604  -52.2480 C.2       16 UNK         0.5000 
     93 O          -1.7847  -22.8703  -53.4416 O.2       16 UNK        -0.5000 
     94 N          -2.2789  -24.2628  -51.7149 N.am      17 UNK        -0.5000 
     95 CA         -2.4527  -25.5339  -52.4265 C.3       17 UNK         0.1400 
     96 CB         -1.1562  -25.9620  -53.1463 C.3       17 UNK        -0.1800 
     97 C          -3.6911  -25.5006  -53.3440 C.2       17 UNK         0.5000 
     98 O          -3.5958  -25.7962  -54.5367 O.2       17 UNK        -0.5000 
     99 N          -4.8315  -25.1270  -52.7444 N.am      18 UNK        -0.5000 
    100 CA        -6.1574  -24.9863  -53.3538 C.3       18 UNK         0.1400 
    101 CB        -6.7159  -26.3655  -53.7619 C.3       18 UNK        -0.1800 
    102 C         -6.1940  -23.9518  -54.4998 C.2       18 UNK         0.5000 
    103 O         -6.8285  -24.1888  -55.5295 O.2       18 UNK        -0.5000 
    104 N         -5.5210  -22.8142  -54.2886 N.am      19 UNK        -0.5000 
    105 CA        -5.4473  -21.6856  -55.2198 C.3       19 UNK         0.1400 
    106 CB        -3.9719  -21.3946  -55.5413 C.3       19 UNK        -0.1800 
    107 C         -6.1618  -20.4435  -54.6535 C.2       19 UNK         0.5000 
    108 O         -5.9032  -19.3310  -55.1154 O.2       19 UNK        -0.5000 
    109 N         -7.0308  -20.6472  -53.6509 N.am      20 UNK        -0.5000 
    110 CA        -7.8354  -19.6402  -52.9499 C.3       20 UNK         0.1400 
    111 CB        -8.9172  -19.0678  -53.8898 C.3       20 UNK        -0.1800 
    112 C         -6.9813  -18.5450  -52.2757 C.2       20 UNK         0.5000 
    113 O         -7.3585  -17.3725  -52.2945 O.2       20 UNK        -0.5000 
    114 N         -5.8406  -18.9608  -51.7028 N.am      21 UNK        -0.5000 
    115 CA        -4.8143  -18.1204  -51.0756 C.3       21 UNK         0.1400 
    116 CB        -5.3601  -17.4124  -49.8166 C.3       21 UNK        -0.1800 
    117 C         -4.1532  -17.1617  -52.0902 C.2       21 UNK         0.5000 
    118 O         -4.0720  -15.9570  -51.8487 O.2       21 UNK        -0.5000 
    119 N         -3.7084  -17.7317  -53.2196 N.am      22 UNK        -0.5000 
    120 CA        -3.1115  -17.0334  -54.3717 C.3       22 UNK         0.1400 
    121 C         -4.1247  -16.0949  -55.0945 C.2       22 UNK         0.5000 
    122 N         -5.3310  -16.5666  -55.3813 N.am      22 UNK        -0.7600 
    123 O         -3.8281  -14.9448  -55.4092 O.2       22 UNK        -0.5000 
    124 C124       -1.7542  -16.3416  -54.0489 C.3       23 UNK        -0.0398 
    125 S125       -0.4325  -17.5150  -53.5858 S.3       23 UNK        -0.2404 
    126 C126       -0.0751  -17.0154  -51.8740 C.3       23 UNK        -0.0205 
    127 H127        4.1536  -11.5070  -45.2250 H         1 UNK         0.0600 
    128 H128        3.3607  -12.4181  -43.9379 H         1 UNK         0.0600 
    129 H129        2.3979  -11.4309  -45.0374 H         1 UNK         0.0600 
    130 H130        4.5548  -12.6157  -47.1358 H         1 UNK         0.3000 
    131 H131        3.6154  -15.3345  -47.4935 H         1 UNK         0.0600 
    132 H132        5.2572  -13.9267  -49.6364 H         1 UNK         0.0800 
    133 H133        5.9866  -14.2437  -48.1031 H         1 UNK         0.0800 
    134 H134        4.6844  -15.5098  -51.2951 H         1 UNK         0.0800 
    135 H135        5.6230  -16.9673  -51.4702 H         1 UNK         0.0800 
    136 H136        2.3423  -15.7830  -51.6504 H         1 UNK         0.1150 
    137 H137        0.4325  -19.5650  -51.0341 H         1 UNK         0.1150 
    138 H138        4.5980  -19.1047  -50.1517 H         1 UNK         0.1150 
    139 H139        1.7980  -21.5350  -50.5814 H         1 UNK         0.0800 
    140 H140        3.5331  -21.3820  -50.5385 H         1 UNK         0.0800 
    141 H141        0.3229  -20.6312  -48.8409 H         1 UNK         0.0800 
    142 H142        0.8144  -19.9536  -47.3162 H         1 UNK         0.0800 
    143 H143        0.2163  -22.9033  -47.8860 H         1 UNK         0.0600 
    144 H144        1.4176  -21.7331  -45.5215 H         1 UNK         0.3000 
    145 H145        0.7353  -24.4888  -43.3803 H         1 UNK         0.0600 
    146 H146        2.7488  -25.2330  -44.6599 H         1 UNK         0.0600 
    147 H147        3.3746  -23.5886  -44.6613 H         1 UNK         0.0600 
    148 H148        3.2071  -24.4733  -43.1442 H         1 UNK         0.0600 
    149 H149        2.2438  -22.0787  -43.0454 H         1 UNK         0.3000 
    150 H150       -0.4521  -19.9541  -42.1103 H         1 UNK         0.0600 
    151 H151        0.8540  -19.7568  -40.0335 H         1 UNK         0.0600 
    152 H152        1.7753  -21.2076  -40.4206 H         1 UNK         0.0600 
    153 H153        0.0556  -21.3178  -40.0614 H         1 UNK         0.0600 
    154 H154        2.2808  -19.3962  -42.0825 H         1 UNK         0.3000 
    155 H155        3.5012  -19.0519  -44.6320 H         1 UNK         0.0600 
    156 H156        2.1388  -18.2171  -46.5191 H         1 UNK         0.0600 
    157 H157        3.1850  -16.9364  -45.9394 H         1 UNK         0.0600 
    158 H158        1.4749  -16.9261  -45.5142 H         1 UNK         0.0600 
    159 H159        2.2466  -17.0251  -42.8584 H         1 UNK         0.3000 
    160 H160        5.2106  -16.5939  -41.0812 H         1 UNK         0.0600 
    161 H161        5.8389  -14.9424  -42.8442 H         1 UNK         0.0600 
    162 H162        5.0743  -14.1324  -41.4858 H         1 UNK         0.0600 
    163 H163        4.1652  -14.4185  -42.9715 H         1 UNK         0.0600 
    164 H164        2.7633  -15.1079  -41.0628 H         1 UNK         0.3000 
    165 H165        0.6604  -17.4497  -39.5444 H         1 UNK         0.0600 
    166 H166        0.5083  -15.8799  -37.6365 H         1 UNK         0.0600 
    167 H167        1.9953  -16.8068  -37.5290 H         1 UNK         0.0600 
    168 H168        2.0451  -15.1379  -38.0845 H         1 UNK         0.0600 
    169 H169        0.3019  -14.6831  -39.8176 H         1 UNK         0.3000 
    170 H170       -1.3799  -14.1160  -41.3912 H         1 UNK         0.0600 
    171 H171       -0.2957  -12.5170  -43.0281 H         1 UNK         0.0600 
    172 H172        0.8215  -12.9660  -41.7510 H         1 UNK         0.0600 
    173 H173        0.9692  -13.7020  -43.3415 H         1 UNK         0.0600 
    174 H174       -1.1257  -15.8338  -43.6885 H         1 UNK         0.3000 
    175 H175       -3.9295  -15.8435  -44.5771 H         1 UNK         0.0600 
    176 H176       -3.4281  -13.3348  -46.2743 H         1 UNK         0.0600 
    177 H177       -4.5454  -14.6333  -46.6854 H         1 UNK         0.0600 
    178 H178       -4.8489  -13.6337  -45.2763 H         1 UNK         0.0600 
    179 H179       -1.3302  -15.3419  -45.8325 H         1 UNK         0.3000 
    180 H180       -0.6494  -17.9000  -46.7671 H         1 UNK         0.0600 
    181 H181       -0.8470  -18.6303  -49.1329 H         1 UNK         0.0600 
    182 H182       -2.3653  -17.7621  -49.2974 H         1 UNK         0.0600 
    183 H183       -2.2524  -19.1371  -48.2133 H         1 UNK         0.0600 
    184 H184        0.5073  -16.2330  -47.6896 H         1 UNK         0.3000 
    185 H185        0.2714  -14.1179  -50.1496 H         1 UNK         0.0600 
    186 H186       -0.5868  -12.6438  -47.5960 H         1 UNK         0.0600 
    187 H187        0.2939  -11.9218  -48.9420 H         1 UNK         0.0600 
    188 H188       -1.3491  -12.4937  -49.1757 H         1 UNK         0.0600 
    189 H189        1.3865  -14.4843  -47.3949 H         1 UNK         0.3000 
    190 H190       -0.8084  -20.6086  -45.3239 H         1 UNK         0.3000 
    191 H191       -3.3748  -20.0190  -46.2700 H         1 UNK         0.0600 
    192 H192       -2.5016  -20.1944  -43.3356 H         1 UNK         0.0600 
    193 H193       -3.8021  -19.2156  -43.9967 H         1 UNK         0.0600 
    194 H194       -2.1330  -18.8365  -44.3921 H         1 UNK         0.0600 
    195 H195       -2.3701  -22.6624  -44.0680 H         1 UNK         0.3000 
    196 H196       -4.9088  -23.8139  -43.6278 H         1 UNK         0.0600 
    197 H197       -3.5611  -25.8089  -42.9221 H         1 UNK         0.0600 
    198 H198       -2.9035  -24.3192  -42.2621 H         1 UNK         0.0600 
    199 H199       -2.1212  -25.0925  -43.6394 H         1 UNK         0.0600 
    200 H200       -2.7526  -24.1073  -46.3947 H         1 UNK         0.3000 
    201 H201       -4.2877  -26.3435  -47.5995 H         1 UNK         0.0600 
    202 H202       -1.7813  -26.4152  -47.5590 H         1 UNK         0.0600 
    203 H203       -1.7183  -24.9164  -48.4800 H         1 UNK         0.0600 
    204 H204       -2.3991  -26.3738  -49.1999 H         1 UNK         0.0600 
    205 H205       -4.5673  -23.0084  -47.4881 H         1 UNK         0.3000 
    206 H206       -5.3527  -21.3432  -48.7096 H         1 UNK         0.0600 
    207 H207       -7.2392  -21.7503  -50.2564 H         1 UNK         0.0600 
    208 H208       -6.8565  -23.4650  -50.3353 H         1 UNK         0.0600 
    209 H209       -7.4159  -22.7509  -48.8250 H         1 UNK         0.0600 
    210 H210       -2.8155  -22.1090  -49.3137 H         1 UNK         0.3000 
    211 H211       -1.0961  -21.9512  -50.6940 H         1 UNK         0.0600 
    212 H212       -2.9354  -20.3420  -52.5320 H         1 UNK         0.0600 
    213 H213       -1.1867  -20.4100  -52.6487 H         1 UNK         0.0600 
    214 H214       -1.9364  -19.6931  -51.2347 H         1 UNK         0.0600 
    215 H215       -2.5073  -24.2904  -50.7323 H         1 UNK         0.3000 
    216 H216       -2.6611  -26.2863  -51.6648 H         1 UNK         0.0600 
    217 H217       -1.2584  -26.9646  -53.5630 H         1 UNK         0.0600 
    218 H218       -0.3115  -25.9811  -52.4578 H         1 UNK         0.0600 
    219 H219       -0.9033  -25.2939  -53.9698 H         1 UNK         0.0600 
    220 H220       -4.7931  -24.9426  -51.7437 H         1 UNK         0.3000 
    221 H221       -6.8071  -24.5908  -52.5723 H         1 UNK         0.0600 
    222 H222       -6.1440  -26.8098  -54.5771 H         1 UNK         0.0600 
    223 H223       -6.6990  -27.0607  -52.9225 H         1 UNK         0.0600 
    224 H224       -7.7515  -26.2858  -54.0943 H         1 UNK         0.0600 
    225 H225       -5.0678  -22.6733  -53.3899 H         1 UNK         0.3000 
    226 H226       -5.9500  -21.9295  -56.1574 H         1 UNK         0.0600 
    227 H227       -3.4673  -22.2863  -55.9138 H         1 UNK         0.0600 
    228 H228       -3.8787  -20.6248  -56.3082 H         1 UNK         0.0600 
    229 H229       -3.4294  -21.0495  -54.6628 H         1 UNK         0.0600 
    230 H230       -7.1307  -21.5955  -53.3194 H         1 UNK         0.3000 
    231 H231       -8.3465  -20.1643  -52.1411 H         1 UNK         0.0600 
    232 H232       -8.4813  -18.4801  -54.6983 H         1 UNK         0.0600 
    233 H233       -9.5120  -19.8641  -54.3372 H         1 UNK         0.0600 
    234 H234       -9.6043  -18.4179  -53.3467 H         1 UNK         0.0600 
    235 H235       -5.6176  -19.9491  -51.7745 H         1 UNK         0.3000 
    236 H236       -4.0322  -18.7993  -50.7390 H         1 UNK         0.0600 
    237 H237       -6.1513  -16.7018  -50.0545 H         1 UNK         0.0600 
    238 H238       -5.7569  -18.1320  -49.1007 H         1 UNK         0.0600 
    239 H239       -4.5724  -16.8542  -49.3092 H         1 UNK         0.0600 
    240 H240       -3.8785  -18.7159  -53.3559 H         1 UNK         0.3000 
    241 H241       -2.8959  -17.8112  -55.1054 H         1 UNK         0.0600 
    242 H242       -5.9983  -15.9723  -55.8455 H         1 UNK         0.3800 
    243 H243       -5.5739  -17.5359  -55.1825 H         1 UNK         0.3800 
    244 H244       -1.3896  -15.8057  -54.9267 H         1 UNK         0.0800 
    245 H245       -1.8809  -15.5842  -53.2749 H         1 UNK         0.0800 
    246 H246       -0.8967  -17.3279  -51.2302 H         1 UNK         0.0800 
    247 H247       -0.0362  -15.9270  -51.8171 H         1 UNK         0.0800 
@<TRIPOS>BOND
     1    1    2 1    
     2    1  127 1    
     3    1  128 1    
     4    1  129 1    
     5    2    3 2    
     6    2    4 am   BACKBONE|DICT|INTERRES
     7    4    5 1    
     8    4  130 1    
     9    5    6 1    
    10    5   65 1    
    11    5  131 1    
    12    6    7 1    
    13    6  132 1    
    14    6  133 1    
    15    7    8 1    
    16    8    9 1    
    17    8  134 1    
    18    8  135 1    
    19    9   10 ar   
    20    9   14 ar   
    21   10   11 ar   
    22   10  136 1    
    23   11   12 ar   
    24   11  126 1    
    25   12   13 ar   
    26   12  137 1    
    27   13   14 ar   
    28   13   15 1    
    29   14  138 1    
    30   15   16 1    
    31   15  139 1    
    32   15  140 1    
    33   16   17 1    
    34   17   18 1    
    35   17  141 1    
    36   17  142 1    
    37   18   19 1    
    38   18   67 1    
    39   18  143 1    
    40   19   20 am   BACKBONE|DICT|INTERRES
    41   19  144 1    
    42   20   21 2    
    43   20   22 1    
    44   22   23 1    
    45   22   24 1    
    46   22  145 1    
    47   23  146 1    
    48   23  147 1    
    49   23  148 1    
    50   24   25 am   BACKBONE|DICT|INTERRES
    51   24  149 1    
    52   25   26 2    
    53   25   27 1    
    54   27   28 1    
    55   27   29 1    
    56   27  150 1    
    57   28  151 1    
    58   28  152 1    
    59   28  153 1    
    60   29   30 am   BACKBONE|DICT|INTERRES
    61   29  154 1    
    62   30   31 2    
    63   30   32 1    
    64   32   33 1    
    65   32   34 1    
    66   32  155 1    
    67   33  156 1    
    68   33  157 1    
    69   33  158 1    
    70   34   35 am   BACKBONE|DICT|INTERRES
    71   34  159 1    
    72   35   36 2    
    73   35   37 1    
    74   37   38 1    
    75   37   39 1    
    76   37  160 1    
    77   38  161 1    
    78   38  162 1    
    79   38  163 1    
    80   39   40 am   BACKBONE|DICT|INTERRES
    81   39  164 1    
    82   40   41 2    
    83   40   42 1    
    84   42   43 1    
    85   42   44 1    
    86   42  165 1    
    87   43  166 1    
    88   43  167 1    
    89   43  168 1    
    90   44   45 am   BACKBONE|DICT|INTERRES
    91   44  169 1    
    92   45   46 2    
    93   45   47 1    
    94   47   48 1    
    95   47   49 1    
    96   47  170 1    
    97   48  171 1    
    98   48  172 1    
    99   48  173 1    
   100   49   50 am   BACKBONE|DICT|INTERRES
   101   49  174 1    
   102   50   51 2    
   103   50   52 1    
   104   52   53 1    
   105   52   54 1    
   106   52  175 1    
   107   53  176 1    
   108   53  177 1    
   109   53  178 1    
   110   54   55 am   BACKBONE|DICT|INTERRES
   111   54  179 1    
   112   55   56 2    
   113   55   57 1    
   114   57   58 1    
   115   57   59 1    
   116   57  180 1    
   117   58  181 1    
   118   58  182 1    
   119   58  183 1    
   120   59   60 am   BACKBONE|DICT|INTERRES
   121   59  184 1    
   122   60   61 2    
   123   60   62 1    
   124   62   63 1    
   125   62   64 1    
   126   62  185 1    
   127   63  186 1    
   128   63  187 1    
   129   63  188 1    
   130   64   65 am   BACKBONE|DICT|INTERRES
   131   64  189 1    
   132   65   66 2    
   133   67   68 2    
   134   67   69 am   BACKBONE|DICT|INTERRES
   135   69   70 1    
   136   69  190 1    
   137   70   71 1    
   138   70   72 1    
   139   70  191 1    
   140   71  192 1    
   141   71  193 1    
   142   71  194 1    
   143   72   73 2    
   144   72   74 am   BACKBONE|DICT|INTERRES
   145   74   75 1    
   146   74  195 1    
   147   75   76 1    
   148   75   77 1    
   149   75  196 1    
   150   76  197 1    
   151   76  198 1    
   152   76  199 1    
   153   77   78 2    
   154   77   79 am   BACKBONE|DICT|INTERRES
   155   79   80 1    
   156   79  200 1    
   157   80   81 1    
   158   80   82 1    
   159   80  201 1    
   160   81  202 1    
   161   81  203 1    
   162   81  204 1    
   163   82   83 2    
   164   82   84 am   BACKBONE|DICT|INTERRES
   165   84   85 1    
   166   84  205 1    
   167   85   86 1    
   168   85   87 1    
   169   85  206 1    
   170   86  207 1    
   171   86  208 1    
   172   86  209 1    
   173   87   88 2    
   174   87   89 am   BACKBONE|DICT|INTERRES
   175   89   90 1    
   176   89  210 1    
   177   90   91 1    
   178   90   92 1    
   179   90  211 1    
   180   91  212 1    
   181   91  213 1    
   182   91  214 1    
   183   92   93 2    
   184   92   94 am   BACKBONE|DICT|INTERRES
   185   94   95 1    
   186   94  215 1    
   187   95   96 1    
   188   95   97 1    
   189   95  216 1    
   190   96  217 1    
   191   96  218 1    
   192   96  219 1    
   193   97   98 2    
   194   97   99 am   BACKBONE|DICT|INTERRES
   195   99  100 1    
   196   99  220 1    
   197  100  101 1    
   198  100  102 1    
   199  100  221 1    
   200  101  222 1    
   201  101  223 1    
   202  101  224 1    
   203  102  103 2    
   204  102  104 am   BACKBONE|DICT|INTERRES
   205  104  105 1    
   206  104  225 1    
   207  105  106 1    
   208  105  107 1    
   209  105  226 1    
   210  106  227 1    
   211  106  228 1    
   212  106  229 1    
   213  107  108 2    
   214  107  109 am   BACKBONE|DICT|INTERRES
   215  109  110 1    
   216  109  230 1    
   217  110  111 1    
   218  110  112 1    
   219  110  231 1    
   220  111  232 1    
   221  111  233 1    
   222  111  234 1    
   223  112  113 2    
   224  112  114 am   BACKBONE|DICT|INTERRES
   225  114  115 1    
   226  114  235 1    
   227  115  116 1    
   228  115  117 1    
   229  115  236 1    
   230  116  237 1    
   231  116  238 1    
   232  116  239 1    
   233  117  118 2    
   234  117  119 am   BACKBONE|DICT|INTERRES
   235  119  120 1    
   236  119  240 1    
   237  120  121 1    
   238  120  124 1    
   239  120  241 1    
   240  121  122 am   BACKBONE|DICT|INTERRES
   241  121  123 2    
   242  122  242 1    
   243  122  243 1    
   244  124  125 1    
   245  124  244 1    
   246  124  245 1    
   247  125  126 1    
   248  126  246 1    
   249  126  247 1    
@<TRIPOS>SUBSTRUCTURE
     1 UNK         1 GROUP             0       ****    0 ROOT    
