@<TRIPOS>MOLECULE
3R540
247   249    1
SMALL
USER_CHARGES


@<TRIPOS>ATOM
      1 CA         -2.6423  -16.2952  -43.3742 C.3       0 UNK        -0.1800 
      2 C          -3.3456  -14.9787  -43.6568 C.2       0 UNK         0.5000 
      3 O          -3.8151  -14.3237  -42.7262 O.2       0 UNK        -0.5000 
      4 N          -3.4070  -14.5783  -44.9332 N.am      1 UNK        -0.5000 
      5 CA         -3.9452  -13.2826  -45.3683 C.3       1 UNK         0.1400 
      6 C6         -4.3900  -13.3108  -46.8500 C.3       23 UNK        -0.0398 
      7 S7         -3.0399  -13.6346  -48.0413 S.3       23 UNK        -0.2404 
      8 C8         -3.8782  -14.6871  -49.2628 C.3       23 UNK        -0.0205 
      9 C9         -3.6072  -16.1624  -49.0187 C.ar      23 UNK        -0.0193 
     10 C10        -2.5494  -16.7876  -49.6838 C.ar      23 UNK        -0.1150 
     11 C11        -2.3245  -18.1572  -49.5321 C.ar      23 UNK        -0.0193 
     12 C12        -3.1609  -18.9025  -48.6981 C.ar      23 UNK        -0.1150 
     13 C13        -4.2147  -18.2871  -48.0130 C.ar      23 UNK        -0.0193 
     14 C14        -4.4332  -16.9151  -48.1777 C.ar      23 UNK        -0.1150 
     15 C15        -5.1431  -19.1119  -47.1309 C.3       23 UNK        -0.0205 
     16 S16        -4.7974  -18.9344  -45.3458 S.3       23 UNK        -0.2404 
     17 C17        -3.0237  -19.3443  -45.1972 C.3       23 UNK        -0.0398 
     18 CA         -2.6346  -20.7650  -45.6641 C.3       11 UNK         0.1400 
     19 N          -1.2097  -20.8522  -45.9826 N.am      11 UNK        -0.5000 
     20 C          -0.6646  -21.8338  -46.7105 C.2       10 UNK         0.5000 
     21 O          -1.3217  -22.7463  -47.2101 O.2       10 UNK        -0.5000 
     22 CA          0.8657  -21.8182  -46.8761 C.3       10 UNK         0.1400 
     23 CB          1.2904  -20.8774  -48.0113 C.3       10 UNK        -0.1800 
     24 N           1.5623  -21.4456  -45.6447 N.am      10 UNK        -0.5000 
     25 C           1.5493  -22.1831  -44.5256 C.2       9 UNK         0.5000 
     26 O           0.9594  -23.2579  -44.4245 O.2       9 UNK        -0.5000 
     27 CA          2.2832  -21.6107  -43.3015 C.3       9 UNK         0.1400 
     28 CB          3.7992  -21.8200  -43.4313 C.3       9 UNK        -0.1800 
     29 N           1.9945  -20.1945  -43.0754 N.am      9 UNK        -0.5000 
     30 C           0.7792  -19.6995  -42.8003 C.2       8 UNK         0.5000 
     31 O          -0.2353  -20.3885  -42.6974 O.2       8 UNK        -0.5000 
     32 CA          0.6623  -18.1710  -42.6749 C.3       8 UNK         0.1400 
     33 CB          1.2189  -17.6739  -41.3331 C.3       8 UNK        -0.1800 
     34 N           1.3166  -17.4635  -43.7737 N.am      8 UNK        -0.5000 
     35 C           0.9880  -17.5952  -45.0667 C.2       7 UNK         0.5000 
     36 O           0.0675  -18.3020  -45.4750 O.2       7 UNK        -0.5000 
     37 CA          1.8764  -16.8544  -46.0771 C.3       7 UNK         0.1400 
     38 CB          1.5069  -15.3636  -46.1434 C.3       7 UNK        -0.1800 
     39 N           3.2967  -17.0083  -45.7587 N.am      7 UNK        -0.5000 
     40 C           3.9650  -18.1695  -45.8330 C.2       6 UNK         0.5000 
     41 O           3.4623  -19.2282  -46.2090 O.2       6 UNK        -0.5000 
     42 CA          5.4316  -18.1531  -45.3671 C.3       6 UNK         0.1400 
     43 CB          6.3475  -17.6017  -46.4700 C.3       6 UNK        -0.1800 
     44 N           5.6215  -17.3761  -44.1421 N.am      6 UNK        -0.5000 
     45 C           5.1105  -17.7082  -42.9481 C.2       5 UNK         0.5000 
     46 O           4.4478  -18.7241  -42.7450 O.2       5 UNK        -0.5000 
     47 CA          5.3410  -16.7147  -41.7959 C.3       5 UNK         0.1400 
     48 CB          6.6785  -16.9995  -41.0968 C.3       5 UNK        -0.1800 
     49 N           5.3010  -15.3125  -42.2189 N.am      5 UNK        -0.5000 
     50 C           4.2336  -14.7107  -42.7592 C.2       4 UNK         0.5000 
     51 O           3.1779  -15.2911  -43.0239 O.2       4 UNK        -0.5000 
     52 CA          4.3911  -13.2181  -43.1003 C.3       4 UNK         0.1400 
     53 CB          4.6262  -13.0387  -44.6083 C.3       4 UNK        -0.1800 
     54 N           3.2199  -12.4370  -42.7063 N.am      4 UNK        -0.5000 
     55 C           2.7736  -12.2840  -41.4512 C.2       3 UNK         0.5000 
     56 O           3.3513  -12.7404  -40.4632 O.2       3 UNK        -0.5000 
     57 CA          1.4816  -11.4628  -41.2515 C.3       3 UNK         0.1400 
     58 CB          1.7903  -10.1374  -40.5361 C.3       3 UNK        -0.1800 
     59 N           0.7621  -11.1645  -42.4939 N.am      3 UNK        -0.5000 
     60 C           0.0398  -12.0495  -43.1907 C.2       2 UNK         0.5000 
     61 O          -0.0812  -13.2369  -42.8784 O.2       2 UNK        -0.5000 
     62 CA         -0.6330  -11.5145  -44.4631 C.3       2 UNK         0.1400 
     63 CB          0.3801  -11.4268  -45.6169 C.3       2 UNK        -0.1800 
     64 N          -1.7002  -12.4287  -44.8453 N.am      2 UNK        -0.5000 
     65 C          -2.9780  -12.1095  -45.0793 C.2       1 UNK         0.5000 
     66 O          -3.4087  -10.9551  -45.0709 O.2       1 UNK        -0.5000 
     67 C          -3.0802  -21.8758  -44.6907 C.2       11 UNK         0.5000 
     68 O          -4.1335  -22.4745  -44.9098 O.2       11 UNK        -0.5000 
     69 N          -2.2466  -22.1973  -43.6895 N.am      12 UNK        -0.5000 
     70 CA         -2.4464  -23.3273  -42.7755 C.3       12 UNK         0.1400 
     71 CB         -1.4123  -23.2648  -41.6416 C.3       12 UNK        -0.1800 
     72 C          -2.3937  -24.6943  -43.4876 C.2       12 UNK         0.5000 
     73 O          -3.1589  -25.5929  -43.1367 O.2       12 UNK        -0.5000 
     74 N          -1.5253  -24.8115  -44.5014 N.am      13 UNK        -0.5000 
     75 CA         -1.4158  -25.9675  -45.3949 C.3       13 UNK         0.1400 
     76 CB         -0.0378  -25.9382  -46.0759 C.3       13 UNK        -0.1800 
     77 C          -2.5404  -26.0468  -46.4510 C.2       13 UNK         0.5000 
     78 O          -2.6167  -27.0495  -47.1622 O.2       13 UNK        -0.5000 
     79 N          -3.3816  -25.0048  -46.5381 N.am      14 UNK        -0.5000 
     80 CA         -4.4977  -24.8265  -47.4693 C.3       14 UNK         0.1400 
     81 CB         -5.6057  -25.8691  -47.2114 C.3       14 UNK        -0.1800 
     82 C          -4.0386  -24.7678  -48.9405 C.2       14 UNK         0.5000 
     83 O          -4.6095  -25.4430  -49.7988 O.2       14 UNK        -0.5000 
     84 N          -3.0127  -23.9454  -49.2050 N.am      15 UNK        -0.5000 
     85 CA         -2.4210  -23.7263  -50.5292 C.3       15 UNK         0.1400 
     86 CB         -1.1105  -22.9430  -50.3667 C.3       15 UNK        -0.1800 
     87 C          -3.3475  -23.0394  -51.5567 C.2       15 UNK         0.5000 
     88 O          -3.0451  -23.1044  -52.7460 O.2       15 UNK        -0.5000 
     89 N          -4.4463  -22.4288  -51.0863 N.am      16 UNK        -0.5000 
     90 CA         -5.5720  -21.8700  -51.8438 C.3       16 UNK         0.1400 
     91 CB         -6.3666  -22.9986  -52.5279 C.3       16 UNK        -0.1800 
     92 C          -5.1653  -20.7565  -52.8326 C.2       16 UNK         0.5000 
     93 O          -4.7792  -21.0369  -53.9722 O.2       16 UNK        -0.5000 
     94 N          -5.2776  -19.5083  -52.3560 N.am      17 UNK        -0.5000 
     95 CA         -4.9298  -18.2609  -53.0412 C.3       17 UNK         0.1400 
     96 CB         -5.4049  -17.0790  -52.1824 C.3       17 UNK        -0.1800 
     97 C          -5.5064  -18.1614  -54.4643 C.2       17 UNK         0.5000 
     98 O          -6.7268  -18.0962  -54.6264 O.2       17 UNK        -0.5000 
     99 N          -4.6061  -18.1792  -55.4562 N.am      18 UNK        -0.5000 
    100 CA        -4.8623  -18.1452  -56.8997 C.3       18 UNK         0.1400 
    101 CB        -5.4878  -16.7939  -57.3054 C.3       18 UNK        -0.1800 
    102 C         -5.6648  -19.3520  -57.4417 C.2       18 UNK         0.5000 
    103 O         -6.1847  -19.2667  -58.5560 O.2       18 UNK        -0.5000 
    104 N         -5.7530  -20.4472  -56.6720 N.am      19 UNK        -0.5000 
    105 CA        -6.5743  -21.6158  -56.9921 C.3       19 UNK         0.1400 
    106 CB        -7.7249  -21.7095  -55.9794 C.3       19 UNK        -0.1800 
    107 C         -5.7744  -22.9283  -57.0379 C.2       19 UNK         0.5000 
    108 O         -6.1491  -23.8116  -57.8116 O.2       19 UNK        -0.5000 
    109 N         -4.7016  -23.0541  -56.2444 N.am      20 UNK        -0.5000 
    110 CA        -3.8490  -24.2447  -56.2205 C.3       20 UNK         0.1400 
    111 CB        -4.3664  -25.2616  -55.1803 C.3       20 UNK        -0.1800 
    112 C         -2.3736  -23.8428  -56.0615 C.2       20 UNK         0.5000 
    113 O         -1.8727  -23.0751  -56.8854 O.2       20 UNK        -0.5000 
    114 N         -1.6942  -24.3725  -55.0358 N.am      21 UNK        -0.5000 
    115 CA        -0.2636  -24.2112  -54.7586 C.3       21 UNK         0.1400 
    116 CB         0.1085  -25.0579  -53.5323 C.3       21 UNK        -0.1800 
    117 C          0.2159  -22.7553  -54.5863 C.2       21 UNK         0.5000 
    118 O          1.3774  -22.4775  -54.8897 O.2       21 UNK        -0.5000 
    119 N         -0.6737  -21.8555  -54.1493 N.am      22 UNK        -0.5000 
    120 CA        -0.4651  -20.3981  -54.1770 C.3       22 UNK         0.1400 
    121 C         -1.4809  -19.6659  -55.1028 C.2       22 UNK         0.5000 
    122 N         -2.0456  -20.3273  -56.1064 N.am      22 UNK        -0.7600 
    123 O         -1.7509  -18.4785  -54.9414 O.2       22 UNK        -0.5000 
    124 C124       -0.2885  -19.7840  -52.7616 C.3       23 UNK        -0.0398 
    125 S125       -1.7948  -19.7249  -51.7401 S.3       23 UNK        -0.2404 
    126 C126       -1.1857  -18.8286  -50.2808 C.3       23 UNK        -0.0205 
    127 H127       -3.3651  -17.0488  -43.0626 H         1 UNK         0.0600 
    128 H128       -1.9200  -16.1577  -42.5698 H         1 UNK         0.0600 
    129 H129       -2.1078  -16.6629  -44.2502 H         1 UNK         0.0600 
    130 H130       -3.0228  -15.1581  -45.6664 H         1 UNK         0.3000 
    131 H131       -4.8427  -13.0847  -44.7781 H         1 UNK         0.0600 
    132 H132       -5.1659  -14.0679  -46.9667 H         1 UNK         0.0800 
    133 H133       -4.8636  -12.3655  -47.1208 H         1 UNK         0.0800 
    134 H134       -4.9516  -14.4924  -49.2704 H         1 UNK         0.0800 
    135 H135       -3.5233  -14.4094  -50.2565 H         1 UNK         0.0800 
    136 H136       -1.9132  -16.2096  -50.3393 H         1 UNK         0.1150 
    137 H137       -2.9925  -19.9648  -48.6014 H         1 UNK         0.1150 
    138 H138       -5.2574  -16.4397  -47.6653 H         1 UNK         0.1150 
    139 H139       -6.1726  -18.7992  -47.3113 H         1 UNK         0.0800 
    140 H140       -5.1080  -20.1651  -47.4108 H         1 UNK         0.0800 
    141 H141       -2.7045  -19.1828  -44.1665 H         1 UNK         0.0800 
    142 H142       -2.4885  -18.6023  -45.7901 H         1 UNK         0.0800 
    143 H143       -3.1582  -20.9668  -46.5969 H         1 UNK         0.0600 
    144 H144       -0.6180  -20.0999  -45.6396 H         1 UNK         0.3000 
    145 H145        1.1790  -22.8293  -47.1436 H         1 UNK         0.0600 
    146 H146        2.3711  -20.8952  -48.1522 H         1 UNK         0.0600 
    147 H147        0.8413  -21.1791  -48.9570 H         1 UNK         0.0600 
    148 H148        0.9974  -19.8461  -47.8108 H         1 UNK         0.0600 
    149 H149        2.0954  -20.5814  -45.6657 H         1 UNK         0.3000 
    150 H150        1.9398  -22.1618  -42.4237 H         1 UNK         0.0600 
    151 H151        4.0364  -22.8705  -43.6043 H         1 UNK         0.0600 
    152 H152        4.3172  -21.5158  -42.5217 H         1 UNK         0.0600 
    153 H153        4.2153  -21.2467  -44.2605 H         1 UNK         0.0600 
    154 H154        2.7893  -19.5612  -43.1114 H         1 UNK         0.3000 
    155 H155       -0.3992  -17.9267  -42.7110 H         1 UNK         0.0600 
    156 H156        0.7110  -18.1566  -40.4974 H         1 UNK         0.0600 
    157 H157        1.0786  -16.5980  -41.2238 H         1 UNK         0.0600 
    158 H158        2.2839  -17.8829  -41.2355 H         1 UNK         0.0600 
    159 H159        2.0683  -16.8264  -43.5252 H         1 UNK         0.3000 
    160 H160        1.7003  -17.2923  -47.0620 H         1 UNK         0.0600 
    161 H161        1.6387  -14.8673  -45.1815 H         1 UNK         0.0600 
    162 H162        0.4632  -15.2357  -46.4340 H         1 UNK         0.0600 
    163 H163        2.1150  -14.8377  -46.8794 H         1 UNK         0.0600 
    164 H164        3.7676  -16.2008  -45.3796 H         1 UNK         0.3000 
    165 H165        5.7268  -19.1845  -45.1625 H         1 UNK         0.0600 
    166 H166        7.3961  -17.6626  -46.1782 H         1 UNK         0.0600 
    167 H167        6.2343  -18.1733  -47.3922 H         1 UNK         0.0600 
    168 H168        6.1227  -16.5594  -46.6998 H         1 UNK         0.0600 
    169 H169        6.1538  -16.5221  -44.2172 H         1 UNK         0.3000 
    170 H170        4.5398  -16.8630  -41.0693 H         1 UNK         0.0600 
    171 H171        6.7268  -18.0340  -40.7538 H         1 UNK         0.0600 
    172 H172        7.5258  -16.8348  -41.7635 H         1 UNK         0.0600 
    173 H173        6.8099  -16.3627  -40.2218 H         1 UNK         0.0600 
    174 H174        6.1326  -14.7678  -42.0411 H         1 UNK         0.3000 
    175 H175        5.2542  -12.8194  -42.5634 H         1 UNK         0.0600 
    176 H176        3.7743  -13.3867  -45.1937 H         1 UNK         0.0600 
    177 H177        4.7985  -11.9918  -44.8587 H         1 UNK         0.0600 
    178 H178        5.5024  -13.5984  -44.9382 H         1 UNK         0.0600 
    179 H179        2.6672  -12.0451  -43.4524 H         1 UNK         0.3000 
    180 H180        0.8246  -12.0511  -40.6073 H         1 UNK         0.0600 
    181 H181        2.4431   -9.5003  -41.1340 H         1 UNK         0.0600 
    182 H182        2.2880  -10.3129  -39.5814 H         1 UNK         0.0600 
    183 H183        0.8772   -9.5805  -40.3249 H         1 UNK         0.0600 
    184 H184        0.8208  -10.2115  -42.8238 H         1 UNK         0.3000 
    185 H185       -1.0329  -10.5206  -44.2519 H         1 UNK         0.0600 
    186 H186        1.1869  -10.7314  -45.3827 H         1 UNK         0.0600 
    187 H187        0.8317  -12.3959  -45.8322 H         1 UNK         0.0600 
    188 H188       -0.0973  -11.0725  -46.5308 H         1 UNK         0.0600 
    189 H189       -1.4607  -13.4083  -44.7806 H         1 UNK         0.3000 
    190 H190       -1.4120  -21.6362  -43.5373 H         1 UNK         0.3000 
    191 H191       -3.4394  -23.2249  -42.3331 H         1 UNK         0.0600 
    192 H192       -0.3927  -23.3273  -42.0223 H         1 UNK         0.0600 
    193 H193       -1.5021  -22.3362  -41.0777 H         1 UNK         0.0600 
    194 H194       -1.5521  -24.0869  -40.9387 H         1 UNK         0.0600 
    195 H195       -0.8741  -24.0514  -44.6714 H         1 UNK         0.3000 
    196 H196       -1.4751  -26.8754  -44.7915 H         1 UNK         0.0600 
    197 H197        0.0794  -25.0565  -46.7060 H         1 UNK         0.0600 
    198 H198        0.1075  -26.8146  -46.7084 H         1 UNK         0.0600 
    199 H199        0.7664  -25.9337  -45.3399 H         1 UNK         0.0600 
    200 H200       -3.2209  -24.2260  -45.9123 H         1 UNK         0.3000 
    201 H201       -4.9203  -23.8456  -47.2476 H         1 UNK         0.0600 
    202 H202       -6.4885  -25.6562  -47.8153 H         1 UNK         0.0600 
    203 H203       -5.9180  -25.8605  -46.1671 H         1 UNK         0.0600 
    204 H204       -5.2802  -26.8804  -47.4561 H         1 UNK         0.0600 
    205 H205       -2.5456  -23.4809  -48.4289 H         1 UNK         0.3000 
    206 H206       -2.1764  -24.7074  -50.9403 H         1 UNK         0.0600 
    207 H207       -0.6479  -22.7296  -51.3305 H         1 UNK         0.0600 
    208 H208       -0.3864  -23.5041  -49.7759 H         1 UNK         0.0600 
    209 H209       -1.2832  -21.9892  -49.8694 H         1 UNK         0.0600 
    210 H210       -4.5526  -22.4123  -50.0837 H         1 UNK         0.3000 
    211 H211       -6.2350  -21.4281  -51.0983 H         1 UNK         0.0600 
    212 H212       -6.5468  -23.8280  -51.8438 H         1 UNK         0.0600 
    213 H213       -7.3407  -22.6385  -52.8572 H         1 UNK         0.0600 
    214 H214       -5.8485  -23.3929  -53.4004 H         1 UNK         0.0600 
    215 H215       -5.6053  -19.3945  -51.4091 H         1 UNK         0.3000 
    216 H216       -3.8421  -18.2132  -53.1005 H         1 UNK         0.0600 
    217 H217       -5.0900  -16.1288  -52.6153 H         1 UNK         0.0600 
    218 H218       -6.4914  -17.0567  -52.0895 H         1 UNK         0.0600 
    219 H219       -4.9897  -17.1341  -51.1786 H         1 UNK         0.0600 
    220 H220       -3.6239  -18.2592  -55.1994 H         1 UNK         0.3000 
    221 H221       -3.8833  -18.2012  -57.3765 H         1 UNK         0.0600 
    222 H222       -5.5277  -16.6885  -58.3901 H         1 UNK         0.0600 
    223 H223       -6.5064  -16.6899  -56.9307 H         1 UNK         0.0600 
    224 H224       -4.9024  -15.9576  -56.9231 H         1 UNK         0.0600 
    225 H225       -5.3061  -20.4494  -55.7591 H         1 UNK         0.3000 
    226 H226       -7.0239  -21.5059  -57.9809 H         1 UNK         0.0600 
    227 H227       -8.3854  -20.8458  -56.0577 H         1 UNK         0.0600 
    228 H228       -8.3305  -22.6011  -56.1469 H         1 UNK         0.0600 
    229 H229       -7.3513  -21.7475  -54.9584 H         1 UNK         0.0600 
    230 H230       -4.4557  -22.3093  -55.6002 H         1 UNK         0.3000 
    231 H231       -3.8915  -24.7345  -57.1956 H         1 UNK         0.0600 
    232 H232       -3.7966  -26.1906  -55.2219 H         1 UNK         0.0600 
    233 H233       -5.4080  -25.5203  -55.3711 H         1 UNK         0.0600 
    234 H234       -4.3042  -24.8800  -54.1629 H         1 UNK         0.0600 
    235 H235       -2.2141  -24.9206  -54.3661 H         1 UNK         0.3000 
    236 H236        0.2719  -24.6168  -55.6192 H         1 UNK         0.0600 
    237 H237       -0.0945  -26.1147  -53.7063 H         1 UNK         0.0600 
    238 H238        1.1700  -24.9664  -53.2983 H         1 UNK         0.0600 
    239 H239       -0.4500  -24.7510  -52.6494 H         1 UNK         0.0600 
    240 H240       -1.6040  -22.1694  -53.8868 H         1 UNK         0.3000 
    241 H241        0.4800  -20.1980  -54.6838 H         1 UNK         0.0600 
    242 H242       -1.8202  -21.3019  -56.2879 H         1 UNK         0.3800 
    243 H243       -2.6524  -19.8436  -56.7419 H         1 UNK         0.3800 
    244 H244        0.0932  -18.7663  -52.8574 H         1 UNK         0.0800 
    245 H245        0.4760  -20.3377  -52.2151 H         1 UNK         0.0800 
    246 H246       -0.6730  -19.5242  -49.6193 H         1 UNK         0.0800 
    247 H247       -0.4466  -18.0848  -50.5818 H         1 UNK         0.0800 
@<TRIPOS>BOND
     1    1    2 1    
     2    1  127 1    
     3    1  128 1    
     4    1  129 1    
     5    2    3 2    
     6    2    4 am   BACKBONE|DICT|INTERRES
     7    4    5 1    
     8    4  130 1    
     9    5    6 1    
    10    5   65 1    
    11    5  131 1    
    12    6    7 1    
    13    6  132 1    
    14    6  133 1    
    15    7    8 1    
    16    8    9 1    
    17    8  134 1    
    18    8  135 1    
    19    9   10 ar   
    20    9   14 ar   
    21   10   11 ar   
    22   10  136 1    
    23   11   12 ar   
    24   11  126 1    
    25   12   13 ar   
    26   12  137 1    
    27   13   14 ar   
    28   13   15 1    
    29   14  138 1    
    30   15   16 1    
    31   15  139 1    
    32   15  140 1    
    33   16   17 1    
    34   17   18 1    
    35   17  141 1    
    36   17  142 1    
    37   18   19 1    
    38   18   67 1    
    39   18  143 1    
    40   19   20 am   BACKBONE|DICT|INTERRES
    41   19  144 1    
    42   20   21 2    
    43   20   22 1    
    44   22   23 1    
    45   22   24 1    
    46   22  145 1    
    47   23  146 1    
    48   23  147 1    
    49   23  148 1    
    50   24   25 am   BACKBONE|DICT|INTERRES
    51   24  149 1    
    52   25   26 2    
    53   25   27 1    
    54   27   28 1    
    55   27   29 1    
    56   27  150 1    
    57   28  151 1    
    58   28  152 1    
    59   28  153 1    
    60   29   30 am   BACKBONE|DICT|INTERRES
    61   29  154 1    
    62   30   31 2    
    63   30   32 1    
    64   32   33 1    
    65   32   34 1    
    66   32  155 1    
    67   33  156 1    
    68   33  157 1    
    69   33  158 1    
    70   34   35 am   BACKBONE|DICT|INTERRES
    71   34  159 1    
    72   35   36 2    
    73   35   37 1    
    74   37   38 1    
    75   37   39 1    
    76   37  160 1    
    77   38  161 1    
    78   38  162 1    
    79   38  163 1    
    80   39   40 am   BACKBONE|DICT|INTERRES
    81   39  164 1    
    82   40   41 2    
    83   40   42 1    
    84   42   43 1    
    85   42   44 1    
    86   42  165 1    
    87   43  166 1    
    88   43  167 1    
    89   43  168 1    
    90   44   45 am   BACKBONE|DICT|INTERRES
    91   44  169 1    
    92   45   46 2    
    93   45   47 1    
    94   47   48 1    
    95   47   49 1    
    96   47  170 1    
    97   48  171 1    
    98   48  172 1    
    99   48  173 1    
   100   49   50 am   BACKBONE|DICT|INTERRES
   101   49  174 1    
   102   50   51 2    
   103   50   52 1    
   104   52   53 1    
   105   52   54 1    
   106   52  175 1    
   107   53  176 1    
   108   53  177 1    
   109   53  178 1    
   110   54   55 am   BACKBONE|DICT|INTERRES
   111   54  179 1    
   112   55   56 2    
   113   55   57 1    
   114   57   58 1    
   115   57   59 1    
   116   57  180 1    
   117   58  181 1    
   118   58  182 1    
   119   58  183 1    
   120   59   60 am   BACKBONE|DICT|INTERRES
   121   59  184 1    
   122   60   61 2    
   123   60   62 1    
   124   62   63 1    
   125   62   64 1    
   126   62  185 1    
   127   63  186 1    
   128   63  187 1    
   129   63  188 1    
   130   64   65 am   BACKBONE|DICT|INTERRES
   131   64  189 1    
   132   65   66 2    
   133   67   68 2    
   134   67   69 am   BACKBONE|DICT|INTERRES
   135   69   70 1    
   136   69  190 1    
   137   70   71 1    
   138   70   72 1    
   139   70  191 1    
   140   71  192 1    
   141   71  193 1    
   142   71  194 1    
   143   72   73 2    
   144   72   74 am   BACKBONE|DICT|INTERRES
   145   74   75 1    
   146   74  195 1    
   147   75   76 1    
   148   75   77 1    
   149   75  196 1    
   150   76  197 1    
   151   76  198 1    
   152   76  199 1    
   153   77   78 2    
   154   77   79 am   BACKBONE|DICT|INTERRES
   155   79   80 1    
   156   79  200 1    
   157   80   81 1    
   158   80   82 1    
   159   80  201 1    
   160   81  202 1    
   161   81  203 1    
   162   81  204 1    
   163   82   83 2    
   164   82   84 am   BACKBONE|DICT|INTERRES
   165   84   85 1    
   166   84  205 1    
   167   85   86 1    
   168   85   87 1    
   169   85  206 1    
   170   86  207 1    
   171   86  208 1    
   172   86  209 1    
   173   87   88 2    
   174   87   89 am   BACKBONE|DICT|INTERRES
   175   89   90 1    
   176   89  210 1    
   177   90   91 1    
   178   90   92 1    
   179   90  211 1    
   180   91  212 1    
   181   91  213 1    
   182   91  214 1    
   183   92   93 2    
   184   92   94 am   BACKBONE|DICT|INTERRES
   185   94   95 1    
   186   94  215 1    
   187   95   96 1    
   188   95   97 1    
   189   95  216 1    
   190   96  217 1    
   191   96  218 1    
   192   96  219 1    
   193   97   98 2    
   194   97   99 am   BACKBONE|DICT|INTERRES
   195   99  100 1    
   196   99  220 1    
   197  100  101 1    
   198  100  102 1    
   199  100  221 1    
   200  101  222 1    
   201  101  223 1    
   202  101  224 1    
   203  102  103 2    
   204  102  104 am   BACKBONE|DICT|INTERRES
   205  104  105 1    
   206  104  225 1    
   207  105  106 1    
   208  105  107 1    
   209  105  226 1    
   210  106  227 1    
   211  106  228 1    
   212  106  229 1    
   213  107  108 2    
   214  107  109 am   BACKBONE|DICT|INTERRES
   215  109  110 1    
   216  109  230 1    
   217  110  111 1    
   218  110  112 1    
   219  110  231 1    
   220  111  232 1    
   221  111  233 1    
   222  111  234 1    
   223  112  113 2    
   224  112  114 am   BACKBONE|DICT|INTERRES
   225  114  115 1    
   226  114  235 1    
   227  115  116 1    
   228  115  117 1    
   229  115  236 1    
   230  116  237 1    
   231  116  238 1    
   232  116  239 1    
   233  117  118 2    
   234  117  119 am   BACKBONE|DICT|INTERRES
   235  119  120 1    
   236  119  240 1    
   237  120  121 1    
   238  120  124 1    
   239  120  241 1    
   240  121  122 am   BACKBONE|DICT|INTERRES
   241  121  123 2    
   242  122  242 1    
   243  122  243 1    
   244  124  125 1    
   245  124  244 1    
   246  124  245 1    
   247  125  126 1    
   248  126  246 1    
   249  126  247 1    
@<TRIPOS>SUBSTRUCTURE
     1 UNK         1 GROUP             0       ****    0 ROOT    
