@<TRIPOS>MOLECULE
3R540
247   249    1
SMALL
USER_CHARGES


@<TRIPOS>ATOM
      1 CA          0.3359  -15.1625  -51.2274 C.3       0 UNK        -0.1800 
      2 C           1.6477  -14.4700  -50.8962 C.2       0 UNK         0.5000 
      3 O           1.9808  -13.4607  -51.5177 O.2       0 UNK        -0.5000 
      4 N           2.3942  -15.0081  -49.9214 N.am      1 UNK        -0.5000 
      5 CA          3.6719  -14.4526  -49.4573 C.3       1 UNK         0.1400 
      6 C6          4.4828  -15.4613  -48.6025 C.3       23 UNK        -0.0398 
      7 S7          3.6927  -15.9409  -47.0213 S.3       23 UNK        -0.2404 
      8 C8          3.4623  -17.7341  -47.2374 C.3       23 UNK        -0.0205 
      9 C9          2.3896  -18.0711  -48.2644 C.ar      23 UNK        -0.0193 
     10 C10         1.0756  -17.6225  -48.0931 C.ar      23 UNK        -0.1150 
     11 C11         0.0872  -17.9300  -49.0327 C.ar      23 UNK        -0.0193 
     12 C12         0.4280  -18.6888  -50.1512 C.ar      23 UNK        -0.1150 
     13 C13         1.7142  -19.2065  -50.2969 C.ar      23 UNK        -0.0193 
     14 C14         2.6993  -18.8770  -49.3632 C.ar      23 UNK        -0.1150 
     15 C15         2.0195  -20.1570  -51.4404 C.3       23 UNK        -0.0205 
     16 S16         1.8394  -21.8938  -50.9160 S.3       23 UNK        -0.2404 
     17 C17         0.0345  -22.0697  -50.6832 C.3       23 UNK        -0.0398 
     18 CA         -0.3290  -22.7623  -49.3493 C.3       11 UNK         0.1400 
     19 N           0.0766  -22.0042  -48.1579 N.am      11 UNK        -0.5000 
     20 C           0.2746  -22.5797  -46.9630 C.2       10 UNK         0.5000 
     21 O           0.1166  -23.7842  -46.7566 O.2       10 UNK        -0.5000 
     22 CA          0.6604  -21.6556  -45.7940 C.3       10 UNK         0.1400 
     23 CB          2.0716  -21.0835  -45.9887 C.3       10 UNK        -0.1800 
     24 N          -0.2907  -20.5646  -45.5518 N.am      10 UNK        -0.5000 
     25 C          -1.5896  -20.7390  -45.2493 C.2       9 UNK         0.5000 
     26 O          -2.1365  -21.8400  -45.2810 O.2       9 UNK        -0.5000 
     27 CA         -2.4314  -19.5182  -44.8239 C.3       9 UNK         0.1400 
     28 CB         -3.1027  -19.7497  -43.4582 C.3       9 UNK        -0.1800 
     29 N          -1.6353  -18.2988  -44.7698 N.am      9 UNK        -0.5000 
     30 C          -2.0533  -17.0509  -44.9889 C.2       8 UNK         0.5000 
     31 O          -3.2262  -16.7667  -45.2371 O.2       8 UNK        -0.5000 
     32 CA         -0.9761  -15.9356  -44.9389 C.3       8 UNK         0.1400 
     33 CB         -1.5866  -14.5429  -44.7011 C.3       8 UNK        -0.1800 
     34 N           0.1079  -16.1393  -43.9677 N.am      8 UNK        -0.5000 
     35 C           1.0386  -17.1055  -43.9515 C.2       7 UNK         0.5000 
     36 O           1.0907  -18.0178  -44.7757 O.2       7 UNK        -0.5000 
     37 CA          2.0447  -17.0860  -42.7897 C.3       7 UNK         0.1400 
     38 CB          3.2782  -16.2472  -43.1537 C.3       7 UNK        -0.1800 
     39 N           1.4439  -16.5753  -41.5567 N.am      7 UNK        -0.5000 
     40 C           0.6303  -17.2860  -40.7614 C.2       6 UNK         0.5000 
     41 O           0.3376  -18.4649  -40.9627 O.2       6 UNK        -0.5000 
     42 CA          0.0459  -16.5618  -39.5329 C.3       6 UNK         0.1400 
     43 CB          0.9542  -16.7630  -38.3103 C.3       6 UNK        -0.1800 
     44 N          -0.1388  -15.1276  -39.7578 N.am      6 UNK        -0.5000 
     45 C          -1.1217  -14.5945  -40.4974 C.2       5 UNK         0.5000 
     46 O          -2.0246  -15.2526  -41.0132 O.2       5 UNK        -0.5000 
     47 CA         -1.0617  -13.0702  -40.7271 C.3       5 UNK         0.1400 
     48 CB         -1.8436  -12.3278  -39.6330 C.3       5 UNK        -0.1800 
     49 N           0.3081  -12.5457  -40.7849 N.am      5 UNK        -0.5000 
     50 C           1.2030  -12.8854  -41.7205 C.2       4 UNK         0.5000 
     51 O           0.9607  -13.6720  -42.6400 O.2       4 UNK        -0.5000 
     52 CA          2.6169  -12.3107  -41.5727 C.3       4 UNK         0.1400 
     53 CB          3.3876  -13.0724  -40.4754 C.3       4 UNK        -0.1800 
     54 N           3.2858  -12.4535  -42.8602 N.am      4 UNK        -0.5000 
     55 C           4.4590  -11.9276  -43.2243 C.2       3 UNK         0.5000 
     56 O           5.1536  -11.2209  -42.4928 O.2       3 UNK        -0.5000 
     57 CA          4.9348  -12.2391  -44.6560 C.3       3 UNK         0.1400 
     58 CB          5.8163  -13.4976  -44.6719 C.3       3 UNK        -0.1800 
     59 N           3.8377  -12.4186  -45.6100 N.am      3 UNK        -0.5000 
     60 C           3.0550  -11.4311  -46.0695 C.2       2 UNK         0.5000 
     61 O           3.1383  -10.2652  -45.6792 O.2       2 UNK        -0.5000 
     62 CA          2.0142  -11.8115  -47.1489 C.3       2 UNK         0.1400 
     63 CB          1.6258  -10.6198  -48.0480 C.3       2 UNK        -0.1800 
     64 N           2.4040  -12.9643  -47.9714 N.am      2 UNK        -0.5000 
     65 C           3.5032  -13.0973  -48.7339 C.2       1 UNK         0.5000 
     66 O           4.3613  -12.2247  -48.8739 O.2       1 UNK        -0.5000 
     67 C          -1.8202  -23.1626  -49.3136 C.2       11 UNK         0.5000 
     68 O          -2.2159  -24.0339  -50.0894 O.2       11 UNK        -0.5000 
     69 N          -2.6199  -22.5602  -48.4202 N.am      12 UNK        -0.5000 
     70 CA         -3.9912  -22.9893  -48.1461 C.3       12 UNK         0.1400 
     71 CB         -4.7863  -21.8685  -47.4612 C.3       12 UNK        -0.1800 
     72 C          -4.0027  -24.2710  -47.2985 C.2       12 UNK         0.5000 
     73 O          -4.6728  -25.2345  -47.6662 O.2       12 UNK        -0.5000 
     74 N          -3.2175  -24.2782  -46.2119 N.am      13 UNK        -0.5000 
     75 CA         -3.0330  -25.4155  -45.3081 C.3       13 UNK         0.1400 
     76 CB         -2.2060  -24.9687  -44.0932 C.3       13 UNK        -0.1800 
     77 C          -2.3804  -26.6287  -45.9953 C.2       13 UNK         0.5000 
     78 O          -2.7638  -27.7652  -45.7164 O.2       13 UNK        -0.5000 
     79 N          -1.4386  -26.3638  -46.9113 N.am      14 UNK        -0.5000 
     80 CA         -0.8044  -27.3697  -47.7666 C.3       14 UNK         0.1400 
     81 CB          0.4889  -26.7794  -48.3495 C.3       14 UNK        -0.1800 
     82 C          -1.7150  -27.8763  -48.9063 C.2       14 UNK         0.5000 
     83 O          -1.3632  -28.8648  -49.5509 O.2       14 UNK        -0.5000 
     84 N          -2.8400  -27.1845  -49.1537 N.am      15 UNK        -0.5000 
     85 CA         -3.8070  -27.4036  -50.2368 C.3       15 UNK         0.1400 
     86 CB         -4.5406  -28.7485  -50.0584 C.3       15 UNK        -0.1800 
     87 C          -3.1897  -27.2287  -51.6419 C.2       15 UNK         0.5000 
     88 O          -3.6064  -27.8921  -52.5929 O.2       15 UNK        -0.5000 
     89 N          -2.2010  -26.3328  -51.7395 N.am      16 UNK        -0.5000 
     90 CA         -1.4499  -26.0274  -52.9534 C.3       16 UNK         0.1400 
     91 CB          0.0157  -25.7650  -52.5723 C.3       16 UNK        -0.1800 
     92 C          -2.0390  -24.8237  -53.7081 C.2       16 UNK         0.5000 
     93 O          -1.9393  -24.7826  -54.9348 O.2       16 UNK        -0.5000 
     94 N          -2.6425  -23.8740  -52.9784 N.am      17 UNK        -0.5000 
     95 CA         -3.2454  -22.6607  -53.5385 C.3       17 UNK         0.1400 
     96 CB         -2.2144  -21.5180  -53.5598 C.3       17 UNK        -0.1800 
     97 C          -4.5335  -22.2543  -52.8024 C.2       17 UNK         0.5000 
     98 O          -4.9309  -21.0884  -52.8841 O.2       17 UNK        -0.5000 
     99 N          -5.1658  -23.2107  -52.1067 N.am      18 UNK        -0.5000 
    100 CA        -6.4129  -23.0438  -51.3579 C.3       18 UNK         0.1400 
    101 CB        -6.7906  -24.3828  -50.7032 C.3       18 UNK        -0.1800 
    102 C         -7.5576  -22.5259  -52.2485 C.2       18 UNK         0.5000 
    103 O         -7.9901  -23.2360  -53.1579 O.2       18 UNK        -0.5000 
    104 N         -7.9772  -21.2809  -51.9901 N.am      19 UNK        -0.5000 
    105 CA        -8.9740  -20.4848  -52.7154 C.3       19 UNK         0.1400 
    106 CB       -10.3500  -21.1825  -52.7310 C.3       19 UNK        -0.1800 
    107 C         -8.5302  -20.0330  -54.1247 C.2       19 UNK         0.5000 
    108 O         -9.3244  -19.4054  -54.8273 O.2       19 UNK        -0.5000 
    109 N         -7.2801  -20.3224  -54.5097 N.am      20 UNK        -0.5000 
    110 CA        -6.6735  -19.8946  -55.7688 C.3       20 UNK         0.1400 
    111 CB        -5.8140  -21.0325  -56.3420 C.3       20 UNK        -0.1800 
    112 C         -5.8311  -18.6286  -55.5539 C.2       20 UNK         0.5000 
    113 O         -5.9608  -17.6778  -56.3261 O.2       20 UNK        -0.5000 
    114 N         -5.0007  -18.6301  -54.5022 N.am      21 UNK        -0.5000 
    115 CA        -4.1345  -17.5088  -54.1282 C.3       21 UNK         0.1400 
    116 CB        -2.8220  -17.5665  -54.9343 C.3       21 UNK        -0.1800 
    117 C         -3.8715  -17.4438  -52.6121 C.2       21 UNK         0.5000 
    118 O         -3.0454  -16.6384  -52.1813 O.2       21 UNK        -0.5000 
    119 N         -4.5563  -18.2788  -51.8224 N.am      22 UNK        -0.5000 
    120 CA        -4.4083  -18.3719  -50.3687 C.3       22 UNK         0.1400 
    121 C         -5.7304  -18.8469  -49.7144 C.2       22 UNK         0.5000 
    122 N         -5.9952  -18.4537  -48.4772 N.am      22 UNK        -0.7600 
    123 O         -6.5089  -19.5896  -50.3080 O.2       22 UNK        -0.5000 
    124 C124       -3.1996  -19.2686  -49.9908 C.3       23 UNK        -0.0398 
    125 S125       -2.4610  -18.8177  -48.3843 S.3       23 UNK        -0.2404 
    126 C126       -1.3452  -17.4529  -48.8483 C.3       23 UNK        -0.0205 
    127 H127       -0.3469  -15.1007  -50.3810 H         1 UNK         0.0600 
    128 H128        0.5047  -16.2102  -51.4724 H         1 UNK         0.0600 
    129 H129       -0.1467  -14.6923  -52.0845 H         1 UNK         0.0600 
    130 H130        2.0850  -15.8519  -49.4574 H         1 UNK         0.3000 
    131 H131        4.2684  -14.2506  -50.3498 H         1 UNK         0.0600 
    132 H132        5.4655  -15.0464  -48.3715 H         1 UNK         0.0800 
    133 H133        4.6819  -16.3555  -49.1944 H         1 UNK         0.0800 
    134 H134        3.1835  -18.1700  -46.2789 H         1 UNK         0.0800 
    135 H135        4.4184  -18.1862  -47.5050 H         1 UNK         0.0800 
    136 H136        0.8339  -17.0319  -47.2245 H         1 UNK         0.1150 
    137 H137       -0.3162  -18.9047  -50.9001 H         1 UNK         0.1150 
    138 H138        3.6994  -19.2700  -49.4815 H         1 UNK         0.1150 
    139 H139        1.3688  -19.9606  -52.2941 H         1 UNK         0.0800 
    140 H140        3.0403  -19.9955  -51.7896 H         1 UNK         0.0800 
    141 H141       -0.3282  -22.6537  -51.5296 H         1 UNK         0.0800 
    142 H142       -0.4669  -21.1089  -50.7544 H         1 UNK         0.0800 
    143 H143        0.2243  -23.7023  -49.3388 H         1 UNK         0.0600 
    144 H144        0.2224  -21.0101  -48.2659 H         1 UNK         0.3000 
    145 H145        0.6757  -22.2698  -44.8913 H         1 UNK         0.0600 
    146 H146        2.1248  -20.4423  -46.8667 H         1 UNK         0.0600 
    147 H147        2.3848  -20.4976  -45.1245 H         1 UNK         0.0600 
    148 H148        2.8023  -21.8820  -46.1227 H         1 UNK         0.0600 
    149 H149        0.1104  -19.6349  -45.5311 H         1 UNK         0.3000 
    150 H150       -3.2129  -19.4016  -45.5766 H         1 UNK         0.0600 
    151 H151       -3.7246  -20.6457  -43.4701 H         1 UNK         0.0600 
    152 H152       -3.7480  -18.9136  -43.1883 H         1 UNK         0.0600 
    153 H153       -2.3627  -19.8708  -42.6661 H         1 UNK         0.0600 
    154 H154       -0.6419  -18.4145  -44.5926 H         1 UNK         0.3000 
    155 H155       -0.5191  -15.9106  -45.9265 H         1 UNK         0.0600 
    156 H156       -2.3319  -14.3006  -45.4596 H         1 UNK         0.0600 
    157 H157       -0.8246  -13.7644  -44.7437 H         1 UNK         0.0600 
    158 H158       -2.0740  -14.4829  -43.7277 H         1 UNK         0.0600 
    159 H159        0.1901  -15.4155  -43.2623 H         1 UNK         0.3000 
    160 H160        2.3762  -18.1123  -42.6174 H         1 UNK         0.0600 
    161 H161        3.0096  -15.2263  -43.4212 H         1 UNK         0.0600 
    162 H162        3.7996  -16.6800  -44.0081 H         1 UNK         0.0600 
    163 H163        3.9890  -16.2048  -42.3285 H         1 UNK         0.0600 
    164 H164        1.5953  -15.6001  -41.3490 H         1 UNK         0.3000 
    165 H165       -0.9259  -17.0095  -39.3132 H         1 UNK         0.0600 
    166 H166        0.5205  -16.3108  -37.4181 H         1 UNK         0.0600 
    167 H167        1.0953  -17.8239  -38.0994 H         1 UNK         0.0600 
    168 H168        1.9412  -16.3247  -38.4639 H         1 UNK         0.0600 
    169 H169        0.5480  -14.5092  -39.3527 H         1 UNK         0.3000 
    170 H170       -1.5395  -12.8645  -41.6874 H         1 UNK         0.0600 
    171 H171       -2.8743  -12.6815  -39.5817 H         1 UNK         0.0600 
    172 H172       -1.3971  -12.4736  -38.6486 H         1 UNK         0.0600 
    173 H173       -1.8790  -11.2564  -39.8313 H         1 UNK         0.0600 
    174 H174        0.5760  -11.9002  -40.0555 H         1 UNK         0.3000 
    175 H175        2.5457  -11.2511  -41.3202 H         1 UNK         0.0600 
    176 H176        3.5015  -14.1283  -40.7232 H         1 UNK         0.0600 
    177 H177        4.3843  -12.6583  -40.3250 H         1 UNK         0.0600 
    178 H178        2.8728  -13.0127  -39.5159 H         1 UNK         0.0600 
    179 H179        2.7546  -12.9938  -43.5317 H         1 UNK         0.3000 
    180 H180        5.5420  -11.3958  -44.9919 H         1 UNK         0.0600 
    181 H181        5.2594  -14.3848  -44.3695 H         1 UNK         0.0600 
    182 H182        6.6612  -13.3920  -43.9902 H         1 UNK         0.0600 
    183 H183        6.2227  -13.6816  -45.6667 H         1 UNK         0.0600 
    184 H184        3.7103  -13.3467  -45.9873 H         1 UNK         0.3000 
    185 H185        1.1198  -12.1169  -46.6040 H         1 UNK         0.0600 
    186 H186        0.8823  -10.9121  -48.7896 H         1 UNK         0.0600 
    187 H187        1.1943   -9.8081  -47.4612 H         1 UNK         0.0600 
    188 H188        2.4884  -10.2171  -48.5796 H         1 UNK         0.0600 
    189 H189        1.7782  -13.7560  -47.9330 H         1 UNK         0.3000 
    190 H190       -2.2202  -21.8763  -47.7939 H         1 UNK         0.3000 
    191 H191       -4.4764  -23.2046  -49.0983 H         1 UNK         0.0600 
    192 H192       -4.7387  -20.9462  -48.0331 H         1 UNK         0.0600 
    193 H193       -5.8386  -22.1409  -47.3738 H         1 UNK         0.0600 
    194 H194       -4.4238  -21.6534  -46.4572 H         1 UNK         0.0600 
    195 H195       -2.7201  -23.4254  -45.9613 H         1 UNK         0.3000 
    196 H196       -4.0193  -25.7245  -44.9561 H         1 UNK         0.0600 
    197 H197       -2.0640  -25.7911  -43.3911 H         1 UNK         0.0600 
    198 H198       -2.7030  -24.1617  -43.5544 H         1 UNK         0.0600 
    199 H199       -1.2184  -24.6121  -44.3889 H         1 UNK         0.0600 
    200 H200       -1.1203  -25.4055  -47.0152 H         1 UNK         0.3000 
    201 H201       -0.5386  -28.2301  -47.1491 H         1 UNK         0.0600 
    202 H202        1.1423  -26.3980  -47.5646 H         1 UNK         0.0600 
    203 H203        0.2791  -25.9641  -49.0408 H         1 UNK         0.0600 
    204 H204        1.0496  -27.5356  -48.9003 H         1 UNK         0.0600 
    205 H205       -3.0579  -26.4060  -48.5446 H         1 UNK         0.3000 
    206 H206       -4.5503  -26.6126  -50.1383 H         1 UNK         0.0600 
    207 H207       -3.8748  -29.5981  -50.2113 H         1 UNK         0.0600 
    208 H208       -4.9689  -28.8325  -49.0596 H         1 UNK         0.0600 
    209 H209       -5.3607  -28.8440  -50.7708 H         1 UNK         0.0600 
    210 H210       -1.9859  -25.7718  -50.9220 H         1 UNK         0.3000 
    211 H211       -1.4731  -26.8861  -53.6277 H         1 UNK         0.0600 
    212 H212        0.6098  -25.5056  -53.4495 H         1 UNK         0.0600 
    213 H213        0.4668  -26.6508  -52.1245 H         1 UNK         0.0600 
    214 H214        0.1098  -24.9489  -51.8565 H         1 UNK         0.0600 
    215 H215       -2.6534  -23.9653  -51.9664 H         1 UNK         0.3000 
    216 H216       -3.5502  -22.8588  -54.5676 H         1 UNK         0.0600 
    217 H217       -2.5836  -20.6821  -54.1527 H         1 UNK         0.0600 
    218 H218       -1.2703  -21.8348  -54.0030 H         1 UNK         0.0600 
    219 H219       -2.0124  -21.1411  -52.5582 H         1 UNK         0.0600 
    220 H220       -4.7982  -24.1483  -52.1547 H         1 UNK         0.3000 
    221 H221       -6.2281  -22.3184  -50.5632 H         1 UNK         0.0600 
    222 H222       -6.9406  -25.1676  -51.4457 H         1 UNK         0.0600 
    223 H223       -6.0206  -24.7213  -50.0124 H         1 UNK         0.0600 
    224 H224       -7.7157  -24.2897  -50.1330 H         1 UNK         0.0600 
    225 H225       -7.4826  -20.7584  -51.2661 H         1 UNK         0.3000 
    226 H226       -9.0835  -19.5670  -52.1359 H         1 UNK         0.0600 
    227 H227      -10.6502  -21.4864  -51.7282 H         1 UNK         0.0600 
    228 H228      -11.1227  -20.5127  -53.1099 H         1 UNK         0.0600 
    229 H229      -10.3511  -22.0683  -53.3664 H         1 UNK         0.0600 
    230 H230       -6.6770  -20.8070  -53.8554 H         1 UNK         0.3000 
    231 H231       -7.4504  -19.6658  -56.5014 H         1 UNK         0.0600 
    232 H232       -4.9703  -21.2718  -55.6964 H         1 UNK         0.0600 
    233 H233       -5.4094  -20.7582  -57.3170 H         1 UNK         0.0600 
    234 H234       -6.4018  -21.9407  -56.4769 H         1 UNK         0.0600 
    235 H235       -4.9297  -19.4669  -53.9312 H         1 UNK         0.3000 
    236 H236       -4.6442  -16.5752  -54.3746 H         1 UNK         0.0600 
    237 H237       -3.0136  -17.5761  -56.0072 H         1 UNK         0.0600 
    238 H238       -2.1965  -16.6969  -54.7290 H         1 UNK         0.0600 
    239 H239       -2.2376  -18.4527  -54.6897 H         1 UNK         0.0600 
    240 H240       -5.2383  -18.9159  -52.2117 H         1 UNK         0.3000 
    241 H241       -4.2295  -17.3591  -50.0015 H         1 UNK         0.0600 
    242 H242       -6.8503  -18.7593  -48.0411 H         1 UNK         0.3800 
    243 H243       -5.3553  -17.8703  -47.9606 H         1 UNK         0.3800 
    244 H244       -3.4820  -20.3221  -49.9814 H         1 UNK         0.0800 
    245 H245       -2.4274  -19.1948  -50.7524 H         1 UNK         0.0800 
    246 H246       -1.3928  -16.6863  -48.0750 H         1 UNK         0.0800 
    247 H247       -1.6986  -16.9782  -49.7642 H         1 UNK         0.0800 
@<TRIPOS>BOND
     1    1    2 1    
     2    1  127 1    
     3    1  128 1    
     4    1  129 1    
     5    2    3 2    
     6    2    4 am   BACKBONE|DICT|INTERRES
     7    4    5 1    
     8    4  130 1    
     9    5    6 1    
    10    5   65 1    
    11    5  131 1    
    12    6    7 1    
    13    6  132 1    
    14    6  133 1    
    15    7    8 1    
    16    8    9 1    
    17    8  134 1    
    18    8  135 1    
    19    9   10 ar   
    20    9   14 ar   
    21   10   11 ar   
    22   10  136 1    
    23   11   12 ar   
    24   11  126 1    
    25   12   13 ar   
    26   12  137 1    
    27   13   14 ar   
    28   13   15 1    
    29   14  138 1    
    30   15   16 1    
    31   15  139 1    
    32   15  140 1    
    33   16   17 1    
    34   17   18 1    
    35   17  141 1    
    36   17  142 1    
    37   18   19 1    
    38   18   67 1    
    39   18  143 1    
    40   19   20 am   BACKBONE|DICT|INTERRES
    41   19  144 1    
    42   20   21 2    
    43   20   22 1    
    44   22   23 1    
    45   22   24 1    
    46   22  145 1    
    47   23  146 1    
    48   23  147 1    
    49   23  148 1    
    50   24   25 am   BACKBONE|DICT|INTERRES
    51   24  149 1    
    52   25   26 2    
    53   25   27 1    
    54   27   28 1    
    55   27   29 1    
    56   27  150 1    
    57   28  151 1    
    58   28  152 1    
    59   28  153 1    
    60   29   30 am   BACKBONE|DICT|INTERRES
    61   29  154 1    
    62   30   31 2    
    63   30   32 1    
    64   32   33 1    
    65   32   34 1    
    66   32  155 1    
    67   33  156 1    
    68   33  157 1    
    69   33  158 1    
    70   34   35 am   BACKBONE|DICT|INTERRES
    71   34  159 1    
    72   35   36 2    
    73   35   37 1    
    74   37   38 1    
    75   37   39 1    
    76   37  160 1    
    77   38  161 1    
    78   38  162 1    
    79   38  163 1    
    80   39   40 am   BACKBONE|DICT|INTERRES
    81   39  164 1    
    82   40   41 2    
    83   40   42 1    
    84   42   43 1    
    85   42   44 1    
    86   42  165 1    
    87   43  166 1    
    88   43  167 1    
    89   43  168 1    
    90   44   45 am   BACKBONE|DICT|INTERRES
    91   44  169 1    
    92   45   46 2    
    93   45   47 1    
    94   47   48 1    
    95   47   49 1    
    96   47  170 1    
    97   48  171 1    
    98   48  172 1    
    99   48  173 1    
   100   49   50 am   BACKBONE|DICT|INTERRES
   101   49  174 1    
   102   50   51 2    
   103   50   52 1    
   104   52   53 1    
   105   52   54 1    
   106   52  175 1    
   107   53  176 1    
   108   53  177 1    
   109   53  178 1    
   110   54   55 am   BACKBONE|DICT|INTERRES
   111   54  179 1    
   112   55   56 2    
   113   55   57 1    
   114   57   58 1    
   115   57   59 1    
   116   57  180 1    
   117   58  181 1    
   118   58  182 1    
   119   58  183 1    
   120   59   60 am   BACKBONE|DICT|INTERRES
   121   59  184 1    
   122   60   61 2    
   123   60   62 1    
   124   62   63 1    
   125   62   64 1    
   126   62  185 1    
   127   63  186 1    
   128   63  187 1    
   129   63  188 1    
   130   64   65 am   BACKBONE|DICT|INTERRES
   131   64  189 1    
   132   65   66 2    
   133   67   68 2    
   134   67   69 am   BACKBONE|DICT|INTERRES
   135   69   70 1    
   136   69  190 1    
   137   70   71 1    
   138   70   72 1    
   139   70  191 1    
   140   71  192 1    
   141   71  193 1    
   142   71  194 1    
   143   72   73 2    
   144   72   74 am   BACKBONE|DICT|INTERRES
   145   74   75 1    
   146   74  195 1    
   147   75   76 1    
   148   75   77 1    
   149   75  196 1    
   150   76  197 1    
   151   76  198 1    
   152   76  199 1    
   153   77   78 2    
   154   77   79 am   BACKBONE|DICT|INTERRES
   155   79   80 1    
   156   79  200 1    
   157   80   81 1    
   158   80   82 1    
   159   80  201 1    
   160   81  202 1    
   161   81  203 1    
   162   81  204 1    
   163   82   83 2    
   164   82   84 am   BACKBONE|DICT|INTERRES
   165   84   85 1    
   166   84  205 1    
   167   85   86 1    
   168   85   87 1    
   169   85  206 1    
   170   86  207 1    
   171   86  208 1    
   172   86  209 1    
   173   87   88 2    
   174   87   89 am   BACKBONE|DICT|INTERRES
   175   89   90 1    
   176   89  210 1    
   177   90   91 1    
   178   90   92 1    
   179   90  211 1    
   180   91  212 1    
   181   91  213 1    
   182   91  214 1    
   183   92   93 2    
   184   92   94 am   BACKBONE|DICT|INTERRES
   185   94   95 1    
   186   94  215 1    
   187   95   96 1    
   188   95   97 1    
   189   95  216 1    
   190   96  217 1    
   191   96  218 1    
   192   96  219 1    
   193   97   98 2    
   194   97   99 am   BACKBONE|DICT|INTERRES
   195   99  100 1    
   196   99  220 1    
   197  100  101 1    
   198  100  102 1    
   199  100  221 1    
   200  101  222 1    
   201  101  223 1    
   202  101  224 1    
   203  102  103 2    
   204  102  104 am   BACKBONE|DICT|INTERRES
   205  104  105 1    
   206  104  225 1    
   207  105  106 1    
   208  105  107 1    
   209  105  226 1    
   210  106  227 1    
   211  106  228 1    
   212  106  229 1    
   213  107  108 2    
   214  107  109 am   BACKBONE|DICT|INTERRES
   215  109  110 1    
   216  109  230 1    
   217  110  111 1    
   218  110  112 1    
   219  110  231 1    
   220  111  232 1    
   221  111  233 1    
   222  111  234 1    
   223  112  113 2    
   224  112  114 am   BACKBONE|DICT|INTERRES
   225  114  115 1    
   226  114  235 1    
   227  115  116 1    
   228  115  117 1    
   229  115  236 1    
   230  116  237 1    
   231  116  238 1    
   232  116  239 1    
   233  117  118 2    
   234  117  119 am   BACKBONE|DICT|INTERRES
   235  119  120 1    
   236  119  240 1    
   237  120  121 1    
   238  120  124 1    
   239  120  241 1    
   240  121  122 am   BACKBONE|DICT|INTERRES
   241  121  123 2    
   242  122  242 1    
   243  122  243 1    
   244  124  125 1    
   245  124  244 1    
   246  124  245 1    
   247  125  126 1    
   248  126  246 1    
   249  126  247 1    
@<TRIPOS>SUBSTRUCTURE
     1 UNK         1 GROUP             0       ****    0 ROOT    
