@<TRIPOS>MOLECULE
3R540
247   249    1
SMALL
USER_CHARGES


@<TRIPOS>ATOM
      1 CA          0.1259  -10.9289  -46.8088 C.3       0 UNK        -0.1800 
      2 C          -0.6684  -12.1077  -46.2498 C.2       0 UNK         0.5000 
      3 O          -1.1351  -12.0354  -45.1160 O.2       0 UNK        -0.5000 
      4 N          -0.8581  -13.2062  -46.9940 N.am      1 UNK        -0.5000 
      5 CA         -0.3467  -13.4800  -48.3445 C.3       1 UNK         0.1400 
      6 C6         -1.2404  -14.4961  -49.1006 C.3       23 UNK        -0.0398 
      7 S7         -1.5403  -16.0563  -48.1962 S.3       23 UNK        -0.2404 
      8 C8         -2.2512  -17.1032  -49.5011 C.3       23 UNK        -0.0205 
      9 C9         -1.1675  -17.7083  -50.3773 C.ar      23 UNK        -0.0193 
     10 C10        -0.8017  -17.0993  -51.5803 C.ar      23 UNK        -0.1150 
     11 C11         0.2165  -17.6425  -52.3690 C.ar      23 UNK        -0.0193 
     12 C12         0.8853  -18.7896  -51.9314 C.ar      23 UNK        -0.1150 
     13 C13         0.5021  -19.4295  -50.7503 C.ar      23 UNK        -0.0193 
     14 C14        -0.5350  -18.8897  -49.9846 C.ar      23 UNK        -0.1150 
     15 C15         1.1600  -20.7411  -50.3525 C.3       23 UNK        -0.0205 
     16 S16         2.4369  -20.5640  -49.0607 S.3       23 UNK        -0.2404 
     17 C17         1.5023  -20.3321  -47.5056 C.3       23 UNK        -0.0398 
     18 CA          0.9621  -21.6519  -46.8924 C.3       11 UNK         0.1400 
     19 N           0.8818  -21.6043  -45.4314 N.am      11 UNK        -0.5000 
     20 C           0.6118  -22.6574  -44.6462 C.2       10 UNK         0.5000 
     21 O           0.4495  -23.8029  -45.0680 O.2       10 UNK        -0.5000 
     22 CA          0.4467  -22.3767  -43.1418 C.3       10 UNK         0.1400 
     23 CB          1.8137  -22.2478  -42.4540 C.3       10 UNK        -0.1800 
     24 N          -0.3599  -21.1843  -42.8741 N.am      10 UNK        -0.5000 
     25 C          -1.6503  -21.0539  -43.2161 C.2       9 UNK         0.5000 
     26 O          -2.3042  -21.9386  -43.7672 O.2       9 UNK        -0.5000 
     27 CA         -2.3155  -19.6955  -42.9352 C.3       9 UNK         0.1400 
     28 CB         -2.6970  -19.5692  -41.4529 C.3       9 UNK        -0.1800 
     29 N          -1.4780  -18.5629  -43.3258 N.am      9 UNK        -0.5000 
     30 C          -1.0663  -18.3124  -44.5773 C.2       8 UNK         0.5000 
     31 O          -1.3681  -18.9965  -45.5549 O.2       8 UNK        -0.5000 
     32 CA         -0.0991  -17.1314  -44.7522 C.3       8 UNK         0.1400 
     33 CB         -0.8404  -15.7930  -44.6216 C.3       8 UNK        -0.1800 
     34 N           1.0010  -17.1696  -43.7900 N.am      8 UNK        -0.5000 
     35 C           1.8828  -18.1714  -43.6625 C.2       7 UNK         0.5000 
     36 O           1.8962  -19.1709  -44.3779 O.2       7 UNK        -0.5000 
     37 CA          2.8931  -18.0572  -42.5114 C.3       7 UNK         0.1400 
     38 CB          4.0575  -17.1337  -42.8962 C.3       7 UNK        -0.1800 
     39 N           2.2609  -17.5792  -41.2827 N.am      7 UNK        -0.5000 
     40 C           1.3602  -18.2783  -40.5767 C.2       6 UNK         0.5000 
     41 O           0.9977  -19.4192  -40.8641 O.2       6 UNK        -0.5000 
     42 CA          0.7272  -17.5585  -39.3731 C.3       6 UNK         0.1400 
     43 CB          1.6560  -17.6191  -38.1512 C.3       6 UNK        -0.1800 
     44 N           0.4033  -16.1625  -39.6714 N.am      6 UNK        -0.5000 
     45 C          -0.5412  -15.7782  -40.5416 C.2       5 UNK         0.5000 
     46 O          -1.2628  -16.5630  -41.1569 O.2       5 UNK        -0.5000 
     47 CA         -0.6721  -14.2647  -40.7948 C.3       5 UNK         0.1400 
     48 CB         -1.5933  -13.6203  -39.7484 C.3       5 UNK        -0.1800 
     49 N           0.6162  -13.5648  -40.8069 N.am      5 UNK        -0.5000 
     50 C           1.5845  -13.7771  -41.7073 C.2       4 UNK         0.5000 
     51 O           1.5155  -14.6247  -42.5996 O.2       4 UNK        -0.5000 
     52 CA          2.8630  -12.9419  -41.5532 C.3       4 UNK         0.1400 
     53 CB          3.9216  -13.7232  -40.7600 C.3       4 UNK        -0.1800 
     54 N           3.4028  -12.6093  -42.8684 N.am      4 UNK        -0.5000 
     55 C           3.0936  -11.5113  -43.5646 C.2       3 UNK         0.5000 
     56 O           2.3539  -10.6213  -43.1432 O.2       3 UNK        -0.5000 
     57 CA          3.7099  -11.3751  -44.9700 C.3       3 UNK         0.1400 
     58 CB          5.2360  -11.1681  -44.9054 C.3       3 UNK        -0.1800 
     59 N           3.3460  -12.4585  -45.8915 N.am      3 UNK        -0.5000 
     60 C           3.6796  -13.7568  -45.8517 C.2       2 UNK         0.5000 
     61 O           4.3925  -14.2579  -44.9811 O.2       2 UNK        -0.5000 
     62 CA          3.0903  -14.6273  -46.9779 C.3       2 UNK         0.1400 
     63 CB          3.2039  -16.1356  -46.6989 C.3       2 UNK        -0.1800 
     64 N           1.6846  -14.2752  -47.1896 N.am      2 UNK        -0.5000 
     65 C           1.1405  -13.9060  -48.3569 C.2       1 UNK         0.5000 
     66 O           1.7695  -13.8496  -49.4135 O.2       1 UNK        -0.5000 
     67 C          -0.3907  -22.0638  -47.5039 C.2       11 UNK         0.5000 
     68 O          -0.4301  -23.0088  -48.2900 O.2       11 UNK        -0.5000 
     69 N          -1.4791  -21.3887  -47.1052 N.am      12 UNK        -0.5000 
     70 CA         -2.8393  -21.6702  -47.5695 C.3       12 UNK         0.1400 
     71 CB         -3.8091  -20.6242  -47.0030 C.3       12 UNK        -0.1800 
     72 C          -3.3161  -23.0953  -47.2346 C.2       12 UNK         0.5000 
     73 O          -3.9894  -23.7099  -48.0589 O.2       12 UNK        -0.5000 
     74 N          -2.9310  -23.6140  -46.0603 N.am      13 UNK        -0.5000 
     75 CA         -3.1752  -24.9973  -45.6531 C.3       13 UNK         0.1400 
     76 CB         -2.8351  -25.1704  -44.1652 C.3       13 UNK        -0.1800 
     77 C          -2.4013  -26.0121  -46.5154 C.2       13 UNK         0.5000 
     78 O          -2.9824  -27.0143  -46.9317 O.2       13 UNK        -0.5000 
     79 N          -1.1204  -25.7261  -46.7908 N.am      14 UNK        -0.5000 
     80 CA         -0.2454  -26.5510  -47.6279 C.3       14 UNK         0.1400 
     81 CB          1.2071  -26.0722  -47.4802 C.3       14 UNK        -0.1800 
     82 C          -0.6696  -26.5668  -49.1090 C.2       14 UNK         0.5000 
     83 O          -0.6618  -27.6279  -49.7340 O.2       14 UNK        -0.5000 
     84 N          -1.0545  -25.3966  -49.6348 N.am      15 UNK        -0.5000 
     85 CA         -1.5678  -25.2096  -50.9945 C.3       15 UNK         0.1400 
     86 CB         -1.4573  -23.7210  -51.3602 C.3       15 UNK        -0.1800 
     87 C          -3.0168  -25.7069  -51.1779 C.2       15 UNK         0.5000 
     88 O          -3.4584  -25.8649  -52.3157 O.2       15 UNK        -0.5000 
     89 N          -3.7243  -25.9251  -50.0603 N.am      16 UNK        -0.5000 
     90 CA         -5.1232  -26.3455  -49.9158 C.3       16 UNK         0.1400 
     91 CB         -5.3928  -27.6810  -50.6389 C.3       16 UNK        -0.1800 
     92 C          -6.1595  -25.2595  -50.2789 C.2       16 UNK         0.5000 
     93 O          -7.3600  -25.5285  -50.2084 O.2       16 UNK        -0.5000 
     94 N          -5.6974  -24.0509  -50.6144 N.am      17 UNK        -0.5000 
     95 CA         -6.4847  -22.8529  -50.8703 C.3       17 UNK         0.1400 
     96 CB         -7.2223  -22.9636  -52.2169 C.3       17 UNK        -0.1800 
     97 C          -5.5344  -21.6469  -50.8637 C.2       17 UNK         0.5000 
     98 O          -4.3565  -21.7954  -51.1967 O.2       17 UNK        -0.5000 
     99 N          -6.0631  -20.4723  -50.5016 N.am      18 UNK        -0.5000 
    100 CA        -5.3259  -19.2037  -50.4918 C.3       18 UNK         0.1400 
    101 CB        -5.9160  -18.3007  -49.3964 C.3       18 UNK        -0.1800 
    102 C         -5.3528  -18.4789  -51.8539 C.2       18 UNK         0.5000 
    103 O         -4.5830  -17.5398  -52.0544 O.2       18 UNK        -0.5000 
    104 N         -6.2408  -18.9099  -52.7550 N.am      19 UNK        -0.5000 
    105 CA        -6.4192  -18.3953  -54.1082 C.3       19 UNK         0.1400 
    106 CB        -7.5624  -17.3673  -54.1161 C.3       19 UNK        -0.1800 
    107 C         -6.7258  -19.5797  -55.0351 C.2       19 UNK         0.5000 
    108 O         -7.0363  -20.6693  -54.5479 O.2       19 UNK        -0.5000 
    109 N         -6.5913  -19.3662  -56.3506 N.am      20 UNK        -0.5000 
    110 CA        -6.7153  -20.3346  -57.4550 C.3       20 UNK         0.1400 
    111 CB        -8.0825  -21.0453  -57.4618 C.3       20 UNK        -0.1800 
    112 C         -5.5476  -21.3405  -57.5127 C.2       20 UNK         0.5000 
    113 O         -5.0018  -21.5775  -58.5905 O.2       20 UNK        -0.5000 
    114 N         -5.1307  -21.8468  -56.3453 N.am      21 UNK        -0.5000 
    115 CA        -3.8553  -22.5306  -56.1184 C.3       21 UNK         0.1400 
    116 CB        -3.9173  -23.2483  -54.7607 C.3       21 UNK        -0.1800 
    117 C         -2.6517  -21.5614  -56.1629 C.2       21 UNK         0.5000 
    118 O         -1.5132  -22.0097  -56.2987 O.2       21 UNK        -0.5000 
    119 N         -2.9274  -20.2566  -56.0580 N.am      22 UNK        -0.5000 
    120 CA        -1.9865  -19.1418  -56.1731 C.3       22 UNK         0.1400 
    121 C         -2.7229  -17.8736  -56.6882 C.2       22 UNK         0.5000 
    122 N         -1.9928  -16.8475  -57.0994 N.am      22 UNK        -0.7600 
    123 O         -3.9516  -17.8055  -56.7134 O.2       22 UNK        -0.5000 
    124 C124       -1.2277  -18.8957  -54.8432 C.3       23 UNK        -0.0398 
    125 S125        0.4410  -18.1947  -55.0951 S.3       23 UNK        -0.2404 
    126 C126        0.5646  -17.0104  -53.7109 C.3       23 UNK        -0.0205 
    127 H127        0.4247  -10.2582  -46.0026 H         1 UNK         0.0600 
    128 H128       -0.4881  -10.3609  -47.5076 H         1 UNK         0.0600 
    129 H129        1.0315  -11.2454  -47.3221 H         1 UNK         0.0600 
    130 H130       -1.4157  -13.9542  -46.6071 H         1 UNK         0.3000 
    131 H131       -0.3951  -12.5490  -48.9126 H         1 UNK         0.0600 
    132 H132       -2.2113  -14.0404  -49.2993 H         1 UNK         0.0800 
    133 H133       -0.8152  -14.7165  -50.0803 H         1 UNK         0.0800 
    134 H134       -2.9589  -16.5264  -50.0982 H         1 UNK         0.0800 
    135 H135       -2.8248  -17.9001  -49.0275 H         1 UNK         0.0800 
    136 H136       -1.3188  -16.2081  -51.9068 H         1 UNK         0.1150 
    137 H137        1.6723  -19.2117  -52.5406 H         1 UNK         0.1150 
    138 H138       -0.8599  -19.3856  -49.0828 H         1 UNK         0.1150 
    139 H139        0.3949  -21.4534  -50.0601 H         1 UNK         0.0800 
    140 H140        1.6369  -21.1873  -51.2265 H         1 UNK         0.0800 
    141 H141        0.7320  -19.5694  -47.6073 H         1 UNK         0.0800 
    142 H142        2.2277  -19.8950  -46.8198 H         1 UNK         0.0800 
    143 H143        1.6755  -22.4456  -47.1254 H         1 UNK         0.0600 
    144 H144        1.0441  -20.6982  -44.9971 H         1 UNK         0.3000 
    145 H145       -0.0719  -23.2314  -42.7026 H         1 UNK         0.0600 
    146 H146        1.7024  -22.1342  -41.3755 H         1 UNK         0.0600 
    147 H147        2.4228  -23.1360  -42.6264 H         1 UNK         0.0600 
    148 H148        2.3731  -21.3887  -42.8242 H         1 UNK         0.0600 
    149 H149        0.1021  -20.4209  -42.3904 H         1 UNK         0.3000 
    150 H150       -3.2319  -19.6475  -43.5269 H         1 UNK         0.0600 
    151 H151       -3.3296  -20.4006  -41.1393 H         1 UNK         0.0600 
    152 H152       -3.2520  -18.6496  -41.2668 H         1 UNK         0.0600 
    153 H153       -1.8169  -19.5631  -40.8090 H         1 UNK         0.0600 
    154 H154       -1.2023  -17.9266  -42.5835 H         1 UNK         0.3000 
    155 H155        0.3276  -17.1940  -45.7554 H         1 UNK         0.0600 
    156 H156       -1.2581  -15.6583  -43.6258 H         1 UNK         0.0600 
    157 H157       -1.6713  -15.7313  -45.3231 H         1 UNK         0.0600 
    158 H158       -0.1744  -14.9533  -44.8148 H         1 UNK         0.0600 
    159 H159        1.1055  -16.3526  -43.1933 H         1 UNK         0.3000 
    160 H160        3.2986  -19.0528  -42.3196 H         1 UNK         0.0600 
    161 H161        3.7154  -16.1218  -43.1116 H         1 UNK         0.0600 
    162 H162        4.5653  -17.4997  -43.7895 H         1 UNK         0.0600 
    163 H163        4.7995  -17.0776  -42.0998 H         1 UNK         0.0600 
    164 H164        2.4657  -16.6321  -41.0038 H         1 UNK         0.3000 
    165 H165       -0.2002  -18.0786  -39.1236 H         1 UNK         0.0600 
    166 H166        1.1824  -17.1773  -37.2744 H         1 UNK         0.0600 
    167 H167        1.9027  -18.6516  -37.9005 H         1 UNK         0.0600 
    168 H168        2.5938  -17.0910  -38.3284 H         1 UNK         0.0600 
    169 H169        0.9489  -15.4531  -39.2052 H         1 UNK         0.3000 
    170 H170       -1.1313  -14.1316  -41.7763 H         1 UNK         0.0600 
    171 H171       -2.5678  -14.1105  -39.7320 H         1 UNK         0.0600 
    172 H172       -1.1743  -13.6890  -38.7437 H         1 UNK         0.0600 
    173 H173       -1.7654  -12.5668  -39.9698 H         1 UNK         0.0600 
    174 H174        0.7511  -12.8594  -40.0970 H         1 UNK         0.3000 
    175 H175        2.6291  -12.0265  -41.0055 H         1 UNK         0.0600 
    176 H176        4.2120  -14.6431  -41.2668 H         1 UNK         0.0600 
    177 H177        4.8220  -13.1257  -40.6161 H         1 UNK         0.0600 
    178 H178        3.5511  -13.9943  -39.7706 H         1 UNK         0.0600 
    179 H179        3.9273  -13.3352  -43.3488 H         1 UNK         0.3000 
    180 H180        3.2851  -10.4695  -45.4064 H         1 UNK         0.0600 
    181 H181        5.7522  -12.0270  -44.4763 H         1 UNK         0.0600 
    182 H182        5.4834  -10.3019  -44.2906 H         1 UNK         0.0600 
    183 H183        5.6507  -10.9907  -45.8977 H         1 UNK         0.0600 
    184 H184        2.7502  -12.1751  -46.6547 H         1 UNK         0.3000 
    185 H185        3.6780  -14.4080  -47.8714 H         1 UNK         0.0600 
    186 H186        4.2471  -16.4435  -46.6217 H         1 UNK         0.0600 
    187 H187        2.7157  -16.3994  -45.7641 H         1 UNK         0.0600 
    188 H188        2.7471  -16.7236  -47.4953 H         1 UNK         0.0600 
    189 H189        1.1005  -14.2664  -46.3655 H         1 UNK         0.3000 
    190 H190       -1.3773  -20.6160  -46.4495 H         1 UNK         0.3000 
    191 H191       -2.8391  -21.5741  -48.6575 H         1 UNK         0.0600 
    192 H192       -3.8238  -20.6407  -45.9127 H         1 UNK         0.0600 
    193 H193       -4.8265  -20.8075  -47.3507 H         1 UNK         0.0600 
    194 H194       -3.5324  -19.6183  -47.3184 H         1 UNK         0.0600 
    195 H195       -2.4373  -23.0225  -45.3982 H         1 UNK         0.3000 
    196 H196       -4.2408  -25.2000  -45.7794 H         1 UNK         0.0600 
    197 H197       -3.0164  -26.1952  -43.8390 H         1 UNK         0.0600 
    198 H198       -3.4485  -24.5181  -43.5436 H         1 UNK         0.0600 
    199 H199       -1.7895  -24.9397  -43.9599 H         1 UNK         0.0600 
    200 H200       -0.7074  -24.8896  -46.3908 H         1 UNK         0.3000 
    201 H201       -0.3000  -27.5770  -47.2580 H         1 UNK         0.0600 
    202 H202        1.5384  -26.1350  -46.4435 H         1 UNK         0.0600 
    203 H203        1.3274  -25.0386  -47.8059 H         1 UNK         0.0600 
    204 H204        1.8837  -26.6858  -48.0762 H         1 UNK         0.0600 
    205 H205       -0.9644  -24.5565  -49.0645 H         1 UNK         0.3000 
    206 H206       -0.9399  -25.7772  -51.6842 H         1 UNK         0.0600 
    207 H207       -2.0131  -23.0948  -50.6615 H         1 UNK         0.0600 
    208 H208       -0.4186  -23.3919  -51.3504 H         1 UNK         0.0600 
    209 H209       -1.8499  -23.5262  -52.3587 H         1 UNK         0.0600 
    210 H210       -3.2656  -25.7057  -49.1858 H         1 UNK         0.3000 
    211 H211       -5.2540  -26.5256  -48.8478 H         1 UNK         0.0600 
    212 H212       -5.3727  -27.5690  -51.7230 H         1 UNK         0.0600 
    213 H213       -6.3741  -28.0760  -50.3738 H         1 UNK         0.0600 
    214 H214       -4.6555  -28.4350  -50.3631 H         1 UNK         0.0600 
    215 H215       -4.6975  -23.8914  -50.6021 H         1 UNK         0.3000 
    216 H216       -7.2093  -22.7353  -50.0621 H         1 UNK         0.0600 
    217 H217       -7.8296  -22.0772  -52.4009 H         1 UNK         0.0600 
    218 H218       -7.8958  -23.8197  -52.2410 H         1 UNK         0.0600 
    219 H219       -6.5246  -23.0647  -53.0489 H         1 UNK         0.0600 
    220 H220       -7.0370  -20.4278  -50.2368 H         1 UNK         0.3000 
    221 H221       -4.2796  -19.3969  -50.2460 H         1 UNK         0.0600 
    222 H222       -6.9643  -18.0689  -49.5881 H         1 UNK         0.0600 
    223 H223       -5.8508  -18.7720  -48.4161 H         1 UNK         0.0600 
    224 H224       -5.3783  -17.3537  -49.3352 H         1 UNK         0.0600 
    225 H225       -6.7795  -19.7418  -52.5544 H         1 UNK         0.3000 
    226 H226       -5.4974  -17.9221  -54.4522 H         1 UNK         0.0600 
    227 H227       -7.3442  -16.5324  -53.4499 H         1 UNK         0.0600 
    228 H228       -7.7137  -16.9544  -55.1140 H         1 UNK         0.0600 
    229 H229       -8.5054  -17.8129  -53.7966 H         1 UNK         0.0600 
    230 H230       -6.2618  -18.4525  -56.6377 H         1 UNK         0.3000 
    231 H231       -6.6574  -19.7394  -58.3678 H         1 UNK         0.0600 
    232 H232       -8.9010  -20.3262  -57.4317 H         1 UNK         0.0600 
    233 H233       -8.1999  -21.7244  -56.6172 H         1 UNK         0.0600 
    234 H234       -8.2033  -21.6380  -58.3693 H         1 UNK         0.0600 
    235 H235       -5.6813  -21.6178  -55.5226 H         1 UNK         0.3000 
    236 H236       -3.7139  -23.2776  -56.9020 H         1 UNK         0.0600 
    237 H237       -3.0001  -23.8072  -54.5716 H         1 UNK         0.0600 
    238 H238       -4.0483  -22.5447  -53.9373 H         1 UNK         0.0600 
    239 H239       -4.7408  -23.9616  -54.7257 H         1 UNK         0.0600 
    240 H240       -3.8946  -19.9698  -56.0071 H         1 UNK         0.3000 
    241 H241       -1.2718  -19.4179  -56.9510 H         1 UNK         0.0600 
    242 H242       -2.4569  -16.0181  -57.4351 H         1 UNK         0.3800 
    243 H243       -0.9850  -16.8768  -57.0679 H         1 UNK         0.3800 
    244 H244       -1.8169  -18.2649  -54.1749 H         1 UNK         0.0800 
    245 H245       -1.0849  -19.8348  -54.3064 H         1 UNK         0.0800 
    246 H246        1.5811  -16.6174  -53.6670 H         1 UNK         0.0800 
    247 H247       -0.0876  -16.1609  -53.9200 H         1 UNK         0.0800 
@<TRIPOS>BOND
     1    1    2 1    
     2    1  127 1    
     3    1  128 1    
     4    1  129 1    
     5    2    3 2    
     6    2    4 am   BACKBONE|DICT|INTERRES
     7    4    5 1    
     8    4  130 1    
     9    5    6 1    
    10    5   65 1    
    11    5  131 1    
    12    6    7 1    
    13    6  132 1    
    14    6  133 1    
    15    7    8 1    
    16    8    9 1    
    17    8  134 1    
    18    8  135 1    
    19    9   10 ar   
    20    9   14 ar   
    21   10   11 ar   
    22   10  136 1    
    23   11   12 ar   
    24   11  126 1    
    25   12   13 ar   
    26   12  137 1    
    27   13   14 ar   
    28   13   15 1    
    29   14  138 1    
    30   15   16 1    
    31   15  139 1    
    32   15  140 1    
    33   16   17 1    
    34   17   18 1    
    35   17  141 1    
    36   17  142 1    
    37   18   19 1    
    38   18   67 1    
    39   18  143 1    
    40   19   20 am   BACKBONE|DICT|INTERRES
    41   19  144 1    
    42   20   21 2    
    43   20   22 1    
    44   22   23 1    
    45   22   24 1    
    46   22  145 1    
    47   23  146 1    
    48   23  147 1    
    49   23  148 1    
    50   24   25 am   BACKBONE|DICT|INTERRES
    51   24  149 1    
    52   25   26 2    
    53   25   27 1    
    54   27   28 1    
    55   27   29 1    
    56   27  150 1    
    57   28  151 1    
    58   28  152 1    
    59   28  153 1    
    60   29   30 am   BACKBONE|DICT|INTERRES
    61   29  154 1    
    62   30   31 2    
    63   30   32 1    
    64   32   33 1    
    65   32   34 1    
    66   32  155 1    
    67   33  156 1    
    68   33  157 1    
    69   33  158 1    
    70   34   35 am   BACKBONE|DICT|INTERRES
    71   34  159 1    
    72   35   36 2    
    73   35   37 1    
    74   37   38 1    
    75   37   39 1    
    76   37  160 1    
    77   38  161 1    
    78   38  162 1    
    79   38  163 1    
    80   39   40 am   BACKBONE|DICT|INTERRES
    81   39  164 1    
    82   40   41 2    
    83   40   42 1    
    84   42   43 1    
    85   42   44 1    
    86   42  165 1    
    87   43  166 1    
    88   43  167 1    
    89   43  168 1    
    90   44   45 am   BACKBONE|DICT|INTERRES
    91   44  169 1    
    92   45   46 2    
    93   45   47 1    
    94   47   48 1    
    95   47   49 1    
    96   47  170 1    
    97   48  171 1    
    98   48  172 1    
    99   48  173 1    
   100   49   50 am   BACKBONE|DICT|INTERRES
   101   49  174 1    
   102   50   51 2    
   103   50   52 1    
   104   52   53 1    
   105   52   54 1    
   106   52  175 1    
   107   53  176 1    
   108   53  177 1    
   109   53  178 1    
   110   54   55 am   BACKBONE|DICT|INTERRES
   111   54  179 1    
   112   55   56 2    
   113   55   57 1    
   114   57   58 1    
   115   57   59 1    
   116   57  180 1    
   117   58  181 1    
   118   58  182 1    
   119   58  183 1    
   120   59   60 am   BACKBONE|DICT|INTERRES
   121   59  184 1    
   122   60   61 2    
   123   60   62 1    
   124   62   63 1    
   125   62   64 1    
   126   62  185 1    
   127   63  186 1    
   128   63  187 1    
   129   63  188 1    
   130   64   65 am   BACKBONE|DICT|INTERRES
   131   64  189 1    
   132   65   66 2    
   133   67   68 2    
   134   67   69 am   BACKBONE|DICT|INTERRES
   135   69   70 1    
   136   69  190 1    
   137   70   71 1    
   138   70   72 1    
   139   70  191 1    
   140   71  192 1    
   141   71  193 1    
   142   71  194 1    
   143   72   73 2    
   144   72   74 am   BACKBONE|DICT|INTERRES
   145   74   75 1    
   146   74  195 1    
   147   75   76 1    
   148   75   77 1    
   149   75  196 1    
   150   76  197 1    
   151   76  198 1    
   152   76  199 1    
   153   77   78 2    
   154   77   79 am   BACKBONE|DICT|INTERRES
   155   79   80 1    
   156   79  200 1    
   157   80   81 1    
   158   80   82 1    
   159   80  201 1    
   160   81  202 1    
   161   81  203 1    
   162   81  204 1    
   163   82   83 2    
   164   82   84 am   BACKBONE|DICT|INTERRES
   165   84   85 1    
   166   84  205 1    
   167   85   86 1    
   168   85   87 1    
   169   85  206 1    
   170   86  207 1    
   171   86  208 1    
   172   86  209 1    
   173   87   88 2    
   174   87   89 am   BACKBONE|DICT|INTERRES
   175   89   90 1    
   176   89  210 1    
   177   90   91 1    
   178   90   92 1    
   179   90  211 1    
   180   91  212 1    
   181   91  213 1    
   182   91  214 1    
   183   92   93 2    
   184   92   94 am   BACKBONE|DICT|INTERRES
   185   94   95 1    
   186   94  215 1    
   187   95   96 1    
   188   95   97 1    
   189   95  216 1    
   190   96  217 1    
   191   96  218 1    
   192   96  219 1    
   193   97   98 2    
   194   97   99 am   BACKBONE|DICT|INTERRES
   195   99  100 1    
   196   99  220 1    
   197  100  101 1    
   198  100  102 1    
   199  100  221 1    
   200  101  222 1    
   201  101  223 1    
   202  101  224 1    
   203  102  103 2    
   204  102  104 am   BACKBONE|DICT|INTERRES
   205  104  105 1    
   206  104  225 1    
   207  105  106 1    
   208  105  107 1    
   209  105  226 1    
   210  106  227 1    
   211  106  228 1    
   212  106  229 1    
   213  107  108 2    
   214  107  109 am   BACKBONE|DICT|INTERRES
   215  109  110 1    
   216  109  230 1    
   217  110  111 1    
   218  110  112 1    
   219  110  231 1    
   220  111  232 1    
   221  111  233 1    
   222  111  234 1    
   223  112  113 2    
   224  112  114 am   BACKBONE|DICT|INTERRES
   225  114  115 1    
   226  114  235 1    
   227  115  116 1    
   228  115  117 1    
   229  115  236 1    
   230  116  237 1    
   231  116  238 1    
   232  116  239 1    
   233  117  118 2    
   234  117  119 am   BACKBONE|DICT|INTERRES
   235  119  120 1    
   236  119  240 1    
   237  120  121 1    
   238  120  124 1    
   239  120  241 1    
   240  121  122 am   BACKBONE|DICT|INTERRES
   241  121  123 2    
   242  122  242 1    
   243  122  243 1    
   244  124  125 1    
   245  124  244 1    
   246  124  245 1    
   247  125  126 1    
   248  126  246 1    
   249  126  247 1    
@<TRIPOS>SUBSTRUCTURE
     1 UNK         1 GROUP             0       ****    0 ROOT    
