@<TRIPOS>MOLECULE
3R540
247   249    1
SMALL
USER_CHARGES


@<TRIPOS>ATOM
      1 CA          3.1572  -11.8702  -48.4064 C.3       0 UNK        -0.1800 
      2 C           2.5838  -13.0981  -47.7149 C.2       0 UNK         0.5000 
      3 O           2.5673  -13.1550  -46.4866 O.2       0 UNK        -0.5000 
      4 N           2.1141  -14.0802  -48.4950 N.am      1 UNK        -0.5000 
      5 CA          1.5325  -15.3459  -48.0289 C.3       1 UNK         0.1400 
      6 C6          0.1935  -15.1612  -47.2543 C.3       23 UNK        -0.0398 
      7 S7         -1.0568  -14.2859  -48.2621 S.3       23 UNK        -0.2404 
      8 C8         -2.6115  -15.1458  -47.8295 C.3       23 UNK        -0.0205 
      9 C9         -2.7062  -16.6221  -48.2183 C.ar      23 UNK        -0.0193 
     10 C10        -3.7312  -17.3866  -47.6547 C.ar      23 UNK        -0.1150 
     11 C11        -3.8584  -18.7477  -47.9432 C.ar      23 UNK        -0.0193 
     12 C12        -2.9345  -19.3560  -48.7971 C.ar      23 UNK        -0.1150 
     13 C13        -1.9020  -18.6071  -49.3714 C.ar      23 UNK        -0.0193 
     14 C14        -1.8131  -17.2387  -49.1033 C.ar      23 UNK        -0.1150 
     15 C15        -0.8589  -19.2814  -50.2538 C.3       23 UNK        -0.0205 
     16 S16         0.8501  -19.0873  -49.6418 S.3       23 UNK        -0.2404 
     17 C17         0.7164  -19.4654  -47.8620 C.3       23 UNK        -0.0398 
     18 CA          0.9475  -20.9538  -47.5231 C.3       11 UNK         0.1400 
     19 N           1.4532  -21.0985  -46.1590 N.am      11 UNK        -0.5000 
     20 C           2.2669  -22.0717  -45.7344 C.2       10 UNK         0.5000 
     21 O           2.7396  -22.9371  -46.4703 O.2       10 UNK        -0.5000 
     22 CA          2.6005  -22.0879  -44.2291 C.3       10 UNK         0.1400 
     23 CB          3.9624  -21.4245  -43.9749 C.3       10 UNK        -0.1800 
     24 N           1.5764  -21.4413  -43.3990 N.am      10 UNK        -0.5000 
     25 C           0.3607  -21.9616  -43.1818 C.2       9 UNK         0.5000 
     26 O          -0.0197  -23.0247  -43.6726 O.2       9 UNK        -0.5000 
     27 CA         -0.6022  -21.1530  -42.2916 C.3       9 UNK         0.1400 
     28 CB         -0.2450  -21.3417  -40.8095 C.3       9 UNK        -0.1800 
     29 N          -0.7086  -19.7164  -42.5755 N.am      9 UNK        -0.5000 
     30 C          -0.8799  -19.1230  -43.7624 C.2       8 UNK         0.5000 
     31 O          -0.7451  -19.7095  -44.8347 O.2       8 UNK        -0.5000 
     32 CA         -1.2654  -17.6252  -43.7947 C.3       8 UNK         0.1400 
     33 CB         -2.7840  -17.4848  -43.9951 C.3       8 UNK        -0.1800 
     34 N          -0.8129  -16.7673  -42.6847 N.am      8 UNK        -0.5000 
     35 C          -1.0516  -16.8743  -41.3673 C.2       7 UNK         0.5000 
     36 O          -1.6609  -17.8055  -40.8421 O.2       7 UNK        -0.5000 
     37 CA         -0.5342  -15.7254  -40.4894 C.3       7 UNK         0.1400 
     38 CB          0.9998  -15.6084  -40.5432 C.3       7 UNK        -0.1800 
     39 N          -1.1522  -14.4646  -40.8944 N.am      7 UNK        -0.5000 
     40 C          -2.3669  -14.0576  -40.4931 C.2       6 UNK         0.5000 
     41 O          -3.0610  -14.6749  -39.6846 O.2       6 UNK        -0.5000 
     42 CA         -2.9018  -12.7354  -41.0796 C.3       6 UNK         0.1400 
     43 CB         -2.6331  -11.5730  -40.1113 C.3       6 UNK        -0.1800 
     44 N          -2.3146  -12.4116  -42.3786 N.am      6 UNK        -0.5000 
     45 C          -2.6128  -13.0289  -43.5303 C.2       5 UNK         0.5000 
     46 O          -3.5042  -13.8686  -43.6456 O.2       5 UNK        -0.5000 
     47 CA         -1.7437  -12.6692  -44.7513 C.3       5 UNK         0.1400 
     48 CB         -2.4619  -11.6620  -45.6606 C.3       5 UNK        -0.1800 
     49 N          -0.4272  -12.1387  -44.3830 N.am      5 UNK        -0.5000 
     50 C           0.5392  -12.8632  -43.8077 C.2       4 UNK         0.5000 
     51 O           0.4366  -14.0726  -43.5638 O.2       4 UNK        -0.5000 
     52 CA          1.7988  -12.1006  -43.3767 C.3       4 UNK         0.1400 
     53 CB          1.6032  -11.4599  -41.9926 C.3       4 UNK        -0.1800 
     54 N           2.8860  -13.0615  -43.3179 N.am      4 UNK        -0.5000 
     55 C           4.1591  -12.8416  -43.6656 C.2       3 UNK         0.5000 
     56 O           4.6364  -11.7300  -43.8954 O.2       3 UNK        -0.5000 
     57 CA          5.0224  -14.1012  -43.8288 C.3       3 UNK         0.1400 
     58 CB          5.5650  -14.5285  -42.4478 C.3       3 UNK        -0.1800 
     59 N           4.1918  -15.1364  -44.4519 N.am      3 UNK        -0.5000 
     60 C           4.4611  -16.4336  -44.6298 C.2       2 UNK         0.5000 
     61 O           5.5369  -16.9665  -44.3593 O.2       2 UNK        -0.5000 
     62 CA          3.3094  -17.2931  -45.1853 C.3       2 UNK         0.1400 
     63 CB          2.5359  -17.9350  -44.0249 C.3       2 UNK        -0.1800 
     64 N           2.3641  -16.5403  -46.0166 N.am      2 UNK        -0.5000 
     65 C           2.6090  -16.1708  -47.2822 C.2       1 UNK         0.5000 
     66 O           3.6503  -16.4583  -47.8756 O.2       1 UNK        -0.5000 
     67 C          -0.3374  -21.7857  -47.6968 C.2       11 UNK         0.5000 
     68 O          -0.5098  -22.4420  -48.7234 O.2       11 UNK        -0.5000 
     69 N          -1.1951  -21.7924  -46.6659 N.am      12 UNK        -0.5000 
     70 CA         -2.4348  -22.5681  -46.5759 C.3       12 UNK         0.1400 
     71 CB         -3.1899  -22.1528  -45.3047 C.3       12 UNK        -0.1800 
     72 C          -2.2242  -24.0948  -46.6071 C.2       12 UNK         0.5000 
     73 O          -3.1549  -24.8258  -46.9435 O.2       12 UNK        -0.5000 
     74 N          -1.0035  -24.5489  -46.2935 N.am      13 UNK        -0.5000 
     75 CA         -0.5508  -25.9276  -46.4756 C.3       13 UNK         0.1400 
     76 CB          0.8193  -26.0936  -45.8014 C.3       13 UNK        -0.1800 
     77 C          -0.4815  -26.3488  -47.9599 C.2       13 UNK         0.5000 
     78 O          -0.6543  -27.5317  -48.2559 O.2       13 UNK        -0.5000 
     79 N          -0.2441  -25.3826  -48.8588 N.am      14 UNK        -0.5000 
     80 CA         -0.2763  -25.5621  -50.3084 C.3       14 UNK         0.1400 
     81 CB          0.8576  -24.7470  -50.9512 C.3       14 UNK        -0.1800 
     82 C          -1.6448  -25.1437  -50.8687 C.2       14 UNK         0.5000 
     83 O          -2.2566  -25.9193  -51.6042 O.2       14 UNK        -0.5000 
     84 N          -2.1012  -23.9357  -50.4987 N.am      15 UNK        -0.5000 
     85 CA         -3.3799  -23.3118  -50.8545 C.3       15 UNK         0.1400 
     86 CB         -4.5303  -23.9628  -50.0595 C.3       15 UNK        -0.1800 
     87 C          -3.6199  -23.2880  -52.3770 C.2       15 UNK         0.5000 
     88 O          -3.0188  -22.4672  -53.0711 O.2       15 UNK        -0.5000 
     89 N          -4.4523  -24.2086  -52.8801 N.am      16 UNK        -0.5000 
     90 CA         -4.7340  -24.4012  -54.3028 C.3       16 UNK         0.1400 
     91 CB         -5.8260  -25.4691  -54.4597 C.3       16 UNK        -0.1800 
     92 C          -3.4886  -24.7733  -55.1321 C.2       16 UNK         0.5000 
     93 O          -3.4092  -24.3869  -56.2978 O.2       16 UNK        -0.5000 
     94 N          -2.5118  -25.4565  -54.5150 N.am      17 UNK        -0.5000 
     95 CA         -1.2201  -25.7805  -55.1299 C.3       17 UNK         0.1400 
     96 CB         -0.5252  -26.8849  -54.3194 C.3       17 UNK        -0.1800 
     97 C          -0.3000  -24.5515  -55.2859 C.2       17 UNK         0.5000 
     98 O           0.5892  -24.5704  -56.1369 O.2       17 UNK        -0.5000 
     99 N          -0.5468  -23.4989  -54.4928 N.am      18 UNK        -0.5000 
    100 CA         0.0895  -22.1851  -54.6131 C.3       18 UNK         0.1400 
    101 CB         0.3135  -21.6116  -53.2019 C.3       18 UNK        -0.1800 
    102 C         -0.7447  -21.2165  -55.4802 C.2       18 UNK         0.5000 
    103 O         -0.3483  -20.0612  -55.6370 O.2       18 UNK        -0.5000 
    104 N         -1.8831  -21.6925  -56.0127 N.am      19 UNK        -0.5000 
    105 CA        -2.8920  -20.9614  -56.7874 C.3       19 UNK         0.1400 
    106 CB        -2.3141  -20.4865  -58.1370 C.3       19 UNK        -0.1800 
    107 C         -3.5727  -19.8301  -55.9864 C.2       19 UNK         0.5000 
    108 O         -3.9815  -18.8221  -56.5669 O.2       19 UNK        -0.5000 
    109 N         -3.6798  -20.0120  -54.6638 N.am      20 UNK        -0.5000 
    110 CA        -4.3008  -19.0636  -53.7443 C.3       20 UNK         0.1400 
    111 CB        -3.8283  -19.3916  -52.3206 C.3       20 UNK        -0.1800 
    112 C         -5.8343  -19.1327  -53.8018 C.2       20 UNK         0.5000 
    113 O         -6.3974  -20.1602  -54.1904 O.2       20 UNK        -0.5000 
    114 N         -6.4837  -18.0721  -53.3018 N.am      21 UNK        -0.5000 
    115 CA        -7.9329  -18.0046  -53.0708 C.3       21 UNK         0.1400 
    116 CB        -8.3006  -16.5867  -52.6079 C.3       21 UNK        -0.1800 
    117 C         -8.4406  -19.0542  -52.0577 C.2       21 UNK         0.5000 
    118 O         -9.6142  -19.4249  -52.0998 O.2       21 UNK        -0.5000 
    119 N         -7.5342  -19.5354  -51.1969 N.am      22 UNK        -0.5000 
    120 CA        -7.7177  -20.6959  -50.3153 C.3       22 UNK         0.1400 
    121 C         -7.8550  -22.0582  -51.0609 C.2       22 UNK         0.5000 
    122 N         -7.5071  -22.1727  -52.3385 N.am      22 UNK        -0.7600 
    123 O         -8.2898  -23.0373  -50.4618 O.2       22 UNK        -0.5000 
    124 C124       -6.5912  -20.7759  -49.2521 C.3       23 UNK        -0.0398 
    125 S125       -6.5657  -19.3239  -48.1490 S.3       23 UNK        -0.2404 
    126 C126       -4.9754  -19.5518  -47.2946 C.3       23 UNK        -0.0205 
    127 H127        2.5964  -10.9820  -48.1155 H         1 UNK         0.0600 
    128 H128        3.1160  -11.9594  -49.4922 H         1 UNK         0.0600 
    129 H129        4.1978  -11.7286  -48.1146 H         1 UNK         0.0600 
    130 H130        2.1768  -13.9813  -49.4981 H         1 UNK         0.3000 
    131 H131        1.3065  -15.9201  -48.9288 H         1 UNK         0.0600 
    132 H132       -0.2103  -16.1307  -46.9602 H         1 UNK         0.0800 
    133 H133        0.3446  -14.5947  -46.3358 H         1 UNK         0.0800 
    134 H134       -2.7711  -15.0494  -46.7549 H         1 UNK         0.0800 
    135 H135       -3.4347  -14.6153  -48.3096 H         1 UNK         0.0800 
    136 H136       -4.4354  -16.9209  -46.9792 H         1 UNK         0.1150 
    137 H137       -3.0106  -20.4131  -49.0031 H         1 UNK         0.1150 
    138 H138       -1.0184  -16.6730  -49.5656 H         1 UNK         0.1150 
    139 H139       -1.0765  -20.3436  -50.3725 H         1 UNK         0.0800 
    140 H140       -0.9020  -18.8438  -51.2510 H         1 UNK         0.0800 
    141 H141       -0.2120  -19.0862  -47.4340 H         1 UNK         0.0800 
    142 H142        1.5008  -18.8759  -47.3892 H         1 UNK         0.0800 
    143 H143        1.6961  -21.3516  -48.2120 H         1 UNK         0.0600 
    144 H144        1.0391  -20.4838  -45.4691 H         1 UNK         0.3000 
    145 H145        2.6730  -23.1334  -43.9210 H         1 UNK         0.0600 
    146 H146        4.7583  -21.9726  -44.4806 H         1 UNK         0.0600 
    147 H147        4.2060  -21.4079  -42.9125 H         1 UNK         0.0600 
    148 H148        3.9916  -20.4009  -44.3465 H         1 UNK         0.0600 
    149 H149        1.8185  -20.5680  -42.9553 H         1 UNK         0.3000 
    150 H150       -1.5989  -21.5696  -42.4446 H         1 UNK         0.0600 
    151 H151       -0.1786  -22.3997  -40.5520 H         1 UNK         0.0600 
    152 H152       -1.0024  -20.8984  -40.1626 H         1 UNK         0.0600 
    153 H153        0.7133  -20.8818  -40.5653 H         1 UNK         0.0600 
    154 H154       -0.9013  -19.1272  -41.7685 H         1 UNK         0.3000 
    155 H155       -0.7857  -17.2194  -44.6863 H         1 UNK         0.0600 
    156 H156       -3.1280  -18.0928  -44.8328 H         1 UNK         0.0600 
    157 H157       -3.0575  -16.4533  -44.2134 H         1 UNK         0.0600 
    158 H158       -3.3405  -17.8009  -43.1123 H         1 UNK         0.0600 
    159 H159       -0.3107  -15.9366  -42.9796 H         1 UNK         0.3000 
    160 H160       -0.8082  -15.9426  -39.4545 H         1 UNK         0.0600 
    161 H161        1.3702  -15.4001  -41.5458 H         1 UNK         0.0600 
    162 H162        1.4696  -16.5350  -40.2109 H         1 UNK         0.0600 
    163 H163        1.3545  -14.8130  -39.8877 H         1 UNK         0.0600 
    164 H164       -0.6720  -13.9349  -41.6074 H         1 UNK         0.3000 
    165 H165       -3.9823  -12.8381  -41.2014 H         1 UNK         0.0600 
    166 H166       -3.0605  -10.6419  -40.4841 H         1 UNK         0.0600 
    167 H167       -3.0803  -11.7664  -39.1354 H         1 UNK         0.0600 
    168 H168       -1.5647  -11.4152  -39.9573 H         1 UNK         0.0600 
    169 H169       -1.5888  -11.7111  -42.3857 H         1 UNK         0.3000 
    170 H170       -1.5908  -13.5898  -45.3144 H         1 UNK         0.0600 
    171 H171       -2.6300  -10.7102  -45.1553 H         1 UNK         0.0600 
    172 H172       -1.8842  -11.4678  -46.5646 H         1 UNK         0.0600 
    173 H173       -3.4337  -12.0448  -45.9752 H         1 UNK         0.0600 
    174 H174       -0.2716  -11.1561  -44.5579 H         1 UNK         0.3000 
    175 H175        2.0176  -11.3321  -44.1214 H         1 UNK         0.0600 
    176 H176        1.3608  -12.2053  -41.2337 H         1 UNK         0.0600 
    177 H177        2.5055  -10.9396  -41.6711 H         1 UNK         0.0600 
    178 H178        0.7954  -10.7276  -42.0076 H         1 UNK         0.0600 
    179 H179        2.5771  -14.0100  -43.1539 H         1 UNK         0.3000 
    180 H180        5.8540  -13.8703  -44.4967 H         1 UNK         0.0600 
    181 H181        6.3170  -15.3121  -42.5328 H         1 UNK         0.0600 
    182 H182        4.7695  -14.8939  -41.7972 H         1 UNK         0.0600 
    183 H183        6.0443  -13.6903  -41.9402 H         1 UNK         0.0600 
    184 H184        3.3204  -14.7862  -44.8302 H         1 UNK         0.3000 
    185 H185        3.7528  -18.0925  -45.7836 H         1 UNK         0.0600 
    186 H186        1.8493  -18.6902  -44.3990 H         1 UNK         0.0600 
    187 H187        3.2089  -18.4256  -43.3208 H         1 UNK         0.0600 
    188 H188        1.9638  -17.1975  -43.4614 H         1 UNK         0.0600 
    189 H189        1.5091  -16.2444  -45.5718 H         1 UNK         0.3000 
    190 H190       -0.9998  -21.1758  -45.8808 H         1 UNK         0.3000 
    191 H191       -3.0447  -22.3101  -47.4426 H         1 UNK         0.0600 
    192 H192       -2.6590  -22.4665  -44.4063 H         1 UNK         0.0600 
    193 H193       -4.1810  -22.6069  -45.2743 H         1 UNK         0.0600 
    194 H194       -3.3225  -21.0721  -45.2525 H         1 UNK         0.0600 
    195 H195       -0.3249  -23.8860  -45.9451 H         1 UNK         0.3000 
    196 H196       -1.2632  -26.5862  -45.9747 H         1 UNK         0.0600 
    197 H197        0.7728  -25.8357  -44.7430 H         1 UNK         0.0600 
    198 H198        1.5756  -25.4610  -46.2675 H         1 UNK         0.0600 
    199 H199        1.1660  -27.1254  -45.8708 H         1 UNK         0.0600 
    200 H200       -0.1596  -24.4268  -48.5333 H         1 UNK         0.3000 
    201 H201       -0.1168  -26.6121  -50.5630 H         1 UNK         0.0600 
    202 H202        1.8321  -25.1102  -50.6247 H         1 UNK         0.0600 
    203 H203        0.7964  -23.6898  -50.6934 H         1 UNK         0.0600 
    204 H204        0.8315  -24.8211  -52.0387 H         1 UNK         0.0600 
    205 H205       -1.4956  -23.3675  -49.9093 H         1 UNK         0.3000 
    206 H206       -3.3139  -22.2682  -50.5455 H         1 UNK         0.0600 
    207 H207       -4.4339  -23.7517  -48.9959 H         1 UNK         0.0600 
    208 H208       -5.4984  -23.5730  -50.3696 H         1 UNK         0.0600 
    209 H209       -4.5555  -25.0463  -50.1784 H         1 UNK         0.0600 
    210 H210       -4.8673  -24.8733  -52.2437 H         1 UNK         0.3000 
    211 H211       -5.1184  -23.4564  -54.6937 H         1 UNK         0.0600 
    212 H212       -6.0799  -25.6166  -55.5103 H         1 UNK         0.0600 
    213 H213       -6.7408  -25.1782  -53.9434 H         1 UNK         0.0600 
    214 H214       -5.5060  -26.4324  -54.0604 H         1 UNK         0.0600 
    215 H215       -2.6281  -25.7131  -53.5382 H         1 UNK         0.3000 
    216 H216       -1.4111  -26.1725  -56.1312 H         1 UNK         0.0600 
    217 H217       -0.2680  -26.5514  -53.3153 H         1 UNK         0.0600 
    218 H218       -1.1601  -27.7662  -54.2274 H         1 UNK         0.0600 
    219 H219        0.3996  -27.1998  -54.8044 H         1 UNK         0.0600 
    220 H220       -1.3270  -23.5448  -53.8491 H         1 UNK         0.3000 
    221 H221        1.0652  -22.2854  -55.0925 H         1 UNK         0.0600 
    222 H222       -0.6213  -21.4983  -52.6535 H         1 UNK         0.0600 
    223 H223        0.9698  -22.2551  -52.6179 H         1 UNK         0.0600 
    224 H224        0.7866  -20.6298  -53.2443 H         1 UNK         0.0600 
    225 H225       -2.1116  -22.6617  -55.8354 H         1 UNK         0.3000 
    226 H226       -3.6806  -21.6820  -57.0075 H         1 UNK         0.0600 
    227 H227       -1.8479  -21.3103  -58.6774 H         1 UNK         0.0600 
    228 H228       -3.0988  -20.0833  -58.7781 H         1 UNK         0.0600 
    229 H229       -1.5663  -19.7040  -58.0062 H         1 UNK         0.0600 
    230 H230       -3.3551  -20.8833  -54.2570 H         1 UNK         0.3000 
    231 H231       -3.9726  -18.0552  -54.0051 H         1 UNK         0.0600 
    232 H232       -4.0558  -18.5788  -51.6299 H         1 UNK         0.0600 
    233 H233       -2.7529  -19.5516  -52.3004 H         1 UNK         0.0600 
    234 H234       -4.3006  -20.2947  -51.9332 H         1 UNK         0.0600 
    235 H235       -5.9483  -17.2725  -52.9952 H         1 UNK         0.3000 
    236 H236       -8.4331  -18.1986  -54.0218 H         1 UNK         0.0600 
    237 H237       -7.8112  -16.3311  -51.6671 H         1 UNK         0.0600 
    238 H238       -8.0141  -15.8417  -53.3504 H         1 UNK         0.0600 
    239 H239       -9.3764  -16.4928  -52.4541 H         1 UNK         0.0600 
    240 H240       -6.6087  -19.1367  -51.2137 H         1 UNK         0.3000 
    241 H241       -8.6625  -20.5507  -49.7880 H         1 UNK         0.0600 
    242 H242       -7.6262  -23.0624  -52.7934 H         1 UNK         0.3800 
    243 H243       -7.1647  -21.3835  -52.8770 H         1 UNK         0.3800 
    244 H244       -6.7154  -21.6606  -48.6245 H         1 UNK         0.0800 
    245 H245       -5.6179  -20.8740  -49.7354 H         1 UNK         0.0800 
    246 H246       -4.7238  -20.6112  -47.2615 H         1 UNK         0.0800 
    247 H247       -5.0886  -19.2368  -46.2562 H         1 UNK         0.0800 
@<TRIPOS>BOND
     1    1    2 1    
     2    1  127 1    
     3    1  128 1    
     4    1  129 1    
     5    2    3 2    
     6    2    4 am   BACKBONE|DICT|INTERRES
     7    4    5 1    
     8    4  130 1    
     9    5    6 1    
    10    5   65 1    
    11    5  131 1    
    12    6    7 1    
    13    6  132 1    
    14    6  133 1    
    15    7    8 1    
    16    8    9 1    
    17    8  134 1    
    18    8  135 1    
    19    9   10 ar   
    20    9   14 ar   
    21   10   11 ar   
    22   10  136 1    
    23   11   12 ar   
    24   11  126 1    
    25   12   13 ar   
    26   12  137 1    
    27   13   14 ar   
    28   13   15 1    
    29   14  138 1    
    30   15   16 1    
    31   15  139 1    
    32   15  140 1    
    33   16   17 1    
    34   17   18 1    
    35   17  141 1    
    36   17  142 1    
    37   18   19 1    
    38   18   67 1    
    39   18  143 1    
    40   19   20 am   BACKBONE|DICT|INTERRES
    41   19  144 1    
    42   20   21 2    
    43   20   22 1    
    44   22   23 1    
    45   22   24 1    
    46   22  145 1    
    47   23  146 1    
    48   23  147 1    
    49   23  148 1    
    50   24   25 am   BACKBONE|DICT|INTERRES
    51   24  149 1    
    52   25   26 2    
    53   25   27 1    
    54   27   28 1    
    55   27   29 1    
    56   27  150 1    
    57   28  151 1    
    58   28  152 1    
    59   28  153 1    
    60   29   30 am   BACKBONE|DICT|INTERRES
    61   29  154 1    
    62   30   31 2    
    63   30   32 1    
    64   32   33 1    
    65   32   34 1    
    66   32  155 1    
    67   33  156 1    
    68   33  157 1    
    69   33  158 1    
    70   34   35 am   BACKBONE|DICT|INTERRES
    71   34  159 1    
    72   35   36 2    
    73   35   37 1    
    74   37   38 1    
    75   37   39 1    
    76   37  160 1    
    77   38  161 1    
    78   38  162 1    
    79   38  163 1    
    80   39   40 am   BACKBONE|DICT|INTERRES
    81   39  164 1    
    82   40   41 2    
    83   40   42 1    
    84   42   43 1    
    85   42   44 1    
    86   42  165 1    
    87   43  166 1    
    88   43  167 1    
    89   43  168 1    
    90   44   45 am   BACKBONE|DICT|INTERRES
    91   44  169 1    
    92   45   46 2    
    93   45   47 1    
    94   47   48 1    
    95   47   49 1    
    96   47  170 1    
    97   48  171 1    
    98   48  172 1    
    99   48  173 1    
   100   49   50 am   BACKBONE|DICT|INTERRES
   101   49  174 1    
   102   50   51 2    
   103   50   52 1    
   104   52   53 1    
   105   52   54 1    
   106   52  175 1    
   107   53  176 1    
   108   53  177 1    
   109   53  178 1    
   110   54   55 am   BACKBONE|DICT|INTERRES
   111   54  179 1    
   112   55   56 2    
   113   55   57 1    
   114   57   58 1    
   115   57   59 1    
   116   57  180 1    
   117   58  181 1    
   118   58  182 1    
   119   58  183 1    
   120   59   60 am   BACKBONE|DICT|INTERRES
   121   59  184 1    
   122   60   61 2    
   123   60   62 1    
   124   62   63 1    
   125   62   64 1    
   126   62  185 1    
   127   63  186 1    
   128   63  187 1    
   129   63  188 1    
   130   64   65 am   BACKBONE|DICT|INTERRES
   131   64  189 1    
   132   65   66 2    
   133   67   68 2    
   134   67   69 am   BACKBONE|DICT|INTERRES
   135   69   70 1    
   136   69  190 1    
   137   70   71 1    
   138   70   72 1    
   139   70  191 1    
   140   71  192 1    
   141   71  193 1    
   142   71  194 1    
   143   72   73 2    
   144   72   74 am   BACKBONE|DICT|INTERRES
   145   74   75 1    
   146   74  195 1    
   147   75   76 1    
   148   75   77 1    
   149   75  196 1    
   150   76  197 1    
   151   76  198 1    
   152   76  199 1    
   153   77   78 2    
   154   77   79 am   BACKBONE|DICT|INTERRES
   155   79   80 1    
   156   79  200 1    
   157   80   81 1    
   158   80   82 1    
   159   80  201 1    
   160   81  202 1    
   161   81  203 1    
   162   81  204 1    
   163   82   83 2    
   164   82   84 am   BACKBONE|DICT|INTERRES
   165   84   85 1    
   166   84  205 1    
   167   85   86 1    
   168   85   87 1    
   169   85  206 1    
   170   86  207 1    
   171   86  208 1    
   172   86  209 1    
   173   87   88 2    
   174   87   89 am   BACKBONE|DICT|INTERRES
   175   89   90 1    
   176   89  210 1    
   177   90   91 1    
   178   90   92 1    
   179   90  211 1    
   180   91  212 1    
   181   91  213 1    
   182   91  214 1    
   183   92   93 2    
   184   92   94 am   BACKBONE|DICT|INTERRES
   185   94   95 1    
   186   94  215 1    
   187   95   96 1    
   188   95   97 1    
   189   95  216 1    
   190   96  217 1    
   191   96  218 1    
   192   96  219 1    
   193   97   98 2    
   194   97   99 am   BACKBONE|DICT|INTERRES
   195   99  100 1    
   196   99  220 1    
   197  100  101 1    
   198  100  102 1    
   199  100  221 1    
   200  101  222 1    
   201  101  223 1    
   202  101  224 1    
   203  102  103 2    
   204  102  104 am   BACKBONE|DICT|INTERRES
   205  104  105 1    
   206  104  225 1    
   207  105  106 1    
   208  105  107 1    
   209  105  226 1    
   210  106  227 1    
   211  106  228 1    
   212  106  229 1    
   213  107  108 2    
   214  107  109 am   BACKBONE|DICT|INTERRES
   215  109  110 1    
   216  109  230 1    
   217  110  111 1    
   218  110  112 1    
   219  110  231 1    
   220  111  232 1    
   221  111  233 1    
   222  111  234 1    
   223  112  113 2    
   224  112  114 am   BACKBONE|DICT|INTERRES
   225  114  115 1    
   226  114  235 1    
   227  115  116 1    
   228  115  117 1    
   229  115  236 1    
   230  116  237 1    
   231  116  238 1    
   232  116  239 1    
   233  117  118 2    
   234  117  119 am   BACKBONE|DICT|INTERRES
   235  119  120 1    
   236  119  240 1    
   237  120  121 1    
   238  120  124 1    
   239  120  241 1    
   240  121  122 am   BACKBONE|DICT|INTERRES
   241  121  123 2    
   242  122  242 1    
   243  122  243 1    
   244  124  125 1    
   245  124  244 1    
   246  124  245 1    
   247  125  126 1    
   248  126  246 1    
   249  126  247 1    
@<TRIPOS>SUBSTRUCTURE
     1 UNK         1 GROUP             0       ****    0 ROOT    
