@<TRIPOS>MOLECULE
3R540
247   249    1
SMALL
USER_CHARGES


@<TRIPOS>ATOM
      1 CA         -3.3551  -16.9735  -42.9642 C.3       0 UNK        -0.1800 
      2 C          -3.5688  -16.8518  -44.4662 C.2       0 UNK         0.5000 
      3 O          -4.7040  -16.9387  -44.9338 O.2       0 UNK        -0.5000 
      4 N          -2.4817  -16.6621  -45.2231 N.am      1 UNK        -0.5000 
      5 CA         -2.5078  -16.4973  -46.6810 C.3       1 UNK         0.1400 
      6 C6         -1.2177  -17.0221  -47.3532 C.3       23 UNK        -0.0398 
      7 S7          0.3370  -16.2465  -46.7904 S.3       23 UNK        -0.2404 
      8 C8          0.9999  -15.5861  -48.3607 C.3       23 UNK        -0.0205 
      9 C9          1.2745  -16.6558  -49.4182 C.ar      23 UNK        -0.0193 
     10 C10         0.9765  -16.4038  -50.7622 C.ar      23 UNK        -0.1150 
     11 C11         1.2103  -17.3762  -51.7420 C.ar      23 UNK        -0.0193 
     12 C12         1.7503  -18.6101  -51.3685 C.ar      23 UNK        -0.1150 
     13 C13         2.0676  -18.8704  -50.0338 C.ar      23 UNK        -0.0193 
     14 C14         1.8342  -17.8889  -49.0683 C.ar      23 UNK        -0.1150 
     15 C15         2.6600  -20.2121  -49.6308 C.3       23 UNK        -0.0205 
     16 S16         1.3722  -21.4744  -49.3864 S.3       23 UNK        -0.2404 
     17 C17         0.4543  -20.7641  -47.9828 C.3       23 UNK        -0.0398 
     18 CA         -0.6112  -21.7335  -47.4323 C.3       11 UNK         0.1400 
     19 N          -0.0287  -22.9561  -46.8749 N.am      11 UNK        -0.5000 
     20 C          -0.7261  -24.0566  -46.5643 C.2       10 UNK         0.5000 
     21 O          -1.9398  -24.1643  -46.7229 O.2       10 UNK        -0.5000 
     22 CA          0.0593  -25.2087  -45.9174 C.3       10 UNK         0.1400 
     23 CB          0.8437  -25.9930  -46.9801 C.3       10 UNK        -0.1800 
     24 N           0.9755  -24.7326  -44.8813 N.am      10 UNK        -0.5000 
     25 C           0.5907  -24.1306  -43.7463 C.2       9 UNK         0.5000 
     26 O          -0.5852  -23.9634  -43.4229 O.2       9 UNK        -0.5000 
     27 CA          1.7122  -23.5704  -42.8530 C.3       9 UNK         0.1400 
     28 CB          2.2267  -24.6494  -41.8890 C.3       9 UNK        -0.1800 
     29 N           2.8361  -23.0239  -43.6205 N.am      9 UNK        -0.5000 
     30 C           2.7487  -21.9674  -44.4381 C.2       8 UNK         0.5000 
     31 O           1.7021  -21.3484  -44.6535 O.2       8 UNK        -0.5000 
     32 CA          4.0301  -21.5510  -45.1670 C.3       8 UNK         0.1400 
     33 CB          4.1502  -22.2656  -46.5226 C.3       8 UNK        -0.1800 
     34 N           3.9680  -20.1099  -45.3629 N.am      8 UNK        -0.5000 
     35 C           5.0139  -19.2778  -45.3657 C.2       7 UNK         0.5000 
     36 O           6.1867  -19.6540  -45.3722 O.2       7 UNK        -0.5000 
     37 CA          4.7036  -17.7666  -45.3227 C.3       7 UNK         0.1400 
     38 CB          4.8494  -17.1412  -46.7182 C.3       7 UNK        -0.1800 
     39 N           3.3798  -17.4371  -44.7764 N.am      7 UNK        -0.5000 
     40 C           3.0029  -17.6540  -43.5073 C.2       6 UNK         0.5000 
     41 O           3.7241  -18.1834  -42.6605 O.2       6 UNK        -0.5000 
     42 CA          1.6181  -17.1185  -43.1194 C.3       6 UNK         0.1400 
     43 CB          1.1745  -17.5368  -41.7027 C.3       6 UNK        -0.1800 
     44 N           1.6699  -15.6650  -43.2209 N.am      6 UNK        -0.5000 
     45 C           0.6187  -14.8597  -43.3831 C.2       5 UNK         0.5000 
     46 O          -0.5441  -15.2555  -43.4885 O.2       5 UNK        -0.5000 
     47 CA          0.9307  -13.3625  -43.4899 C.3       5 UNK         0.1400 
     48 CB          0.8555  -12.9155  -44.9558 C.3       5 UNK        -0.1800 
     49 N          -0.0404  -12.6083  -42.7006 N.am      5 UNK        -0.5000 
     50 C           0.2587  -11.8784  -41.6168 C.2       4 UNK         0.5000 
     51 O           1.4075  -11.7382  -41.1920 O.2       4 UNK        -0.5000 
     52 CA         -0.9145  -11.2058  -40.8663 C.3       4 UNK         0.1400 
     53 CB         -0.4797   -9.9626  -40.0608 C.3       4 UNK        -0.1800 
     54 N          -2.0676  -10.8968  -41.7183 N.am      4 UNK        -0.5000 
     55 C          -2.1092  -10.0634  -42.7676 C.2       3 UNK         0.5000 
     56 O          -1.1602   -9.3803  -43.1573 O.2       3 UNK        -0.5000 
     57 CA         -3.4436  -10.0336  -43.5404 C.3       3 UNK         0.1400 
     58 CB         -3.8767   -8.5932  -43.8609 C.3       3 UNK        -0.1800 
     59 N          -3.3810  -10.8015  -44.7865 N.am      3 UNK        -0.5000 
     60 C          -3.0545  -12.0963  -44.8917 C.2       2 UNK         0.5000 
     61 O          -2.7780  -12.8153  -43.9257 O.2       2 UNK        -0.5000 
     62 CA         -3.0415  -12.6918  -46.3085 C.3       2 UNK         0.1400 
     63 CB         -2.1027  -11.9267  -47.2651 C.3       2 UNK        -0.1800 
     64 N          -2.6486  -14.0915  -46.1960 N.am      2 UNK        -0.5000 
     65 C          -2.8544  -15.0522  -47.1010 C.2       1 UNK         0.5000 
     66 O          -3.3310  -14.8411  -48.2158 O.2       1 UNK        -0.5000 
     67 C          -1.5219  -21.0202  -46.4187 C.2       11 UNK         0.5000 
     68 O          -2.5636  -20.5004  -46.8146 O.2       11 UNK        -0.5000 
     69 N          -1.1423  -21.0235  -45.1350 N.am      12 UNK        -0.5000 
     70 CA         -1.9580  -20.4857  -44.0477 C.3       12 UNK         0.1400 
     71 CB         -1.1308  -20.4453  -42.7562 C.3       12 UNK        -0.1800 
     72 C          -3.2680  -21.2729  -43.8510 C.2       12 UNK         0.5000 
     73 O          -4.3184  -20.6616  -43.6577 O.2       12 UNK        -0.5000 
     74 N          -3.1866  -22.6079  -43.9384 N.am      13 UNK        -0.5000 
     75 CA         -4.3283  -23.5176  -43.8464 C.3       13 UNK         0.1400 
     76 CB         -3.8195  -24.9508  -43.6273 C.3       13 UNK        -0.1800 
     77 C          -5.2520  -23.4500  -45.0774 C.2       13 UNK         0.5000 
     78 O          -6.4725  -23.4132  -44.9186 O.2       13 UNK        -0.5000 
     79 N          -4.6592  -23.4369  -46.2791 N.am      14 UNK        -0.5000 
     80 CA         -5.3706  -23.4435  -47.5608 C.3       14 UNK         0.1400 
     81 CB         -4.4261  -23.9755  -48.6493 C.3       14 UNK        -0.1800 
     82 C          -5.9310  -22.0713  -47.9808 C.2       14 UNK         0.5000 
     83 O          -6.6730  -22.0125  -48.9618 O.2       14 UNK        -0.5000 
     84 N          -5.5510  -21.0029  -47.2641 N.am      15 UNK        -0.5000 
     85 CA         -5.8275  -19.5940  -47.5608 C.3       15 UNK         0.1400 
     86 CB         -7.3372  -19.2839  -47.4904 C.3       15 UNK        -0.1800 
     87 C          -5.1730  -19.1783  -48.8929 C.2       15 UNK         0.5000 
     88 O          -5.8534  -18.7933  -49.8446 O.2       15 UNK        -0.5000 
     89 N          -3.8431  -19.3242  -48.9292 N.am      16 UNK        -0.5000 
     90 CA         -2.8966  -19.0397  -50.0111 C.3       16 UNK         0.1400 
     91 CB         -3.0772  -17.6154  -50.5635 C.3       16 UNK        -0.1800 
     92 C          -2.9037  -20.0836  -51.1391 C.2       16 UNK         0.5000 
     93 O          -1.8327  -20.4434  -51.6279 O.2       16 UNK        -0.5000 
     94 N          -4.0870  -20.5733  -51.5234 N.am      17 UNK        -0.5000 
     95 CA         -4.3273  -21.5079  -52.6259 C.3       17 UNK         0.1400 
     96 CB         -5.8004  -21.3754  -53.0517 C.3       17 UNK        -0.1800 
     97 C          -3.9291  -22.9674  -52.3037 C.2       17 UNK         0.5000 
     98 O          -4.7277  -23.8849  -52.5003 O.2       17 UNK        -0.5000 
     99 N          -2.7039  -23.1649  -51.8000 N.am      18 UNK        -0.5000 
    100 CA        -2.1361  -24.4779  -51.4825 C.3       18 UNK         0.1400 
    101 CB        -0.9680  -24.3030  -50.5020 C.3       18 UNK        -0.1800 
    102 C         -1.6720  -25.2489  -52.7316 C.2       18 UNK         0.5000 
    103 O         -1.7093  -26.4801  -52.7285 O.2       18 UNK        -0.5000 
    104 N         -1.2370  -24.5142  -53.7629 N.am      19 UNK        -0.5000 
    105 CA        -0.8174  -25.0465  -55.0557 C.3       19 UNK         0.1400 
    106 CB         0.4896  -24.3491  -55.4834 C.3       19 UNK        -0.1800 
    107 C         -1.9785  -24.8720  -56.0498 C.2       19 UNK         0.5000 
    108 O         -2.9385  -25.6425  -55.9947 O.2       19 UNK        -0.5000 
    109 N         -1.8818  -23.8629  -56.9242 N.am      20 UNK        -0.5000 
    110 CA        -2.9437  -23.4280  -57.8295 C.3       20 UNK         0.1400 
    111 CB        -2.3022  -22.9740  -59.1567 C.3       20 UNK        -0.1800 
    112 C         -3.7843  -22.3390  -57.1298 C.2       20 UNK         0.5000 
    113 O         -4.2165  -22.5426  -55.9943 O.2       20 UNK        -0.5000 
    114 N         -3.9781  -21.1864  -57.7869 N.am      21 UNK        -0.5000 
    115 CA        -4.6372  -20.0036  -57.2204 C.3       21 UNK         0.1400 
    116 CB        -4.8797  -18.9806  -58.3406 C.3       21 UNK        -0.1800 
    117 C         -3.8429  -19.3613  -56.0634 C.2       21 UNK         0.5000 
    118 O         -4.4366  -18.7006  -55.2115 O.2       21 UNK        -0.5000 
    119 N         -2.5253  -19.5870  -56.0457 N.am      22 UNK        -0.5000 
    120 CA        -1.6070  -19.2186  -54.9702 C.3       22 UNK         0.1400 
    121 C         -0.4450  -20.2422  -54.9335 C.2       22 UNK         0.5000 
    122 N         -0.1045  -20.7785  -53.7712 N.am      22 UNK        -0.7600 
    123 O          0.1550  -20.5495  -55.9611 O.2       22 UNK        -0.5000 
    124 C124       -1.1033  -17.7562  -55.1100 C.3       23 UNK        -0.0398 
    125 S125       -0.8958  -16.9583  -53.4865 S.3       23 UNK        -0.2404 
    126 C126        0.8958  -17.0949  -53.2051 C.3       23 UNK        -0.0205 
    127 H127       -3.6590  -16.0525  -42.4668 H         1 UNK         0.0600 
    128 H128       -2.3100  -17.1662  -42.7208 H         1 UNK         0.0600 
    129 H129       -3.9493  -17.7953  -42.5642 H         1 UNK         0.0600 
    130 H130       -1.5885  -16.4952  -44.7700 H         1 UNK         0.3000 
    131 H131       -3.3192  -17.1167  -47.0688 H         1 UNK         0.0600 
    132 H132       -1.2998  -16.9282  -48.4358 H         1 UNK         0.0800 
    133 H133       -1.1315  -18.0900  -47.1594 H         1 UNK         0.0800 
    134 H134        1.9308  -15.0579  -48.1518 H         1 UNK         0.0800 
    135 H135        0.2998  -14.8413  -48.7431 H         1 UNK         0.0800 
    136 H136        0.5541  -15.4515  -51.0510 H         1 UNK         0.1150 
    137 H137        1.9264  -19.3710  -52.1159 H         1 UNK         0.1150 
    138 H138        2.0697  -18.0973  -48.0356 H         1 UNK         0.1150 
    139 H139        3.3485  -20.5560  -50.4039 H         1 UNK         0.0800 
    140 H140        3.2520  -20.1109  -48.7199 H         1 UNK         0.0800 
    141 H141       -0.0184  -19.8481  -48.3361 H         1 UNK         0.0800 
    142 H142        1.1578  -20.4724  -47.2014 H         1 UNK         0.0800 
    143 H143       -1.2548  -22.0203  -48.2656 H         1 UNK         0.0600 
    144 H144        0.9616  -22.9371  -46.6868 H         1 UNK         0.3000 
    145 H145       -0.6604  -25.8848  -45.4510 H         1 UNK         0.0600 
    146 H146        1.3455  -26.8560  -46.5423 H         1 UNK         0.0600 
    147 H147        0.1772  -26.3663  -47.7590 H         1 UNK         0.0600 
    148 H148        1.6002  -25.3746  -47.4651 H         1 UNK         0.0600 
    149 H149        1.9633  -24.8297  -45.0628 H         1 UNK         0.3000 
    150 H150        1.2861  -22.7586  -42.2597 H         1 UNK         0.0600 
    151 H151        1.4111  -25.0597  -41.2918 H         1 UNK         0.0600 
    152 H152        2.9613  -24.2405  -41.1951 H         1 UNK         0.0600 
    153 H153        2.6927  -25.4790  -42.4222 H         1 UNK         0.0600 
    154 H154        3.7283  -23.4816  -43.4997 H         1 UNK         0.3000 
    155 H155        4.8885  -21.8016  -44.5399 H         1 UNK         0.0600 
    156 H156        3.2831  -22.0772  -47.1544 H         1 UNK         0.0600 
    157 H157        4.2315  -23.3450  -46.3903 H         1 UNK         0.0600 
    158 H158        5.0365  -21.9371  -47.0655 H         1 UNK         0.0600 
    159 H159        3.0339  -19.7263  -45.3048 H         1 UNK         0.3000 
    160 H160        5.4482  -17.3051  -44.6707 H         1 UNK         0.0600 
    161 H161        5.8675  -17.2607  -47.0907 H         1 UNK         0.0600 
    162 H162        4.6340  -16.0726  -46.7020 H         1 UNK         0.0600 
    163 H163        4.1856  -17.6094  -47.4425 H         1 UNK         0.0600 
    164 H164        2.7358  -16.9716  -45.4007 H         1 UNK         0.3000 
    165 H165        0.9007  -17.5141  -43.8419 H         1 UNK         0.0600 
    166 H166        0.1423  -17.2444  -41.5097 H         1 UNK         0.0600 
    167 H167        1.2362  -18.6173  -41.5715 H         1 UNK         0.0600 
    168 H168        1.8006  -17.0793  -40.9359 H         1 UNK         0.0600 
    169 H169        2.5970  -15.2640  -43.1755 H         1 UNK         0.3000 
    170 H170        1.9463  -13.1822  -43.1318 H         1 UNK         0.0600 
    171 H171        1.6545  -13.3700  -45.5427 H         1 UNK         0.0600 
    172 H172       -0.0872  -13.2155  -45.4096 H         1 UNK         0.0600 
    173 H173        0.9510  -11.8337  -45.0501 H         1 UNK         0.0600 
    174 H174       -1.0132  -12.7272  -42.9696 H         1 UNK         0.3000 
    175 H175       -1.2661  -11.9486  -40.1490 H         1 UNK         0.0600 
    176 H176       -0.0414   -9.1970  -40.7016 H         1 UNK         0.0600 
    177 H177       -1.3246   -9.5174  -39.5354 H         1 UNK         0.0600 
    178 H178        0.2655  -10.2235  -39.3085 H         1 UNK         0.0600 
    179 H179       -2.8921  -11.4516  -41.5333 H         1 UNK         0.3000 
    180 H180       -4.2185  -10.4809  -42.9144 H         1 UNK         0.0600 
    181 H181       -4.8644   -8.5710  -44.3218 H         1 UNK         0.0600 
    182 H182       -3.1784   -8.1024  -44.5401 H         1 UNK         0.0600 
    183 H183       -3.9293   -7.9910  -42.9530 H         1 UNK         0.0600 
    184 H184       -3.5753  -10.2835  -45.6307 H         1 UNK         0.3000 
    185 H185       -4.0620  -12.6493  -46.6941 H         1 UNK         0.0600 
    186 H186       -2.0360  -12.4146  -48.2374 H         1 UNK         0.0600 
    187 H187       -2.4670  -10.9152  -47.4454 H         1 UNK         0.0600 
    188 H188       -1.0923  -11.8389  -46.8693 H         1 UNK         0.0600 
    189 H189       -2.3089  -14.3463  -45.2745 H         1 UNK         0.3000 
    190 H190       -0.2357  -21.4086  -44.8879 H         1 UNK         0.3000 
    191 H191       -2.2201  -19.4607  -44.3118 H         1 UNK         0.0600 
    192 H192       -1.6762  -19.9379  -41.9597 H         1 UNK         0.0600 
    193 H193       -0.1968  -19.9070  -42.9104 H         1 UNK         0.0600 
    194 H194       -0.8840  -21.4458  -42.4016 H         1 UNK         0.0600 
    195 H195       -2.2725  -23.0358  -44.0474 H         1 UNK         0.3000 
    196 H196       -4.9181  -23.2333  -42.9724 H         1 UNK         0.0600 
    197 H197       -3.1888  -25.2857  -44.4516 H         1 UNK         0.0600 
    198 H198       -3.2346  -25.0243  -42.7103 H         1 UNK         0.0600 
    199 H199       -4.6500  -25.6525  -43.5413 H         1 UNK         0.0600 
    200 H200       -3.6469  -23.5296  -46.3300 H         1 UNK         0.3000 
    201 H201       -6.2161  -24.1301  -47.4837 H         1 UNK         0.0600 
    202 H202       -3.5841  -23.3014  -48.8098 H         1 UNK         0.0600 
    203 H203       -4.9473  -24.0821  -49.6011 H         1 UNK         0.0600 
    204 H204       -4.0289  -24.9564  -48.3880 H         1 UNK         0.0600 
    205 H205       -4.9023  -21.1665  -46.5057 H         1 UNK         0.3000 
    206 H206       -5.3387  -19.0138  -46.7764 H         1 UNK         0.0600 
    207 H207       -7.7551  -19.5839  -46.5295 H         1 UNK         0.0600 
    208 H208       -7.5155  -18.2140  -47.6030 H         1 UNK         0.0600 
    209 H209       -7.9005  -19.7902  -48.2744 H         1 UNK         0.0600 
    210 H210       -3.4134  -19.7371  -48.1000 H         1 UNK         0.3000 
    211 H211       -1.9112  -19.0872  -49.5479 H         1 UNK         0.0600 
    212 H212       -2.1489  -17.2601  -51.0052 H         1 UNK         0.0600 
    213 H213       -3.3463  -16.9103  -49.7803 H         1 UNK         0.0600 
    214 H214       -3.8524  -17.5668  -51.3295 H         1 UNK         0.0600 
    215 H215       -4.9092  -20.2162  -51.0495 H         1 UNK         0.3000 
    216 H216       -3.7130  -21.2002  -53.4739 H         1 UNK         0.0600 
    217 H217       -6.4774  -21.6605  -52.2452 H         1 UNK         0.0600 
    218 H218       -6.0209  -22.0100  -53.9109 H         1 UNK         0.0600 
    219 H219       -6.0348  -20.3509  -53.3418 H         1 UNK         0.0600 
    220 H220       -2.1172  -22.3500  -51.6496 H         1 UNK         0.3000 
    221 H221       -2.9016  -25.0812  -50.9903 H         1 UNK         0.0600 
    222 H222       -1.3112  -23.8804  -49.5609 H         1 UNK         0.0600 
    223 H223       -0.1950  -23.6491  -50.9069 H         1 UNK         0.0600 
    224 H224       -0.5011  -25.2611  -50.2699 H         1 UNK         0.0600 
    225 H225       -1.2837  -23.5091  -53.6833 H         1 UNK         0.3000 
    226 H226       -0.6120  -26.1166  -54.9847 H         1 UNK         0.0600 
    227 H227        1.2953  -24.5799  -54.7863 H         1 UNK         0.0600 
    228 H228        0.8125  -24.6879  -56.4687 H         1 UNK         0.0600 
    229 H229        0.3898  -23.2644  -55.5172 H         1 UNK         0.0600 
    230 H230       -1.0644  -23.2713  -56.8793 H         1 UNK         0.3000 
    231 H231       -3.6144  -24.2611  -58.0493 H         1 UNK         0.0600 
    232 H232       -1.6330  -22.1234  -59.0187 H         1 UNK         0.0600 
    233 H233       -3.0595  -22.6952  -59.8905 H         1 UNK         0.0600 
    234 H234       -1.7179  -23.7812  -59.5992 H         1 UNK         0.0600 
    235 H235       -3.6024  -21.0910  -58.7194 H         1 UNK         0.3000 
    236 H236       -5.6056  -20.3128  -56.8213 H         1 UNK         0.0600 
    237 H237       -5.5025  -19.4004  -59.1308 H         1 UNK         0.0600 
    238 H238       -5.3937  -18.0977  -57.9581 H         1 UNK         0.0600 
    239 H239       -3.9440  -18.6464  -58.7904 H         1 UNK         0.0600 
    240 H240       -2.1131  -20.1470  -56.7788 H         1 UNK         0.3000 
    241 H241       -2.1636  -19.3154  -54.0366 H         1 UNK         0.0600 
    242 H242        0.6740  -21.4149  -53.7318 H         1 UNK         0.3800 
    243 H243       -0.6146  -20.5495  -52.9183 H         1 UNK         0.3800 
    244 H244       -1.8387  -17.1551  -55.6463 H         1 UNK         0.0800 
    245 H245       -0.1881  -17.6855  -55.7005 H         1 UNK         0.0800 
    246 H246        1.3127  -17.8821  -53.8350 H         1 UNK         0.0800 
    247 H247        1.3797  -16.1669  -53.5121 H         1 UNK         0.0800 
@<TRIPOS>BOND
     1    1    2 1    
     2    1  127 1    
     3    1  128 1    
     4    1  129 1    
     5    2    3 2    
     6    2    4 am   BACKBONE|DICT|INTERRES
     7    4    5 1    
     8    4  130 1    
     9    5    6 1    
    10    5   65 1    
    11    5  131 1    
    12    6    7 1    
    13    6  132 1    
    14    6  133 1    
    15    7    8 1    
    16    8    9 1    
    17    8  134 1    
    18    8  135 1    
    19    9   10 ar   
    20    9   14 ar   
    21   10   11 ar   
    22   10  136 1    
    23   11   12 ar   
    24   11  126 1    
    25   12   13 ar   
    26   12  137 1    
    27   13   14 ar   
    28   13   15 1    
    29   14  138 1    
    30   15   16 1    
    31   15  139 1    
    32   15  140 1    
    33   16   17 1    
    34   17   18 1    
    35   17  141 1    
    36   17  142 1    
    37   18   19 1    
    38   18   67 1    
    39   18  143 1    
    40   19   20 am   BACKBONE|DICT|INTERRES
    41   19  144 1    
    42   20   21 2    
    43   20   22 1    
    44   22   23 1    
    45   22   24 1    
    46   22  145 1    
    47   23  146 1    
    48   23  147 1    
    49   23  148 1    
    50   24   25 am   BACKBONE|DICT|INTERRES
    51   24  149 1    
    52   25   26 2    
    53   25   27 1    
    54   27   28 1    
    55   27   29 1    
    56   27  150 1    
    57   28  151 1    
    58   28  152 1    
    59   28  153 1    
    60   29   30 am   BACKBONE|DICT|INTERRES
    61   29  154 1    
    62   30   31 2    
    63   30   32 1    
    64   32   33 1    
    65   32   34 1    
    66   32  155 1    
    67   33  156 1    
    68   33  157 1    
    69   33  158 1    
    70   34   35 am   BACKBONE|DICT|INTERRES
    71   34  159 1    
    72   35   36 2    
    73   35   37 1    
    74   37   38 1    
    75   37   39 1    
    76   37  160 1    
    77   38  161 1    
    78   38  162 1    
    79   38  163 1    
    80   39   40 am   BACKBONE|DICT|INTERRES
    81   39  164 1    
    82   40   41 2    
    83   40   42 1    
    84   42   43 1    
    85   42   44 1    
    86   42  165 1    
    87   43  166 1    
    88   43  167 1    
    89   43  168 1    
    90   44   45 am   BACKBONE|DICT|INTERRES
    91   44  169 1    
    92   45   46 2    
    93   45   47 1    
    94   47   48 1    
    95   47   49 1    
    96   47  170 1    
    97   48  171 1    
    98   48  172 1    
    99   48  173 1    
   100   49   50 am   BACKBONE|DICT|INTERRES
   101   49  174 1    
   102   50   51 2    
   103   50   52 1    
   104   52   53 1    
   105   52   54 1    
   106   52  175 1    
   107   53  176 1    
   108   53  177 1    
   109   53  178 1    
   110   54   55 am   BACKBONE|DICT|INTERRES
   111   54  179 1    
   112   55   56 2    
   113   55   57 1    
   114   57   58 1    
   115   57   59 1    
   116   57  180 1    
   117   58  181 1    
   118   58  182 1    
   119   58  183 1    
   120   59   60 am   BACKBONE|DICT|INTERRES
   121   59  184 1    
   122   60   61 2    
   123   60   62 1    
   124   62   63 1    
   125   62   64 1    
   126   62  185 1    
   127   63  186 1    
   128   63  187 1    
   129   63  188 1    
   130   64   65 am   BACKBONE|DICT|INTERRES
   131   64  189 1    
   132   65   66 2    
   133   67   68 2    
   134   67   69 am   BACKBONE|DICT|INTERRES
   135   69   70 1    
   136   69  190 1    
   137   70   71 1    
   138   70   72 1    
   139   70  191 1    
   140   71  192 1    
   141   71  193 1    
   142   71  194 1    
   143   72   73 2    
   144   72   74 am   BACKBONE|DICT|INTERRES
   145   74   75 1    
   146   74  195 1    
   147   75   76 1    
   148   75   77 1    
   149   75  196 1    
   150   76  197 1    
   151   76  198 1    
   152   76  199 1    
   153   77   78 2    
   154   77   79 am   BACKBONE|DICT|INTERRES
   155   79   80 1    
   156   79  200 1    
   157   80   81 1    
   158   80   82 1    
   159   80  201 1    
   160   81  202 1    
   161   81  203 1    
   162   81  204 1    
   163   82   83 2    
   164   82   84 am   BACKBONE|DICT|INTERRES
   165   84   85 1    
   166   84  205 1    
   167   85   86 1    
   168   85   87 1    
   169   85  206 1    
   170   86  207 1    
   171   86  208 1    
   172   86  209 1    
   173   87   88 2    
   174   87   89 am   BACKBONE|DICT|INTERRES
   175   89   90 1    
   176   89  210 1    
   177   90   91 1    
   178   90   92 1    
   179   90  211 1    
   180   91  212 1    
   181   91  213 1    
   182   91  214 1    
   183   92   93 2    
   184   92   94 am   BACKBONE|DICT|INTERRES
   185   94   95 1    
   186   94  215 1    
   187   95   96 1    
   188   95   97 1    
   189   95  216 1    
   190   96  217 1    
   191   96  218 1    
   192   96  219 1    
   193   97   98 2    
   194   97   99 am   BACKBONE|DICT|INTERRES
   195   99  100 1    
   196   99  220 1    
   197  100  101 1    
   198  100  102 1    
   199  100  221 1    
   200  101  222 1    
   201  101  223 1    
   202  101  224 1    
   203  102  103 2    
   204  102  104 am   BACKBONE|DICT|INTERRES
   205  104  105 1    
   206  104  225 1    
   207  105  106 1    
   208  105  107 1    
   209  105  226 1    
   210  106  227 1    
   211  106  228 1    
   212  106  229 1    
   213  107  108 2    
   214  107  109 am   BACKBONE|DICT|INTERRES
   215  109  110 1    
   216  109  230 1    
   217  110  111 1    
   218  110  112 1    
   219  110  231 1    
   220  111  232 1    
   221  111  233 1    
   222  111  234 1    
   223  112  113 2    
   224  112  114 am   BACKBONE|DICT|INTERRES
   225  114  115 1    
   226  114  235 1    
   227  115  116 1    
   228  115  117 1    
   229  115  236 1    
   230  116  237 1    
   231  116  238 1    
   232  116  239 1    
   233  117  118 2    
   234  117  119 am   BACKBONE|DICT|INTERRES
   235  119  120 1    
   236  119  240 1    
   237  120  121 1    
   238  120  124 1    
   239  120  241 1    
   240  121  122 am   BACKBONE|DICT|INTERRES
   241  121  123 2    
   242  122  242 1    
   243  122  243 1    
   244  124  125 1    
   245  124  244 1    
   246  124  245 1    
   247  125  126 1    
   248  126  246 1    
   249  126  247 1    
@<TRIPOS>SUBSTRUCTURE
     1 UNK         1 GROUP             0       ****    0 ROOT    
