@<TRIPOS>MOLECULE
3R540
247   249    1
SMALL
USER_CHARGES


@<TRIPOS>ATOM
      1 CA         -5.3053   -8.2643  -48.2049 C.3       0 UNK        -0.1800 
      2 C          -4.5519   -9.4442  -48.8032 C.2       0 UNK         0.5000 
      3 O          -4.1653   -9.3953  -49.9713 O.2       0 UNK        -0.5000 
      4 N          -4.3500  -10.5052  -48.0119 N.am      1 UNK        -0.5000 
      5 CA         -3.5899  -11.7001  -48.3870 C.3       1 UNK         0.1400 
      6 C6         -3.8998  -12.8728  -47.4193 C.3       23 UNK        -0.0398 
      7 S7         -2.9352  -14.3970  -47.6974 S.3       23 UNK        -0.2404 
      8 C8         -3.7326  -15.0888  -49.1759 C.3       23 UNK        -0.0205 
      9 C9         -2.9239  -16.2564  -49.7170 C.ar      23 UNK        -0.0193 
     10 C10        -1.7545  -16.0191  -50.4435 C.ar      23 UNK        -0.1150 
     11 C11        -0.9995  -17.0855  -50.9373 C.ar      23 UNK        -0.0193 
     12 C12        -1.4268  -18.3955  -50.7089 C.ar      23 UNK        -0.1150 
     13 C13        -2.5969  -18.6522  -49.9896 C.ar      23 UNK        -0.0193 
     14 C14        -3.3397  -17.5714  -49.4934 C.ar      23 UNK        -0.1150 
     15 C15        -3.0564  -20.1013  -49.8392 C.3       23 UNK        -0.0205 
     16 S16        -4.1672  -20.4245  -48.4300 S.3       23 UNK        -0.2404 
     17 C17        -2.9963  -20.5359  -47.0359 C.3       23 UNK        -0.0398 
     18 CA         -2.9507  -21.9662  -46.4469 C.3       11 UNK         0.1400 
     19 N          -1.7369  -22.2091  -45.6651 N.am      11 UNK        -0.5000 
     20 C          -1.3536  -23.4029  -45.1914 C.2       10 UNK         0.5000 
     21 O          -1.9668  -24.4483  -45.4040 O.2       10 UNK        -0.5000 
     22 CA         -0.1175  -23.4272  -44.2726 C.3       10 UNK         0.1400 
     23 CB          1.1840  -23.4473  -45.0866 C.3       10 UNK        -0.1800 
     24 N          -0.1010  -22.3099  -43.3257 N.am      10 UNK        -0.5000 
     25 C          -1.0147  -22.1326  -42.3600 C.2       9 UNK         0.5000 
     26 O          -1.9200  -22.9330  -42.1272 O.2       9 UNK        -0.5000 
     27 CA         -0.9416  -20.8227  -41.5536 C.3       9 UNK         0.1400 
     28 CB          0.1083  -20.9217  -40.4374 C.3       9 UNK        -0.1800 
     29 N          -0.6658  -19.6575  -42.3956 N.am      9 UNK        -0.5000 
     30 C          -1.4861  -19.2052  -43.3562 C.2       8 UNK         0.5000 
     31 O          -2.5940  -19.6876  -43.5904 O.2       8 UNK        -0.5000 
     32 CA         -0.9544  -18.0673  -44.2471 C.3       8 UNK         0.1400 
     33 CB         -1.1124  -16.7034  -43.5600 C.3       8 UNK        -0.1800 
     34 N           0.4444  -18.2697  -44.6206 N.am      8 UNK        -0.5000 
     35 C           0.8947  -19.2905  -45.3596 C.2       7 UNK         0.5000 
     36 O           0.1580  -20.1381  -45.8558 O.2       7 UNK        -0.5000 
     37 CA          2.4185  -19.4285  -45.5183 C.3       7 UNK         0.1400 
     38 CB          2.9536  -18.5811  -46.6820 C.3       7 UNK        -0.1800 
     39 N           3.1298  -19.0851  -44.2879 N.am      7 UNK        -0.5000 
     40 C           3.1416  -19.8486  -43.1876 C.2       6 UNK         0.5000 
     41 O           2.5807  -20.9419  -43.1108 O.2       6 UNK        -0.5000 
     42 CA          3.8789  -19.2792  -41.9610 C.3       6 UNK         0.1400 
     43 CB          5.3861  -19.5586  -42.0578 C.3       6 UNK        -0.1800 
     44 N           3.6623  -17.8410  -41.7857 N.am      6 UNK        -0.5000 
     45 C           2.4911  -17.2965  -41.4281 C.2       5 UNK         0.5000 
     46 O           1.4763  -17.9540  -41.1968 O.2       5 UNK        -0.5000 
     47 CA          2.4286  -15.7560  -41.3636 C.3       5 UNK         0.1400 
     48 CB          2.9640  -15.2521  -40.0149 C.3       5 UNK        -0.1800 
     49 N           3.1263  -15.0606  -42.4547 N.am      5 UNK        -0.5000 
     50 C           2.9133  -15.2762  -43.7594 C.2       4 UNK         0.5000 
     51 O           2.1858  -16.1744  -44.1834 O.2       4 UNK        -0.5000 
     52 CA          3.6568  -14.3714  -44.7614 C.3       4 UNK         0.1400 
     53 CB          5.1374  -14.7737  -44.8497 C.3       4 UNK        -0.1800 
     54 N           3.0610  -14.4916  -46.0940 N.am      4 UNK        -0.5000 
     55 C           1.8731  -13.9824  -46.4440 C.2       3 UNK         0.5000 
     56 O           1.2487  -13.1591  -45.7698 O.2       3 UNK        -0.5000 
     57 CA          1.2553  -14.5584  -47.7318 C.3       3 UNK         0.1400 
     58 CB          0.3812  -15.7752  -47.3894 C.3       3 UNK        -0.1800 
     59 N           0.4494  -13.5822  -48.4643 N.am      3 UNK        -0.5000 
     60 C           0.9483  -12.5167  -49.1055 C.2       2 UNK         0.5000 
     61 O           2.1500  -12.2466  -49.1365 O.2       2 UNK        -0.5000 
     62 CA         -0.0362  -11.6192  -49.8828 C.3       2 UNK         0.1400 
     63 CB          0.1508  -11.8175  -51.3964 C.3       2 UNK        -0.1800 
     64 N          -1.4449  -11.8559  -49.5619 N.am      2 UNK        -0.5000 
     65 C          -2.0828  -11.3671  -48.4906 C.2       1 UNK         0.5000 
     66 O          -1.5403  -10.6865  -47.6167 O.2       1 UNK        -0.5000 
     67 C          -4.2311  -22.3100  -45.6561 C.2       11 UNK         0.5000 
     68 O          -5.1273  -22.9531  -46.2026 O.2       11 UNK        -0.5000 
     69 N          -4.2773  -21.9181  -44.3751 N.am      12 UNK        -0.5000 
     70 CA         -5.3589  -22.2575  -43.4498 C.3       12 UNK         0.1400 
     71 CB         -5.1920  -21.4577  -42.1490 C.3       12 UNK        -0.1800 
     72 C          -5.4483  -23.7692  -43.1610 C.2       12 UNK         0.5000 
     73 O          -6.5551  -24.2934  -43.0289 O.2       12 UNK        -0.5000 
     74 N          -4.2913  -24.4415  -43.0825 N.am      13 UNK        -0.5000 
     75 CA         -4.1845  -25.8871  -42.8954 C.3       13 UNK         0.1400 
     76 CB         -2.7538  -26.2525  -42.4701 C.3       13 UNK        -0.1800 
     77 C          -4.6117  -26.6860  -44.1414 C.2       13 UNK         0.5000 
     78 O          -5.3455  -27.6656  -43.9983 O.2       13 UNK        -0.5000 
     79 N          -4.1598  -26.2655  -45.3311 N.am      14 UNK        -0.5000 
     80 CA         -4.4613  -26.9235  -46.6011 C.3       14 UNK         0.1400 
     81 CB         -3.5757  -28.1725  -46.7857 C.3       14 UNK        -0.1800 
     82 C          -4.3345  -25.9558  -47.7873 C.2       14 UNK         0.5000 
     83 O          -5.3424  -25.6358  -48.4185 O.2       14 UNK        -0.5000 
     84 N          -3.1015  -25.5362  -48.0903 N.am      15 UNK        -0.5000 
     85 CA         -2.7229  -24.7162  -49.2393 C.3       15 UNK         0.1400 
     86 CB         -2.8608  -25.5206  -50.5476 C.3       15 UNK        -0.1800 
     87 C          -1.2711  -24.2540  -49.0479 C.2       15 UNK         0.5000 
     88 O          -0.5337  -24.8599  -48.2659 O.2       15 UNK        -0.5000 
     89 N          -0.8783  -23.2071  -49.7773 N.am      16 UNK        -0.5000 
     90 CA          0.4730  -22.6557  -49.7850 C.3       16 UNK         0.1400 
     91 CB          0.6130  -21.5834  -48.6947 C.3       16 UNK        -0.1800 
     92 C           0.7485  -22.0731  -51.1735 C.2       16 UNK         0.5000 
     93 O          -0.1947  -21.6909  -51.8685 O.2       16 UNK        -0.5000 
     94 N           2.0300  -22.0485  -51.5675 N.am      17 UNK        -0.5000 
     95 CA          2.5414  -21.5757  -52.8654 C.3       17 UNK         0.1400 
     96 CB          2.3450  -20.0501  -52.9911 C.3       17 UNK        -0.1800 
     97 C           1.9695  -22.3404  -54.0842 C.2       17 UNK         0.5000 
     98 O           1.9909  -21.8185  -55.1999 O.2       17 UNK        -0.5000 
     99 N           1.4530  -23.5558  -53.8370 N.am      18 UNK        -0.5000 
    100 CA         0.6883  -24.4112  -54.7516 C.3       18 UNK         0.1400 
    101 CB         1.5887  -24.9378  -55.8890 C.3       18 UNK        -0.1800 
    102 C         -0.6117  -23.7497  -55.2679 C.2       18 UNK         0.5000 
    103 O         -1.0575  -24.0654  -56.3731 O.2       18 UNK        -0.5000 
    104 N         -1.1950  -22.8450  -54.4697 N.am      19 UNK        -0.5000 
    105 CA        -2.3734  -22.0565  -54.8109 C.3       19 UNK         0.1400 
    106 CB        -1.9418  -20.5873  -54.9600 C.3       19 UNK        -0.1800 
    107 C         -3.4429  -22.1822  -53.7165 C.2       19 UNK         0.5000 
    108 O         -3.1198  -22.4257  -52.5510 O.2       19 UNK        -0.5000 
    109 N         -4.7035  -21.9618  -54.1124 N.am      20 UNK        -0.5000 
    110 CA        -5.8346  -21.7847  -53.1972 C.3       20 UNK         0.1400 
    111 CB        -7.1459  -22.0356  -53.9573 C.3       20 UNK        -0.1800 
    112 C         -5.8354  -20.3806  -52.5598 C.2       20 UNK         0.5000 
    113 O         -6.2908  -20.2284  -51.4273 O.2       20 UNK        -0.5000 
    114 N         -5.2976  -19.3978  -53.2923 N.am      21 UNK        -0.5000 
    115 CA        -5.0111  -18.0328  -52.8714 C.3       21 UNK         0.1400 
    116 CB        -6.3060  -17.2280  -52.6539 C.3       21 UNK        -0.1800 
    117 C         -4.1469  -17.3893  -53.9637 C.2       21 UNK         0.5000 
    118 O         -4.3780  -17.6585  -55.1456 O.2       21 UNK        -0.5000 
    119 N         -3.1864  -16.5484  -53.5650 N.am      22 UNK        -0.5000 
    120 CA        -2.3299  -15.7818  -54.4912 C.3       22 UNK         0.1400 
    121 C         -2.9910  -14.4822  -55.0411 C.2       22 UNK         0.5000 
    122 N         -4.1561  -14.0659  -54.5591 N.am      22 UNK        -0.7600 
    123 O         -2.4396  -13.8420  -55.9321 O.2       22 UNK        -0.5000 
    124 C124       -0.9343  -15.4743  -53.8895 C.3       23 UNK        -0.0398 
    125 S125        0.0213  -16.9827  -53.5098 S.3       23 UNK        -0.2404 
    126 C126        0.2803  -16.8297  -51.7151 C.3       23 UNK        -0.0205 
    127 H127       -5.5948   -8.4500  -47.1703 H         1 UNK         0.0600 
    128 H128       -6.2095   -8.0654  -48.7803 H         1 UNK         0.0600 
    129 H129       -4.6817   -7.3706  -48.2281 H         1 UNK         0.0600 
    130 H130       -4.6660  -10.4688  -47.0533 H         1 UNK         0.3000 
    131 H131       -3.9362  -11.9973  -49.3790 H         1 UNK         0.0600 
    132 H132       -3.7129  -12.5609  -46.3903 H         1 UNK         0.0800 
    133 H133       -4.9606  -13.1229  -47.4669 H         1 UNK         0.0800 
    134 H134       -3.8225  -14.3249  -49.9486 H         1 UNK         0.0800 
    135 H135       -4.7480  -15.4016  -48.9274 H         1 UNK         0.0800 
    136 H136       -1.4245  -15.0037  -50.6089 H         1 UNK         0.1150 
    137 H137       -0.8518  -19.2182  -51.1110 H         1 UNK         0.1150 
    138 H138       -4.2555  -17.7439  -48.9475 H         1 UNK         0.1150 
    139 H139       -3.5757  -20.3821  -50.7539 H         1 UNK         0.0800 
    140 H140       -2.1960  -20.7650  -49.7718 H         1 UNK         0.0800 
    141 H141       -3.2707  -19.8016  -46.2771 H         1 UNK         0.0800 
    142 H142       -2.0077  -20.2417  -47.3892 H         1 UNK         0.0800 
    143 H143       -2.9047  -22.6620  -47.2827 H         1 UNK         0.0600 
    144 H144       -1.1341  -21.4059  -45.5014 H         1 UNK         0.3000 
    145 H145       -0.1602  -24.3516  -43.6933 H         1 UNK         0.0600 
    146 H146        2.0498  -23.5860  -44.4391 H         1 UNK         0.0600 
    147 H147        1.1800  -24.2648  -45.8090 H         1 UNK         0.0600 
    148 H148        1.3296  -22.5220  -45.6407 H         1 UNK         0.0600 
    149 H149        0.6483  -21.6338  -43.4249 H         1 UNK         0.3000 
    150 H150       -1.9161  -20.6695  -41.0856 H         1 UNK         0.0600 
    151 H151       -0.0911  -21.7755  -39.7887 H         1 UNK         0.0600 
    152 H152        0.1018  -20.0293  -39.8113 H         1 UNK         0.0600 
    153 H153        1.1150  -21.0410  -40.8376 H         1 UNK         0.0600 
    154 H154        0.2094  -19.1717  -42.2290 H         1 UNK         0.3000 
    155 H155       -1.5456  -18.0558  -45.1653 H         1 UNK         0.0600 
    156 H156       -0.5368  -16.6489  -42.6360 H         1 UNK         0.0600 
    157 H157       -2.1565  -16.5113  -43.3103 H         1 UNK         0.0600 
    158 H158       -0.7776  -15.8941  -44.2094 H         1 UNK         0.0600 
    159 H159        1.1119  -17.5705  -44.2982 H         1 UNK         0.3000 
    160 H160        2.6242  -20.4746  -45.7538 H         1 UNK         0.0600 
    161 H161        2.9545  -17.5189  -46.4427 H         1 UNK         0.0600 
    162 H162        2.3538  -18.7219  -47.5825 H         1 UNK         0.0600 
    163 H163        3.9777  -18.8623  -46.9272 H         1 UNK         0.0600 
    164 H164        3.5440  -18.1657  -44.2441 H         1 UNK         0.3000 
    165 H165        3.4949  -19.7922  -41.0766 H         1 UNK         0.0600 
    166 H166        5.9061  -19.2313  -41.1573 H         1 UNK         0.0600 
    167 H167        5.5780  -20.6263  -42.1727 H         1 UNK         0.0600 
    168 H168        5.8378  -19.0501  -42.9105 H         1 UNK         0.0600 
    169 H169        4.4451  -17.2301  -41.9668 H         1 UNK         0.3000 
    170 H170        1.3754  -15.4768  -41.4312 H         1 UNK         0.0600 
    171 H171        2.4512  -15.7387  -39.1840 H         1 UNK         0.0600 
    172 H172        4.0306  -15.4517  -39.9049 H         1 UNK         0.0600 
    173 H173        2.8097  -14.1786  -39.9048 H         1 UNK         0.0600 
    174 H174        3.7558  -14.3202  -42.1804 H         1 UNK         0.3000 
    175 H175        3.5824  -13.3352  -44.4252 H         1 UNK         0.0600 
    176 H176        5.2559  -15.8124  -45.1616 H         1 UNK         0.0600 
    177 H177        5.6734  -14.1470  -45.5629 H         1 UNK         0.0600 
    178 H178        5.6352  -14.6618  -43.8858 H         1 UNK         0.0600 
    179 H179        3.4865  -15.1760  -46.7008 H         1 UNK         0.3000 
    180 H180        2.0612  -14.8896  -48.3903 H         1 UNK         0.0600 
    181 H181       -0.4458  -15.5050  -46.7336 H         1 UNK         0.0600 
    182 H182        0.9555  -16.5368  -46.8677 H         1 UNK         0.0600 
    183 H183       -0.0297  -16.2416  -48.2828 H         1 UNK         0.0600 
    184 H184       -0.5518  -13.7092  -48.4350 H         1 UNK         0.3000 
    185 H185        0.2086  -10.5823  -49.6426 H         1 UNK         0.0600 
    186 H186        1.1774  -11.6028  -51.6963 H         1 UNK         0.0600 
    187 H187       -0.0707  -12.8416  -51.6990 H         1 UNK         0.0600 
    188 H188       -0.4968  -11.1504  -51.9658 H         1 UNK         0.0600 
    189 H189       -1.9682  -12.3911  -50.2383 H         1 UNK         0.3000 
    190 H190       -3.5269  -21.3380  -44.0101 H         1 UNK         0.3000 
    191 H191       -6.2997  -21.9540  -43.9137 H         1 UNK         0.0600 
    192 H192       -4.2633  -21.7081  -41.6367 H         1 UNK         0.0600 
    193 H193       -6.0120  -21.6602  -41.4591 H         1 UNK         0.0600 
    194 H194       -5.1871  -20.3850  -42.3436 H         1 UNK         0.0600 
    195 H195       -3.4222  -23.9216  -43.1353 H         1 UNK         0.3000 
    196 H196       -4.8523  -26.1678  -42.0782 H         1 UNK         0.0600 
    197 H197       -2.6671  -27.3223  -42.2761 H         1 UNK         0.0600 
    198 H198       -2.4692  -25.7316  -41.5557 H         1 UNK         0.0600 
    199 H199       -2.0241  -26.0002  -43.2388 H         1 UNK         0.0600 
    200 H200       -3.5362  -25.4612  -45.3719 H         1 UNK         0.3000 
    201 H201       -5.5032  -27.2510  -46.5827 H         1 UNK         0.0600 
    202 H202       -3.8058  -28.9340  -46.0406 H         1 UNK         0.0600 
    203 H203       -2.5152  -27.9336  -46.6986 H         1 UNK         0.0600 
    204 H204       -3.7337  -28.6235  -47.7662 H         1 UNK         0.0600 
    205 H205       -2.3209  -25.7802  -47.4903 H         1 UNK         0.3000 
    206 H206       -3.3700  -23.8376  -49.2811 H         1 UNK         0.0600 
    207 H207       -2.2600  -26.4305  -50.5230 H         1 UNK         0.0600 
    208 H208       -3.8952  -25.8071  -50.7357 H         1 UNK         0.0600 
    209 H209       -2.5335  -24.9338  -51.4069 H         1 UNK         0.0600 
    210 H210       -1.4960  -22.8041  -50.4741 H         1 UNK         0.3000 
    211 H211        1.1934  -23.4555  -49.5998 H         1 UNK         0.0600 
    212 H212       -0.0219  -20.7182  -48.8849 H         1 UNK         0.0600 
    213 H213        1.6402  -21.2249  -48.6242 H         1 UNK         0.0600 
    214 H214        0.3423  -21.9876  -47.7211 H         1 UNK         0.0600 
    215 H215        2.7342  -22.3956  -50.9308 H         1 UNK         0.3000 
    216 H216        3.6143  -21.7724  -52.8629 H         1 UNK         0.0600 
    217 H217        2.8520  -19.6581  -53.8734 H         1 UNK         0.0600 
    218 H218        2.7507  -19.5259  -52.1261 H         1 UNK         0.0600 
    219 H219        1.2905  -19.7862  -53.0786 H         1 UNK         0.0600 
    220 H220        1.5039  -23.8843  -52.8839 H         1 UNK         0.3000 
    221 H221        0.3688  -25.2721  -54.1630 H         1 UNK         0.0600 
    222 H222        1.8897  -24.1412  -56.5698 H         1 UNK         0.0600 
    223 H223        2.4928  -25.4011  -55.4939 H         1 UNK         0.0600 
    224 H224        1.0712  -25.6939  -56.4804 H         1 UNK         0.0600 
    225 H225       -0.8019  -22.6427  -53.5550 H         1 UNK         0.3000 
    226 H226       -2.8066  -22.3955  -55.7540 H         1 UNK         0.0600 
    227 H227       -1.1574  -20.4809  -55.7096 H         1 UNK         0.0600 
    228 H228       -2.7763  -19.9608  -55.2745 H         1 UNK         0.0600 
    229 H229       -1.5596  -20.1820  -54.0212 H         1 UNK         0.0600 
    230 H230       -4.8893  -21.8007  -55.0919 H         1 UNK         0.3000 
    231 H231       -5.7589  -22.5193  -52.3923 H         1 UNK         0.0600 
    232 H232       -7.1754  -23.0442  -54.3701 H         1 UNK         0.0600 
    233 H233       -7.2781  -21.3311  -54.7795 H         1 UNK         0.0600 
    234 H234       -8.0058  -21.9312  -53.2943 H         1 UNK         0.0600 
    235 H235       -4.9723  -19.6049  -54.2272 H         1 UNK         0.3000 
    236 H236       -4.4445  -18.0696  -51.9433 H         1 UNK         0.0600 
    237 H237       -6.9201  -17.2061  -53.5550 H         1 UNK         0.0600 
    238 H238       -6.9085  -17.6466  -51.8481 H         1 UNK         0.0600 
    239 H239       -6.0822  -16.1962  -52.3810 H         1 UNK         0.0600 
    240 H240       -3.0225  -16.4028  -52.5792 H         1 UNK         0.3000 
    241 H241       -2.1554  -16.4030  -55.3721 H         1 UNK         0.0600 
    242 H242       -4.6291  -14.5821  -53.8365 H         1 UNK         0.3800 
    243 H243       -4.5730  -13.2268  -54.9308 H         1 UNK         0.3800 
    244 H244       -1.0307  -14.8506  -53.0011 H         1 UNK         0.0800 
    245 H245       -0.3346  -14.8953  -54.5942 H         1 UNK         0.0800 
    246 H246        0.6887  -15.8450  -51.4816 H         1 UNK         0.0800 
    247 H247        1.0377  -17.5521  -51.4075 H         1 UNK         0.0800 
@<TRIPOS>BOND
     1    1    2 1    
     2    1  127 1    
     3    1  128 1    
     4    1  129 1    
     5    2    3 2    
     6    2    4 am   BACKBONE|DICT|INTERRES
     7    4    5 1    
     8    4  130 1    
     9    5    6 1    
    10    5   65 1    
    11    5  131 1    
    12    6    7 1    
    13    6  132 1    
    14    6  133 1    
    15    7    8 1    
    16    8    9 1    
    17    8  134 1    
    18    8  135 1    
    19    9   10 ar   
    20    9   14 ar   
    21   10   11 ar   
    22   10  136 1    
    23   11   12 ar   
    24   11  126 1    
    25   12   13 ar   
    26   12  137 1    
    27   13   14 ar   
    28   13   15 1    
    29   14  138 1    
    30   15   16 1    
    31   15  139 1    
    32   15  140 1    
    33   16   17 1    
    34   17   18 1    
    35   17  141 1    
    36   17  142 1    
    37   18   19 1    
    38   18   67 1    
    39   18  143 1    
    40   19   20 am   BACKBONE|DICT|INTERRES
    41   19  144 1    
    42   20   21 2    
    43   20   22 1    
    44   22   23 1    
    45   22   24 1    
    46   22  145 1    
    47   23  146 1    
    48   23  147 1    
    49   23  148 1    
    50   24   25 am   BACKBONE|DICT|INTERRES
    51   24  149 1    
    52   25   26 2    
    53   25   27 1    
    54   27   28 1    
    55   27   29 1    
    56   27  150 1    
    57   28  151 1    
    58   28  152 1    
    59   28  153 1    
    60   29   30 am   BACKBONE|DICT|INTERRES
    61   29  154 1    
    62   30   31 2    
    63   30   32 1    
    64   32   33 1    
    65   32   34 1    
    66   32  155 1    
    67   33  156 1    
    68   33  157 1    
    69   33  158 1    
    70   34   35 am   BACKBONE|DICT|INTERRES
    71   34  159 1    
    72   35   36 2    
    73   35   37 1    
    74   37   38 1    
    75   37   39 1    
    76   37  160 1    
    77   38  161 1    
    78   38  162 1    
    79   38  163 1    
    80   39   40 am   BACKBONE|DICT|INTERRES
    81   39  164 1    
    82   40   41 2    
    83   40   42 1    
    84   42   43 1    
    85   42   44 1    
    86   42  165 1    
    87   43  166 1    
    88   43  167 1    
    89   43  168 1    
    90   44   45 am   BACKBONE|DICT|INTERRES
    91   44  169 1    
    92   45   46 2    
    93   45   47 1    
    94   47   48 1    
    95   47   49 1    
    96   47  170 1    
    97   48  171 1    
    98   48  172 1    
    99   48  173 1    
   100   49   50 am   BACKBONE|DICT|INTERRES
   101   49  174 1    
   102   50   51 2    
   103   50   52 1    
   104   52   53 1    
   105   52   54 1    
   106   52  175 1    
   107   53  176 1    
   108   53  177 1    
   109   53  178 1    
   110   54   55 am   BACKBONE|DICT|INTERRES
   111   54  179 1    
   112   55   56 2    
   113   55   57 1    
   114   57   58 1    
   115   57   59 1    
   116   57  180 1    
   117   58  181 1    
   118   58  182 1    
   119   58  183 1    
   120   59   60 am   BACKBONE|DICT|INTERRES
   121   59  184 1    
   122   60   61 2    
   123   60   62 1    
   124   62   63 1    
   125   62   64 1    
   126   62  185 1    
   127   63  186 1    
   128   63  187 1    
   129   63  188 1    
   130   64   65 am   BACKBONE|DICT|INTERRES
   131   64  189 1    
   132   65   66 2    
   133   67   68 2    
   134   67   69 am   BACKBONE|DICT|INTERRES
   135   69   70 1    
   136   69  190 1    
   137   70   71 1    
   138   70   72 1    
   139   70  191 1    
   140   71  192 1    
   141   71  193 1    
   142   71  194 1    
   143   72   73 2    
   144   72   74 am   BACKBONE|DICT|INTERRES
   145   74   75 1    
   146   74  195 1    
   147   75   76 1    
   148   75   77 1    
   149   75  196 1    
   150   76  197 1    
   151   76  198 1    
   152   76  199 1    
   153   77   78 2    
   154   77   79 am   BACKBONE|DICT|INTERRES
   155   79   80 1    
   156   79  200 1    
   157   80   81 1    
   158   80   82 1    
   159   80  201 1    
   160   81  202 1    
   161   81  203 1    
   162   81  204 1    
   163   82   83 2    
   164   82   84 am   BACKBONE|DICT|INTERRES
   165   84   85 1    
   166   84  205 1    
   167   85   86 1    
   168   85   87 1    
   169   85  206 1    
   170   86  207 1    
   171   86  208 1    
   172   86  209 1    
   173   87   88 2    
   174   87   89 am   BACKBONE|DICT|INTERRES
   175   89   90 1    
   176   89  210 1    
   177   90   91 1    
   178   90   92 1    
   179   90  211 1    
   180   91  212 1    
   181   91  213 1    
   182   91  214 1    
   183   92   93 2    
   184   92   94 am   BACKBONE|DICT|INTERRES
   185   94   95 1    
   186   94  215 1    
   187   95   96 1    
   188   95   97 1    
   189   95  216 1    
   190   96  217 1    
   191   96  218 1    
   192   96  219 1    
   193   97   98 2    
   194   97   99 am   BACKBONE|DICT|INTERRES
   195   99  100 1    
   196   99  220 1    
   197  100  101 1    
   198  100  102 1    
   199  100  221 1    
   200  101  222 1    
   201  101  223 1    
   202  101  224 1    
   203  102  103 2    
   204  102  104 am   BACKBONE|DICT|INTERRES
   205  104  105 1    
   206  104  225 1    
   207  105  106 1    
   208  105  107 1    
   209  105  226 1    
   210  106  227 1    
   211  106  228 1    
   212  106  229 1    
   213  107  108 2    
   214  107  109 am   BACKBONE|DICT|INTERRES
   215  109  110 1    
   216  109  230 1    
   217  110  111 1    
   218  110  112 1    
   219  110  231 1    
   220  111  232 1    
   221  111  233 1    
   222  111  234 1    
   223  112  113 2    
   224  112  114 am   BACKBONE|DICT|INTERRES
   225  114  115 1    
   226  114  235 1    
   227  115  116 1    
   228  115  117 1    
   229  115  236 1    
   230  116  237 1    
   231  116  238 1    
   232  116  239 1    
   233  117  118 2    
   234  117  119 am   BACKBONE|DICT|INTERRES
   235  119  120 1    
   236  119  240 1    
   237  120  121 1    
   238  120  124 1    
   239  120  241 1    
   240  121  122 am   BACKBONE|DICT|INTERRES
   241  121  123 2    
   242  122  242 1    
   243  122  243 1    
   244  124  125 1    
   245  124  244 1    
   246  124  245 1    
   247  125  126 1    
   248  126  246 1    
   249  126  247 1    
@<TRIPOS>SUBSTRUCTURE
     1 UNK         1 GROUP             0       ****    0 ROOT    
