@<TRIPOS>MOLECULE
3R540
247   249    1
SMALL
USER_CHARGES


@<TRIPOS>ATOM
      1 CA          4.5146  -11.7883  -53.3251 C.3       0 UNK        -0.1800 
      2 C           3.8621  -11.5995  -51.9627 C.2       0 UNK         0.5000 
      3 O           3.0648  -10.6774  -51.7871 O.2       0 UNK        -0.5000 
      4 N           4.2047  -12.4608  -50.9979 N.am      1 UNK        -0.5000 
      5 CA          3.6224  -12.4954  -49.6539 C.3       1 UNK         0.1400 
      6 C6          4.5144  -13.2916  -48.6639 C.3       23 UNK        -0.0398 
      7 S7          4.8978  -15.0048  -49.1836 S.3       23 UNK        -0.2404 
      8 C8          3.6840  -15.9244  -48.1929 C.3       23 UNK        -0.0205 
      9 C9          3.3848  -17.2903  -48.7833 C.ar      23 UNK        -0.0193 
     10 C10         2.4875  -17.4064  -49.8499 C.ar      23 UNK        -0.1150 
     11 C11         2.1757  -18.6601  -50.3818 C.ar      23 UNK        -0.0193 
     12 C12         2.7875  -19.7979  -49.8518 C.ar      23 UNK        -0.1150 
     13 C13         3.6660  -19.6988  -48.7680 C.ar      23 UNK        -0.0193 
     14 C14         3.9664  -18.4398  -48.2406 C.ar      23 UNK        -0.1150 
     15 C15         4.2699  -20.9567  -48.1578 C.3       23 UNK        -0.0205 
     16 S16         3.2608  -21.6057  -46.7835 S.3       23 UNK        -0.2404 
     17 C17         1.6679  -21.8783  -47.6262 C.3       23 UNK        -0.0398 
     18 CA          0.7004  -22.8147  -46.8715 C.3       11 UNK         0.1400 
     19 N           0.2860  -22.2855  -45.5690 N.am      11 UNK        -0.5000 
     20 C          -0.4895  -22.9402  -44.6920 C.2       10 UNK         0.5000 
     21 O          -0.8875  -24.0937  -44.8544 O.2       10 UNK        -0.5000 
     22 CA         -0.9532  -22.1540  -43.4555 C.3       10 UNK         0.1400 
     23 CB          0.1423  -22.1073  -42.3795 C.3       10 UNK        -0.1800 
     24 N          -1.3724  -20.7971  -43.8049 N.am      10 UNK        -0.5000 
     25 C          -2.4821  -20.5069  -44.4996 C.2       9 UNK         0.5000 
     26 O          -3.2853  -21.3541  -44.8890 O.2       9 UNK        -0.5000 
     27 CA         -2.7192  -19.0244  -44.8424 C.3       9 UNK         0.1400 
     28 CB         -3.4319  -18.3075  -43.6855 C.3       9 UNK        -0.1800 
     29 N          -1.4832  -18.3099  -45.1575 N.am      9 UNK        -0.5000 
     30 C          -0.7125  -18.5558  -46.2257 C.2       8 UNK         0.5000 
     31 O          -0.9600  -19.4132  -47.0717 O.2       8 UNK        -0.5000 
     32 CA          0.5847  -17.7353  -46.3227 C.3       8 UNK         0.1400 
     33 CB          0.2944  -16.3328  -46.8774 C.3       8 UNK        -0.1800 
     34 N           1.2812  -17.6062  -45.0387 N.am      8 UNK        -0.5000 
     35 C           1.7427  -18.6369  -44.3134 C.2       7 UNK         0.5000 
     36 O           1.5081  -19.8122  -44.5925 O.2       7 UNK        -0.5000 
     37 CA          2.5582  -18.3169  -43.0444 C.3       7 UNK         0.1400 
     38 CB          3.6682  -19.3561  -42.7813 C.3       7 UNK        -0.1800 
     39 N           3.0884  -16.9501  -43.0013 N.am      7 UNK        -0.5000 
     40 C           4.0276  -16.3966  -43.7866 C.2       6 UNK         0.5000 
     41 O           4.6123  -17.0031  -44.6838 O.2       6 UNK        -0.5000 
     42 CA          4.3602  -14.9078  -43.5443 C.3       6 UNK         0.1400 
     43 CB          4.2971  -14.1025  -44.8538 C.3       6 UNK        -0.1800 
     44 N           3.4462  -14.2952  -42.5789 N.am      6 UNK        -0.5000 
     45 C           3.6879  -14.1373  -41.2698 C.2       5 UNK         0.5000 
     46 O           4.7606  -14.4158  -40.7337 O.2       5 UNK        -0.5000 
     47 CA          2.5250  -13.6053  -40.4049 C.3       5 UNK         0.1400 
     48 CB          2.6682  -12.0911  -40.1888 C.3       5 UNK        -0.1800 
     49 N           1.2022  -13.8788  -40.9746 N.am      5 UNK        -0.5000 
     50 C           0.6673  -15.0974  -41.1416 C.2       4 UNK         0.5000 
     51 O           1.2086  -16.1362  -40.7659 O.2       4 UNK        -0.5000 
     52 CA         -0.6530  -15.1746  -41.9336 C.3       4 UNK         0.1400 
     53 CB         -1.8597  -15.1747  -40.9845 C.3       4 UNK        -0.1800 
     54 N          -0.8003  -14.0904  -42.9107 N.am      4 UNK        -0.5000 
     55 C          -0.0044  -13.9135  -43.9728 C.2       3 UNK         0.5000 
     56 O           0.9319  -14.6657  -44.2577 O.2       3 UNK        -0.5000 
     57 CA         -0.2490  -12.6538  -44.8098 C.3       3 UNK         0.1400 
     58 CB          0.6150  -11.4937  -44.2878 C.3       3 UNK        -0.1800 
     59 N           0.0947  -12.9209  -46.2036 N.am      3 UNK        -0.5000 
     60 C          -0.5996  -12.4743  -47.2571 C.2       2 UNK         0.5000 
     61 O          -1.5831  -11.7384  -47.1592 O.2       2 UNK        -0.5000 
     62 CA         -0.0821  -12.8921  -48.6444 C.3       2 UNK         0.1400 
     63 CB         -0.9078  -12.2876  -49.8014 C.3       2 UNK        -0.1800 
     64 N           1.3291  -12.5258  -48.7697 N.am      2 UNK        -0.5000 
     65 C           2.1682  -13.0211  -49.6872 C.2       1 UNK         0.5000 
     66 O           1.8403  -13.8732  -50.5171 O.2       1 UNK        -0.5000 
     67 C          -0.5155  -23.1217  -47.7674 C.2       11 UNK         0.5000 
     68 O          -0.5873  -24.2121  -48.3322 O.2       11 UNK        -0.5000 
     69 N          -1.4580  -22.1719  -47.8543 N.am      12 UNK        -0.5000 
     70 CA         -2.6987  -22.2939  -48.6188 C.3       12 UNK         0.1400 
     71 CB         -3.4501  -20.9570  -48.5744 C.3       12 UNK        -0.1800 
     72 C          -3.5933  -23.4462  -48.1279 C.2       12 UNK         0.5000 
     73 O          -4.1164  -24.1999  -48.9484 O.2       12 UNK        -0.5000 
     74 N          -3.7217  -23.5892  -46.8012 N.am      13 UNK        -0.5000 
     75 CA         -4.4450  -24.6848  -46.1567 C.3       13 UNK         0.1400 
     76 CB         -4.5776  -24.4021  -44.6529 C.3       13 UNK        -0.1800 
     77 C          -3.7905  -26.0575  -46.4004 C.2       13 UNK         0.5000 
     78 O          -4.5029  -27.0228  -46.6772 O.2       13 UNK        -0.5000 
     79 N          -2.4537  -26.1173  -46.3143 N.am      14 UNK        -0.5000 
     80 CA         -1.6594  -27.3231  -46.5561 C.3       14 UNK         0.1400 
     81 CB         -0.2159  -27.0918  -46.0834 C.3       14 UNK        -0.1800 
     82 C          -1.6851  -27.7754  -48.0279 C.2       14 UNK         0.5000 
     83 O          -1.8030  -28.9727  -48.2923 O.2       14 UNK        -0.5000 
     84 N          -1.5849  -26.8144  -48.9561 N.am      15 UNK        -0.5000 
     85 CA         -1.6396  -27.0431  -50.4016 C.3       15 UNK         0.1400 
     86 CB         -1.1250  -25.7895  -51.1259 C.3       15 UNK        -0.1800 
     87 C          -3.0468  -27.4111  -50.9106 C.2       15 UNK         0.5000 
     88 O          -3.1529  -28.0872  -51.9351 O.2       15 UNK        -0.5000 
     89 N          -4.0803  -26.9561  -50.1868 N.am      16 UNK        -0.5000 
     90 CA         -5.5116  -27.0085  -50.4993 C.3       16 UNK         0.1400 
     91 CB         -5.9903  -28.4503  -50.7710 C.3       16 UNK        -0.1800 
     92 C          -5.9037  -26.0336  -51.6294 C.2       16 UNK         0.5000 
     93 O          -5.0376  -25.4405  -52.2773 O.2       16 UNK        -0.5000 
     94 N          -7.2226  -25.8559  -51.8119 N.am      17 UNK        -0.5000 
     95 CA         -7.8594  -24.8567  -52.6840 C.3       17 UNK         0.1400 
     96 CB         -7.5938  -25.1613  -54.1735 C.3       17 UNK        -0.1800 
     97 C          -7.4649  -23.4211  -52.2745 C.2       17 UNK         0.5000 
     98 O          -7.0794  -22.6078  -53.1152 O.2       17 UNK        -0.5000 
     99 N          -7.5524  -23.1571  -50.9625 N.am      18 UNK        -0.5000 
    100 CA        -7.0063  -21.9892  -50.2635 C.3       18 UNK         0.1400 
    101 CB        -7.1663  -22.2097  -48.7498 C.3       18 UNK        -0.1800 
    102 C         -7.5715  -20.6136  -50.6763 C.2       18 UNK         0.5000 
    103 O         -7.0456  -19.5946  -50.2281 O.2       18 UNK        -0.5000 
    104 N         -8.6171  -20.5927  -51.5114 N.am      19 UNK        -0.5000 
    105 CA        -9.1447  -19.3868  -52.1476 C.3       19 UNK         0.1400 
    106 CB       -10.5644  -19.6772  -52.6587 C.3       19 UNK        -0.1800 
    107 C         -8.2520  -18.8740  -53.2981 C.2       19 UNK         0.5000 
    108 O         -8.3049  -17.6832  -53.6090 O.2       19 UNK        -0.5000 
    109 N         -7.4667  -19.7651  -53.9207 N.am      20 UNK        -0.5000 
    110 CA        -6.5418  -19.4360  -55.0041 C.3       20 UNK         0.1400 
    111 CB        -6.3581  -20.6729  -55.8970 C.3       20 UNK        -0.1800 
    112 C         -5.1866  -18.9759  -54.4423 C.2       20 UNK         0.5000 
    113 O         -4.7271  -19.5218  -53.4360 O.2       20 UNK        -0.5000 
    114 N         -4.5573  -18.0076  -55.1249 N.am      21 UNK        -0.5000 
    115 CA        -3.2587  -17.4024  -54.8028 C.3       21 UNK         0.1400 
    116 CB        -2.1154  -18.4074  -55.0770 C.3       21 UNK        -0.1800 
    117 C         -3.2477  -16.8030  -53.3792 C.2       21 UNK         0.5000 
    118 O         -3.9876  -15.8511  -53.1245 O.2       21 UNK        -0.5000 
    119 N         -2.4370  -17.3756  -52.4826 N.am      22 UNK        -0.5000 
    120 CA        -2.4210  -17.0923  -51.0389 C.3       22 UNK         0.1400 
    121 C         -3.6703  -17.5949  -50.2538 C.2       22 UNK         0.5000 
    122 N         -4.5357  -18.4167  -50.8317 N.am      22 UNK        -0.7600 
    123 O         -3.8666  -17.2069  -49.1055 O.2       22 UNK        -0.5000 
    124 C124       -1.0943  -17.5488  -50.3701 C.3       23 UNK        -0.0398 
    125 S125       -0.4943  -19.1967  -50.8952 S.3       23 UNK        -0.2404 
    126 C126        1.1731  -18.7996  -51.5186 C.3       23 UNK        -0.0205 
    127 H127        5.2034  -12.6336  -53.3309 H         1 UNK         0.0600 
    128 H128        5.0722  -10.8936  -53.6021 H         1 UNK         0.0600 
    129 H129        3.7528  -11.9657  -54.0842 H         1 UNK         0.0600 
    130 H130        4.8336  -13.2226  -51.2096 H         1 UNK         0.3000 
    131 H131        3.5844  -11.4650  -49.2934 H         1 UNK         0.0600 
    132 H132        5.4659  -12.7706  -48.5492 H         1 UNK         0.0800 
    133 H133        4.0720  -13.2954  -47.6671 H         1 UNK         0.0800 
    134 H134        4.0428  -16.0188  -47.1678 H         1 UNK         0.0800 
    135 H135        2.7589  -15.3549  -48.1484 H         1 UNK         0.0800 
    136 H136        2.0282  -16.5179  -50.2591 H         1 UNK         0.1150 
    137 H137        2.5511  -20.7672  -50.2666 H         1 UNK         0.1150 
    138 H138        4.6387  -18.3562  -47.3976 H         1 UNK         0.1150 
    139 H139        4.3846  -21.7291  -48.9198 H         1 UNK         0.0800 
    140 H140        5.2739  -20.7430  -47.7883 H         1 UNK         0.0800 
    141 H141        1.8853  -22.2955  -48.6110 H         1 UNK         0.0800 
    142 H142        1.2004  -20.9065  -47.7940 H         1 UNK         0.0800 
    143 H143        1.2166  -23.7595  -46.6885 H         1 UNK         0.0600 
    144 H144        0.6147  -21.3522  -45.3337 H         1 UNK         0.3000 
    145 H145       -1.8148  -22.6757  -43.0331 H         1 UNK         0.0600 
    146 H146       -0.1987  -21.5749  -41.4915 H         1 UNK         0.0600 
    147 H147        0.4204  -23.1148  -42.0677 H         1 UNK         0.0600 
    148 H148        1.0470  -21.6175  -42.7382 H         1 UNK         0.0600 
    149 H149       -0.7268  -20.0528  -43.5879 H         1 UNK         0.3000 
    150 H150       -3.3655  -18.9846  -45.7218 H         1 UNK         0.0600 
    151 H151       -4.3707  -18.8051  -43.4385 H         1 UNK         0.0600 
    152 H152       -3.6711  -17.2767  -43.9476 H         1 UNK         0.0600 
    153 H153       -2.8213  -18.2910  -42.7818 H         1 UNK         0.0600 
    154 H154       -1.1894  -17.5939  -44.5111 H         1 UNK         0.3000 
    155 H155        1.2607  -18.2507  -47.0076 H         1 UNK         0.0600 
    156 H156        1.1322  -15.6614  -46.7070 H         1 UNK         0.0600 
    157 H157       -0.5832  -15.8818  -46.4127 H         1 UNK         0.0600 
    158 H158        0.1233  -16.3635  -47.9511 H         1 UNK         0.0600 
    159 H159        1.4667  -16.6630  -44.7179 H         1 UNK         0.3000 
    160 H160        1.8506  -18.3863  -42.2176 H         1 UNK         0.0600 
    161 H161        4.3653  -19.4254  -43.6168 H         1 UNK         0.0600 
    162 H162        3.2464  -20.3503  -42.6309 H         1 UNK         0.0600 
    163 H163        4.2377  -19.1084  -41.8857 H         1 UNK         0.0600 
    164 H164        2.6710  -16.3654  -42.2877 H         1 UNK         0.3000 
    165 H165        5.3847  -14.8620  -43.1698 H         1 UNK         0.0600 
    166 H166        3.3234  -14.1891  -45.3361 H         1 UNK         0.0600 
    167 H167        4.4906  -13.0445  -44.6766 H         1 UNK         0.0600 
    168 H168        5.0491  -14.4521  -45.5619 H         1 UNK         0.0600 
    169 H169        2.5232  -14.0810  -42.9344 H         1 UNK         0.3000 
    170 H170        2.5838  -14.0999  -39.4331 H         1 UNK         0.0600 
    171 H171        3.6326  -11.8498  -39.7398 H         1 UNK         0.0600 
    172 H172        2.5969  -11.5419  -41.1286 H         1 UNK         0.0600 
    173 H173        1.8960  -11.7130  -39.5185 H         1 UNK         0.0600 
    174 H174        0.6824  -13.0810  -41.3085 H         1 UNK         0.3000 
    175 H175       -0.6497  -16.1202  -42.4798 H         1 UNK         0.0600 
    176 H176       -1.9338  -14.2407  -40.4262 H         1 UNK         0.0600 
    177 H177       -2.7918  -15.3148  -41.5323 H         1 UNK         0.0600 
    178 H178       -1.7861  -15.9863  -40.2593 H         1 UNK         0.0600 
    179 H179       -1.5418  -13.4270  -42.7355 H         1 UNK         0.3000 
    180 H180       -1.3044  -12.3871  -44.7219 H         1 UNK         0.0600 
    181 H181        1.6794  -11.7271  -44.3438 H         1 UNK         0.0600 
    182 H182        0.3817  -11.2647  -43.2473 H         1 UNK         0.0600 
    183 H183        0.4421  -10.5853  -44.8651 H         1 UNK         0.0600 
    184 H184        0.8676  -13.5579  -46.3358 H         1 UNK         0.3000 
    185 H185       -0.1693  -13.9789  -48.6969 H         1 UNK         0.0600 
    186 H186       -0.5792  -12.6641  -50.7699 H         1 UNK         0.0600 
    187 H187       -1.9640  -12.5421  -49.7045 H         1 UNK         0.0600 
    188 H188       -0.8298  -11.2001  -49.8224 H         1 UNK         0.0600 
    189 H189        1.6555  -11.8293  -48.1129 H         1 UNK         0.3000 
    190 H190       -1.3002  -21.2773  -47.3970 H         1 UNK         0.3000 
    191 H191       -2.4282  -22.4989  -49.6566 H         1 UNK         0.0600 
    192 H192       -2.8251  -20.1466  -48.9481 H         1 UNK         0.0600 
    193 H193       -3.7602  -20.6981  -47.5621 H         1 UNK         0.0600 
    194 H194       -4.3432  -20.9836  -49.1954 H         1 UNK         0.0600 
    195 H195       -3.3015  -22.8981  -46.1878 H         1 UNK         0.3000 
    196 H196       -5.4497  -24.7168  -46.5835 H         1 UNK         0.0600 
    197 H197       -5.1208  -25.2031  -44.1502 H         1 UNK         0.0600 
    198 H198       -5.1243  -23.4761  -44.4738 H         1 UNK         0.0600 
    199 H199       -3.6029  -24.3125  -44.1722 H         1 UNK         0.0600 
    200 H200       -1.9413  -25.2856  -46.0356 H         1 UNK         0.3000 
    201 H201       -2.0845  -28.1297  -45.9552 H         1 UNK         0.0600 
    202 H202       -0.1831  -26.8607  -45.0186 H         1 UNK         0.0600 
    203 H203        0.2562  -26.2671  -46.6182 H         1 UNK         0.0600 
    204 H204        0.3955  -27.9808  -46.2425 H         1 UNK         0.0600 
    205 H205       -1.4227  -25.8558  -48.6550 H         1 UNK         0.3000 
    206 H206       -0.9723  -27.8735  -50.6418 H         1 UNK         0.0600 
    207 H207       -0.1020  -25.5547  -50.8314 H         1 UNK         0.0600 
    208 H208       -1.1289  -25.9321  -52.2072 H         1 UNK         0.0600 
    209 H209       -1.7455  -24.9192  -50.9067 H         1 UNK         0.0600 
    210 H210       -3.8507  -26.3418  -49.4151 H         1 UNK         0.3000 
    211 H211       -6.0109  -26.6563  -49.5953 H         1 UNK         0.0600 
    212 H212       -5.6454  -28.8211  -51.7364 H         1 UNK         0.0600 
    213 H213       -7.0789  -28.5080  -50.7756 H         1 UNK         0.0600 
    214 H214       -5.6356  -29.1353  -50.0007 H         1 UNK         0.0600 
    215 H215       -7.8579  -26.3950  -51.2401 H         1 UNK         0.3000 
    216 H216       -8.9348  -24.9389  -52.5202 H         1 UNK         0.0600 
    217 H217       -7.8887  -26.1797  -54.4260 H         1 UNK         0.0600 
    218 H218       -6.5419  -25.0422  -54.4344 H         1 UNK         0.0600 
    219 H219       -8.1646  -24.4890  -54.8149 H         1 UNK         0.0600 
    220 H220       -7.9053  -23.8899  -50.3652 H         1 UNK         0.3000 
    221 H221       -5.9404  -21.9651  -50.4951 H         1 UNK         0.0600 
    222 H222       -8.2171  -22.2513  -48.4608 H         1 UNK         0.0600 
    223 H223       -6.6937  -23.1389  -48.4318 H         1 UNK         0.0600 
    224 H224       -6.7012  -21.4030  -48.1815 H         1 UNK         0.0600 
    225 H225       -8.9848  -21.4760  -51.8316 H         1 UNK         0.3000 
    226 H226       -9.2077  -18.5946  -51.3984 H         1 UNK         0.0600 
    227 H227      -11.2227  -19.9803  -51.8443 H         1 UNK         0.0600 
    228 H228      -11.0034  -18.7900  -53.1171 H         1 UNK         0.0600 
    229 H229      -10.5682  -20.4699  -53.4079 H         1 UNK         0.0600 
    230 H230       -7.4161  -20.7171  -53.5695 H         1 UNK         0.3000 
    231 H231       -6.9681  -18.6360  -55.6134 H         1 UNK         0.0600 
    232 H232       -5.7072  -20.4505  -56.7434 H         1 UNK         0.0600 
    233 H233       -7.3117  -21.0146  -56.2997 H         1 UNK         0.0600 
    234 H234       -5.9100  -21.5025  -55.3483 H         1 UNK         0.0600 
    235 H235       -5.0270  -17.6083  -55.9255 H         1 UNK         0.3000 
    236 H236       -3.1275  -16.5624  -55.4865 H         1 UNK         0.0600 
    237 H237       -2.1262  -18.7306  -56.1180 H         1 UNK         0.0600 
    238 H238       -1.1399  -17.9545  -54.8945 H         1 UNK         0.0600 
    239 H239       -2.1898  -19.3016  -54.4570 H         1 UNK         0.0600 
    240 H240       -1.8877  -18.1738  -52.7671 H         1 UNK         0.3000 
    241 H241       -2.4580  -16.0057  -50.9374 H         1 UNK         0.0600 
    242 H242       -4.4006  -18.7459  -51.7840 H         1 UNK         0.3800 
    243 H243       -5.3705  -18.7147  -50.3377 H         1 UNK         0.3800 
    244 H244       -0.3265  -16.8050  -50.5821 H         1 UNK         0.0800 
    245 H245       -1.1912  -17.5652  -49.2848 H         1 UNK         0.0800 
    246 H246        1.1435  -17.8925  -52.1244 H         1 UNK         0.0800 
    247 H247        1.4940  -19.5984  -52.1887 H         1 UNK         0.0800 
@<TRIPOS>BOND
     1    1    2 1    
     2    1  127 1    
     3    1  128 1    
     4    1  129 1    
     5    2    3 2    
     6    2    4 am   BACKBONE|DICT|INTERRES
     7    4    5 1    
     8    4  130 1    
     9    5    6 1    
    10    5   65 1    
    11    5  131 1    
    12    6    7 1    
    13    6  132 1    
    14    6  133 1    
    15    7    8 1    
    16    8    9 1    
    17    8  134 1    
    18    8  135 1    
    19    9   10 ar   
    20    9   14 ar   
    21   10   11 ar   
    22   10  136 1    
    23   11   12 ar   
    24   11  126 1    
    25   12   13 ar   
    26   12  137 1    
    27   13   14 ar   
    28   13   15 1    
    29   14  138 1    
    30   15   16 1    
    31   15  139 1    
    32   15  140 1    
    33   16   17 1    
    34   17   18 1    
    35   17  141 1    
    36   17  142 1    
    37   18   19 1    
    38   18   67 1    
    39   18  143 1    
    40   19   20 am   BACKBONE|DICT|INTERRES
    41   19  144 1    
    42   20   21 2    
    43   20   22 1    
    44   22   23 1    
    45   22   24 1    
    46   22  145 1    
    47   23  146 1    
    48   23  147 1    
    49   23  148 1    
    50   24   25 am   BACKBONE|DICT|INTERRES
    51   24  149 1    
    52   25   26 2    
    53   25   27 1    
    54   27   28 1    
    55   27   29 1    
    56   27  150 1    
    57   28  151 1    
    58   28  152 1    
    59   28  153 1    
    60   29   30 am   BACKBONE|DICT|INTERRES
    61   29  154 1    
    62   30   31 2    
    63   30   32 1    
    64   32   33 1    
    65   32   34 1    
    66   32  155 1    
    67   33  156 1    
    68   33  157 1    
    69   33  158 1    
    70   34   35 am   BACKBONE|DICT|INTERRES
    71   34  159 1    
    72   35   36 2    
    73   35   37 1    
    74   37   38 1    
    75   37   39 1    
    76   37  160 1    
    77   38  161 1    
    78   38  162 1    
    79   38  163 1    
    80   39   40 am   BACKBONE|DICT|INTERRES
    81   39  164 1    
    82   40   41 2    
    83   40   42 1    
    84   42   43 1    
    85   42   44 1    
    86   42  165 1    
    87   43  166 1    
    88   43  167 1    
    89   43  168 1    
    90   44   45 am   BACKBONE|DICT|INTERRES
    91   44  169 1    
    92   45   46 2    
    93   45   47 1    
    94   47   48 1    
    95   47   49 1    
    96   47  170 1    
    97   48  171 1    
    98   48  172 1    
    99   48  173 1    
   100   49   50 am   BACKBONE|DICT|INTERRES
   101   49  174 1    
   102   50   51 2    
   103   50   52 1    
   104   52   53 1    
   105   52   54 1    
   106   52  175 1    
   107   53  176 1    
   108   53  177 1    
   109   53  178 1    
   110   54   55 am   BACKBONE|DICT|INTERRES
   111   54  179 1    
   112   55   56 2    
   113   55   57 1    
   114   57   58 1    
   115   57   59 1    
   116   57  180 1    
   117   58  181 1    
   118   58  182 1    
   119   58  183 1    
   120   59   60 am   BACKBONE|DICT|INTERRES
   121   59  184 1    
   122   60   61 2    
   123   60   62 1    
   124   62   63 1    
   125   62   64 1    
   126   62  185 1    
   127   63  186 1    
   128   63  187 1    
   129   63  188 1    
   130   64   65 am   BACKBONE|DICT|INTERRES
   131   64  189 1    
   132   65   66 2    
   133   67   68 2    
   134   67   69 am   BACKBONE|DICT|INTERRES
   135   69   70 1    
   136   69  190 1    
   137   70   71 1    
   138   70   72 1    
   139   70  191 1    
   140   71  192 1    
   141   71  193 1    
   142   71  194 1    
   143   72   73 2    
   144   72   74 am   BACKBONE|DICT|INTERRES
   145   74   75 1    
   146   74  195 1    
   147   75   76 1    
   148   75   77 1    
   149   75  196 1    
   150   76  197 1    
   151   76  198 1    
   152   76  199 1    
   153   77   78 2    
   154   77   79 am   BACKBONE|DICT|INTERRES
   155   79   80 1    
   156   79  200 1    
   157   80   81 1    
   158   80   82 1    
   159   80  201 1    
   160   81  202 1    
   161   81  203 1    
   162   81  204 1    
   163   82   83 2    
   164   82   84 am   BACKBONE|DICT|INTERRES
   165   84   85 1    
   166   84  205 1    
   167   85   86 1    
   168   85   87 1    
   169   85  206 1    
   170   86  207 1    
   171   86  208 1    
   172   86  209 1    
   173   87   88 2    
   174   87   89 am   BACKBONE|DICT|INTERRES
   175   89   90 1    
   176   89  210 1    
   177   90   91 1    
   178   90   92 1    
   179   90  211 1    
   180   91  212 1    
   181   91  213 1    
   182   91  214 1    
   183   92   93 2    
   184   92   94 am   BACKBONE|DICT|INTERRES
   185   94   95 1    
   186   94  215 1    
   187   95   96 1    
   188   95   97 1    
   189   95  216 1    
   190   96  217 1    
   191   96  218 1    
   192   96  219 1    
   193   97   98 2    
   194   97   99 am   BACKBONE|DICT|INTERRES
   195   99  100 1    
   196   99  220 1    
   197  100  101 1    
   198  100  102 1    
   199  100  221 1    
   200  101  222 1    
   201  101  223 1    
   202  101  224 1    
   203  102  103 2    
   204  102  104 am   BACKBONE|DICT|INTERRES
   205  104  105 1    
   206  104  225 1    
   207  105  106 1    
   208  105  107 1    
   209  105  226 1    
   210  106  227 1    
   211  106  228 1    
   212  106  229 1    
   213  107  108 2    
   214  107  109 am   BACKBONE|DICT|INTERRES
   215  109  110 1    
   216  109  230 1    
   217  110  111 1    
   218  110  112 1    
   219  110  231 1    
   220  111  232 1    
   221  111  233 1    
   222  111  234 1    
   223  112  113 2    
   224  112  114 am   BACKBONE|DICT|INTERRES
   225  114  115 1    
   226  114  235 1    
   227  115  116 1    
   228  115  117 1    
   229  115  236 1    
   230  116  237 1    
   231  116  238 1    
   232  116  239 1    
   233  117  118 2    
   234  117  119 am   BACKBONE|DICT|INTERRES
   235  119  120 1    
   236  119  240 1    
   237  120  121 1    
   238  120  124 1    
   239  120  241 1    
   240  121  122 am   BACKBONE|DICT|INTERRES
   241  121  123 2    
   242  122  242 1    
   243  122  243 1    
   244  124  125 1    
   245  124  244 1    
   246  124  245 1    
   247  125  126 1    
   248  126  246 1    
   249  126  247 1    
@<TRIPOS>SUBSTRUCTURE
     1 UNK         1 GROUP             0       ****    0 ROOT    
