@<TRIPOS>MOLECULE
3R540
247   249    1
SMALL
USER_CHARGES


@<TRIPOS>ATOM
      1 CA          3.6812  -12.4155  -46.9715 C.3       0 UNK        -0.1800 
      2 C           2.2585  -12.9302  -47.1251 C.2       0 UNK         0.5000 
      3 O           1.3620  -12.4901  -46.4052 O.2       0 UNK        -0.5000 
      4 N           2.0315  -13.8525  -48.0679 N.am      1 UNK        -0.5000 
      5 CA          0.7236  -14.4754  -48.3207 C.3       1 UNK         0.1400 
      6 C6          0.8262  -15.7361  -49.2083 C.3       23 UNK        -0.0398 
      7 S7          1.8527  -17.0001  -48.3962 S.3       23 UNK        -0.2404 
      8 C8          2.9946  -17.4986  -49.7151 C.3       23 UNK        -0.0205 
      9 C9          2.3336  -18.4921  -50.6533 C.ar      23 UNK        -0.0193 
     10 C10         1.9511  -18.1090  -51.9407 C.ar      23 UNK        -0.1150 
     11 C11         1.3436  -19.0261  -52.8066 C.ar      23 UNK        -0.0193 
     12 C12         1.1251  -20.3366  -52.3652 C.ar      23 UNK        -0.1150 
     13 C13         1.5160  -20.7342  -51.0816 C.ar      23 UNK        -0.0193 
     14 C14         2.1186  -19.8060  -50.2310 C.ar      23 UNK        -0.1150 
     15 C15         1.3253  -22.1743  -50.6298 C.3       23 UNK        -0.0205 
     16 S16        -0.3299  -22.4570  -49.9359 S.3       23 UNK        -0.2404 
     17 C17        -0.1421  -21.9531  -48.1942 C.3       23 UNK        -0.0398 
     18 CA         -0.0296  -23.1639  -47.2338 C.3       11 UNK         0.1400 
     19 N           0.6049  -22.7912  -45.9656 N.am      11 UNK        -0.5000 
     20 C           1.0071  -23.6587  -45.0257 C.2       10 UNK         0.5000 
     21 O           0.9483  -24.8798  -45.1607 O.2       10 UNK        -0.5000 
     22 CA          1.4953  -23.0660  -43.6888 C.3       10 UNK         0.1400 
     23 CB          2.9716  -22.6520  -43.7704 C.3       10 UNK        -0.1800 
     24 N           0.6809  -21.9280  -43.2565 N.am      10 UNK        -0.5000 
     25 C          -0.6156  -22.0134  -42.9246 C.2       9 UNK         0.5000 
     26 O          -1.2284  -23.0778  -42.8556 O.2       9 UNK        -0.5000 
     27 CA         -1.3724  -20.6900  -42.7064 C.3       9 UNK         0.1400 
     28 CB         -1.2100  -20.1814  -41.2663 C.3       9 UNK        -0.1800 
     29 N          -0.9508  -19.6592  -43.6570 N.am      9 UNK        -0.5000 
     30 C          -1.1983  -19.7065  -44.9746 C.2       8 UNK         0.5000 
     31 O          -1.8791  -20.5816  -45.5074 O.2       8 UNK        -0.5000 
     32 CA         -0.5241  -18.6381  -45.8511 C.3       8 UNK         0.1400 
     33 CB         -1.4150  -17.3936  -45.9828 C.3       8 UNK        -0.1800 
     34 N           0.7916  -18.2683  -45.3266 N.am      8 UNK        -0.5000 
     35 C           1.8815  -19.0439  -45.4378 C.2       7 UNK         0.5000 
     36 O           1.8789  -20.1251  -46.0261 O.2       7 UNK        -0.5000 
     37 CA          3.1746  -18.5703  -44.7387 C.3       7 UNK         0.1400 
     38 CB          4.0420  -17.7310  -45.6871 C.3       7 UNK        -0.1800 
     39 N           2.9254  -17.8043  -43.5177 N.am      7 UNK        -0.5000 
     40 C           2.3227  -18.2920  -42.4258 C.2       6 UNK         0.5000 
     41 O           2.0096  -19.4759  -42.3033 O.2       6 UNK        -0.5000 
     42 CA          1.9545  -17.2900  -41.3102 C.3       6 UNK         0.1400 
     43 CB          2.9901  -17.3505  -40.1779 C.3       6 UNK        -0.1800 
     44 N           1.8003  -15.8931  -41.7441 N.am      6 UNK        -0.5000 
     45 C           0.9752  -15.4552  -42.7065 C.2       5 UNK         0.5000 
     46 O           0.2872  -16.2110  -43.3958 O.2       5 UNK        -0.5000 
     47 CA          0.9664  -13.9324  -42.9663 C.3       5 UNK         0.1400 
     48 CB          2.3521  -13.4558  -43.4333 C.3       5 UNK        -0.1800 
     49 N          -0.0247  -13.5366  -43.9709 N.am      5 UNK        -0.5000 
     50 C          -1.3544  -13.5991  -43.8061 C.2       4 UNK         0.5000 
     51 O          -1.8947  -13.8914  -42.7368 O.2       4 UNK        -0.5000 
     52 CA         -2.2130  -13.2826  -45.0501 C.3       4 UNK         0.1400 
     53 CB         -3.7164  -13.1368  -44.7360 C.3       4 UNK        -0.1800 
     54 N          -1.7230  -12.1260  -45.8048 N.am      4 UNK        -0.5000 
     55 C          -1.5951  -10.8596  -45.3771 C.2       3 UNK         0.5000 
     56 O          -1.9441  -10.4752  -44.2603 O.2       3 UNK        -0.5000 
     57 CA         -0.9592   -9.8474  -46.3535 C.3       3 UNK         0.1400 
     58 CB          0.2836   -9.1923  -45.7265 C.3       3 UNK        -0.1800 
     59 N          -0.5607  -10.4768  -47.6137 N.am      3 UNK        -0.5000 
     60 C          -1.2567  -10.4434  -48.7588 C.2       2 UNK         0.5000 
     61 O          -2.3037   -9.8125  -48.9053 O.2       2 UNK        -0.5000 
     62 CA         -0.6986  -11.2707  -49.9364 C.3       2 UNK         0.1400 
     63 CB          0.1172  -10.3782  -50.8834 C.3       2 UNK        -0.1800 
     64 N           0.1394  -12.3889  -49.4976 N.am      2 UNK        -0.5000 
     65 C          -0.3187  -13.4842  -48.8757 C.2       1 UNK         0.5000 
     66 O          -1.5153  -13.7026  -48.6840 O.2       1 UNK        -0.5000 
     67 C          -1.3893  -23.8717  -47.0167 C.2       11 UNK         0.5000 
     68 O          -1.6917  -24.8429  -47.7125 O.2       11 UNK        -0.5000 
     69 N          -2.1791  -23.4033  -46.0399 N.am      12 UNK        -0.5000 
     70 CA         -3.4310  -24.0306  -45.6100 C.3       12 UNK         0.1400 
     71 CB         -4.2189  -23.0701  -44.7084 C.3       12 UNK        -0.1800 
     72 C          -3.2140  -25.3934  -44.9320 C.2       12 UNK         0.5000 
     73 O          -3.9569  -26.3297  -45.2237 O.2       12 UNK        -0.5000 
     74 N          -2.1729  -25.5092  -44.0958 N.am      13 UNK        -0.5000 
     75 CA         -1.7424  -26.7679  -43.4771 C.3       13 UNK         0.1400 
     76 CB         -0.6569  -26.4840  -42.4283 C.3       13 UNK        -0.1800 
     77 C          -1.2560  -27.8069  -44.5090 C.2       13 UNK         0.5000 
     78 O          -1.4942  -29.0015  -44.3302 O.2       13 UNK        -0.5000 
     79 N          -0.6330  -27.3270  -45.5940 N.am      14 UNK        -0.5000 
     80 CA         -0.2397  -28.1097  -46.7684 C.3       14 UNK         0.1400 
     81 CB          0.8582  -27.3430  -47.5246 C.3       14 UNK        -0.1800 
     82 C          -1.4163  -28.4493  -47.7121 C.2       14 UNK         0.5000 
     83 O          -1.2072  -29.1719  -48.6870 O.2       14 UNK        -0.5000 
     84 N          -2.6164  -27.9220  -47.4222 N.am      15 UNK        -0.5000 
     85 CA         -3.8815  -28.0809  -48.1499 C.3       15 UNK         0.1400 
     86 CB         -4.3108  -29.5619  -48.2112 C.3       15 UNK        -0.1800 
     87 C          -3.9152  -27.3919  -49.5310 C.2       15 UNK         0.5000 
     88 O          -4.8137  -27.6734  -50.3259 O.2       15 UNK        -0.5000 
     89 N          -2.9676  -26.4814  -49.7872 N.am      16 UNK        -0.5000 
     90 CA         -2.9162  -25.6475  -50.9891 C.3       16 UNK         0.1400 
     91 CB         -1.4484  -25.4356  -51.3849 C.3       16 UNK        -0.1800 
     92 C          -3.6674  -24.3141  -50.7962 C.2       16 UNK         0.5000 
     93 O          -4.1372  -23.7404  -51.7795 O.2       16 UNK        -0.5000 
     94 N          -3.7936  -23.8672  -49.5355 N.am      17 UNK        -0.5000 
     95 CA         -4.6714  -22.7965  -49.0374 C.3       17 UNK         0.1400 
     96 CB         -6.1347  -23.2816  -49.0521 C.3       17 UNK        -0.1800 
     97 C          -4.4933  -21.4212  -49.7128 C.2       17 UNK         0.5000 
     98 O          -5.4531  -20.6553  -49.8085 O.2       17 UNK        -0.5000 
     99 N          -3.2621  -21.1366  -50.1574 N.am      18 UNK        -0.5000 
    100 CA        -2.8400  -19.9456  -50.8989 C.3       18 UNK         0.1400 
    101 CB        -2.9118  -18.6838  -50.0138 C.3       18 UNK        -0.1800 
    102 C         -3.5684  -19.7969  -52.2511 C.2       18 UNK         0.5000 
    103 O         -3.8529  -18.6761  -52.6752 O.2       18 UNK        -0.5000 
    104 N         -3.8359  -20.9347  -52.9114 N.am      19 UNK        -0.5000 
    105 CA        -4.4485  -21.0634  -54.2354 C.3       19 UNK         0.1400 
    106 CB        -3.4430  -20.6238  -55.3244 C.3       19 UNK        -0.1800 
    107 C         -5.8208  -20.3577  -54.3148 C.2       19 UNK         0.5000 
    108 O         -6.6621  -20.5785  -53.4412 O.2       19 UNK        -0.5000 
    109 N         -6.0332  -19.5385  -55.3533 N.am      20 UNK        -0.5000 
    110 CA        -7.2335  -18.7224  -55.5230 C.3       20 UNK         0.1400 
    111 CB        -7.3645  -18.3025  -56.9961 C.3       20 UNK        -0.1800 
    112 C         -7.2262  -17.4922  -54.5976 C.2       20 UNK         0.5000 
    113 O         -8.2181  -17.2481  -53.9092 O.2       20 UNK        -0.5000 
    114 N         -6.1137  -16.7445  -54.6020 N.am      21 UNK        -0.5000 
    115 CA        -5.9280  -15.4989  -53.8554 C.3       21 UNK         0.1400 
    116 CB        -6.8431  -14.3839  -54.4132 C.3       21 UNK        -0.1800 
    117 C         -4.4421  -15.0915  -53.8562 C.2       21 UNK         0.5000 
    118 O         -4.1179  -13.9378  -54.1447 O.2       21 UNK        -0.5000 
    119 N         -3.5535  -16.0468  -53.5558 N.am      22 UNK        -0.5000 
    120 CA        -2.1003  -15.8271  -53.4454 C.3       22 UNK         0.1400 
    121 C         -1.6630  -15.0847  -52.1461 C.2       22 UNK         0.5000 
    122 N         -2.5085  -14.9792  -51.1260 N.am      22 UNK        -0.7600 
    123 O         -0.5461  -14.5834  -52.0679 O.2       22 UNK        -0.5000 
    124 C124       -1.3245  -17.1583  -53.6340 C.3       23 UNK        -0.0398 
    125 S125        0.3037  -16.9521  -54.4196 S.3       23 UNK        -0.2404 
    126 C126        0.9769  -18.6398  -54.2389 C.3       23 UNK        -0.0205 
    127 H127        3.7076  -11.3380  -47.1326 H         1 UNK         0.0600 
    128 H128        4.0476  -12.6192  -45.9657 H         1 UNK         0.0600 
    129 H129        4.3605  -12.8846  -47.6835 H         1 UNK         0.0600 
    130 H130        2.7994  -14.1974  -48.6258 H         1 UNK         0.3000 
    131 H131        0.3373  -14.7927  -47.3497 H         1 UNK         0.0600 
    132 H132        1.2343  -15.4877  -50.1891 H         1 UNK         0.0800 
    133 H133       -0.1586  -16.1730  -49.3848 H         1 UNK         0.0800 
    134 H134        3.8709  -17.9645  -49.2623 H         1 UNK         0.0800 
    135 H135        3.3584  -16.6219  -50.2528 H         1 UNK         0.0800 
    136 H136        2.1364  -17.0966  -52.2704 H         1 UNK         0.1150 
    137 H137        0.6699  -21.0587  -53.0287 H         1 UNK         0.1150 
    138 H138        2.4269  -20.1021  -49.2379 H         1 UNK         0.1150 
    139 H139        1.4613  -22.8416  -51.4822 H         1 UNK         0.0800 
    140 H140        2.0876  -22.4574  -49.9022 H         1 UNK         0.0800 
    141 H141        0.7464  -21.3278  -48.1146 H         1 UNK         0.0800 
    142 H142       -0.9799  -21.3089  -47.9238 H         1 UNK         0.0800 
    143 H143        0.6360  -23.8942  -47.6989 H         1 UNK         0.0600 
    144 H144        0.7626  -21.8017  -45.8081 H         1 UNK         0.3000 
    145 H145        1.4072  -23.8443  -42.9282 H         1 UNK         0.0600 
    146 H146        3.3211  -22.2470  -42.8205 H         1 UNK         0.0600 
    147 H147        3.6013  -23.5092  -44.0114 H         1 UNK         0.0600 
    148 H148        3.1411  -21.8980  -44.5380 H         1 UNK         0.0600 
    149 H149        1.1358  -21.0219  -43.2127 H         1 UNK         0.3000 
    150 H150       -2.4341  -20.8835  -42.8728 H         1 UNK         0.0600 
    151 H151       -1.6038  -20.9082  -40.5548 H         1 UNK         0.0600 
    152 H152       -1.7540  -19.2493  -41.1127 H         1 UNK         0.0600 
    153 H153       -0.1665  -20.0082  -41.0066 H         1 UNK         0.0600 
    154 H154       -0.3661  -18.9162  -43.3028 H         1 UNK         0.3000 
    155 H155       -0.3908  -19.0568  -46.8510 H         1 UNK         0.0600 
    156 H156       -0.9435  -16.6361  -46.6070 H         1 UNK         0.0600 
    157 H157       -1.6354  -16.9443  -45.0144 H         1 UNK         0.0600 
    158 H158       -2.3680  -17.6483  -46.4480 H         1 UNK         0.0600 
    159 H159        0.8316  -17.4196  -44.7695 H         1 UNK         0.3000 
    160 H160        3.7408  -19.4625  -44.4642 H         1 UNK         0.0600 
    161 H161        3.5648  -16.7821  -45.9346 H         1 UNK         0.0600 
    162 H162        4.2267  -18.2623  -46.6217 H         1 UNK         0.0600 
    163 H163        5.0124  -17.5110  -45.2421 H         1 UNK         0.0600 
    164 H164        3.1483  -16.8208  -43.5418 H         1 UNK         0.3000 
    165 H165        0.9913  -17.6081  -40.9065 H         1 UNK         0.0600 
    166 H166        3.9694  -17.0043  -40.5105 H         1 UNK         0.0600 
    167 H167        2.6856  -16.7368  -39.3299 H         1 UNK         0.0600 
    168 H168        3.1099  -18.3709  -39.8107 H         1 UNK         0.0600 
    169 H169        2.3466  -15.2135  -41.2346 H         1 UNK         0.3000 
    170 H170        0.7191  -13.4304  -42.0289 H         1 UNK         0.0600 
    171 H171        3.1047  -13.5923  -42.6563 H         1 UNK         0.0600 
    172 H172        2.6868  -14.0057  -44.3134 H         1 UNK         0.0600 
    173 H173        2.3417  -12.3948  -43.6846 H         1 UNK         0.0600 
    174 H174        0.3437  -13.2471  -44.8714 H         1 UNK         0.3000 
    175 H175       -2.1028  -14.1419  -45.7135 H         1 UNK         0.0600 
    176 H176       -4.2904  -12.9412  -45.6418 H         1 UNK         0.0600 
    177 H177       -4.1127  -14.0514  -44.2934 H         1 UNK         0.0600 
    178 H178       -3.9086  -12.3246  -44.0345 H         1 UNK         0.0600 
    179 H179       -1.4153  -12.3264  -46.7460 H         1 UNK         0.3000 
    180 H180       -1.6986   -9.0661  -46.5394 H         1 UNK         0.0600 
    181 H181        0.7335   -8.4693  -46.4070 H         1 UNK         0.0600 
    182 H182        0.0266   -8.6577  -44.8112 H         1 UNK         0.0600 
    183 H183        1.0439   -9.9315  -45.4716 H         1 UNK         0.0600 
    184 H184        0.2721  -11.0509  -47.5637 H         1 UNK         0.3000 
    185 H185       -1.5475  -11.6751  -50.4921 H         1 UNK         0.0600 
    186 H186        0.4624  -10.9390  -51.7523 H         1 UNK         0.0600 
    187 H187       -0.4855   -9.5473  -51.2527 H         1 UNK         0.0600 
    188 H188        0.9909   -9.9550  -50.3861 H         1 UNK         0.0600 
    189 H189        1.1358  -12.2899  -49.6258 H         1 UNK         0.3000 
    190 H190       -1.9093  -22.5488  -45.5624 H         1 UNK         0.3000 
    191 H191       -4.0358  -24.2240  -46.4960 H         1 UNK         0.0600 
    192 H192       -5.1860  -23.4961  -44.4385 H         1 UNK         0.0600 
    193 H193       -4.4095  -22.1227  -45.2131 H         1 UNK         0.0600 
    194 H194       -3.6880  -22.8545  -43.7821 H         1 UNK         0.0600 
    195 H195       -1.6492  -24.6737  -43.8497 H         1 UNK         0.3000 
    196 H196       -2.6054  -27.1948  -42.9620 H         1 UNK         0.0600 
    197 H197       -0.3707  -27.3984  -41.9075 H         1 UNK         0.0600 
    198 H198       -1.0092  -25.7773  -41.6767 H         1 UNK         0.0600 
    199 H199        0.2440  -26.0703  -42.8803 H         1 UNK         0.0600 
    200 H200       -0.4031  -26.3389  -45.6149 H         1 UNK         0.3000 
    201 H201        0.1831  -29.0562  -46.4259 H         1 UNK         0.0600 
    202 H202        1.7055  -27.1232  -46.8747 H         1 UNK         0.0600 
    203 H203        0.4889  -26.3985  -47.9233 H         1 UNK         0.0600 
    204 H204        1.2372  -27.9262  -48.3646 H         1 UNK         0.0600 
    205 H205       -2.6804  -27.3349  -46.5995 H         1 UNK         0.3000 
    206 H206       -4.6283  -27.5582  -47.5513 H         1 UNK         0.0600 
    207 H207       -4.2843  -30.0211  -47.2229 H         1 UNK         0.0600 
    208 H208       -5.3311  -29.6583  -48.5838 H         1 UNK         0.0600 
    209 H209       -3.6686  -30.1452  -48.8713 H         1 UNK         0.0600 
    210 H210       -2.2944  -26.2687  -49.0588 H         1 UNK         0.3000 
    211 H211       -3.4045  -26.1635  -51.8184 H         1 UNK         0.0600 
    212 H212       -0.8362  -25.1627  -50.5265 H         1 UNK         0.0600 
    213 H213       -1.3437  -24.6537  -52.1385 H         1 UNK         0.0600 
    214 H214       -1.0268  -26.3493  -51.8037 H         1 UNK         0.0600 
    215 H215       -3.2786  -24.3753  -48.8250 H         1 UNK         0.3000 
    216 H216       -4.3929  -22.6247  -47.9991 H         1 UNK         0.0600 
    217 H217       -6.7952  -22.5647  -48.5628 H         1 UNK         0.0600 
    218 H218       -6.2408  -24.2289  -48.5232 H         1 UNK         0.0600 
    219 H219       -6.4987  -23.4232  -50.0703 H         1 UNK         0.0600 
    220 H220       -2.5471  -21.8431  -50.0399 H         1 UNK         0.3000 
    221 H221       -1.7895  -20.0995  -51.1489 H         1 UNK         0.0600 
    222 H222       -2.4514  -17.8309  -50.5122 H         1 UNK         0.0600 
    223 H223       -2.3799  -18.8314  -49.0738 H         1 UNK         0.0600 
    224 H224       -3.9406  -18.4095  -49.7800 H         1 UNK         0.0600 
    225 H225       -3.6704  -21.8135  -52.4326 H         1 UNK         0.3000 
    226 H226       -4.6460  -22.1271  -54.3758 H         1 UNK         0.0600 
    227 H227       -3.8163  -20.8505  -56.3237 H         1 UNK         0.0600 
    228 H228       -3.2301  -19.5557  -55.2794 H         1 UNK         0.0600 
    229 H229       -2.4955  -21.1516  -55.2142 H         1 UNK         0.0600 
    230 H230       -5.2989  -19.4214  -56.0357 H         1 UNK         0.3000 
    231 H231       -8.1074  -19.3272  -55.2706 H         1 UNK         0.0600 
    232 H232       -8.2564  -17.6935  -57.1492 H         1 UNK         0.0600 
    233 H233       -7.4515  -19.1730  -57.6465 H         1 UNK         0.0600 
    234 H234       -6.5070  -17.7182  -57.3316 H         1 UNK         0.0600 
    235 H235       -5.3318  -17.0315  -55.1735 H         1 UNK         0.3000 
    236 H236       -6.2002  -15.6797  -52.8137 H         1 UNK         0.0600 
    237 H237       -6.6347  -14.1867  -55.4653 H         1 UNK         0.0600 
    238 H238       -7.8982  -14.6408  -54.3248 H         1 UNK         0.0600 
    239 H239       -6.7024  -13.4499  -53.8679 H         1 UNK         0.0600 
    240 H240       -3.8748  -16.9770  -53.2894 H         1 UNK         0.3000 
    241 H241       -1.8257  -15.1679  -54.2713 H         1 UNK         0.0600 
    242 H242       -2.2249  -14.4873  -50.2855 H         1 UNK         0.3800 
    243 H243       -3.4301  -15.3790  -51.1829 H         1 UNK         0.3800 
    244 H244       -1.8853  -17.8277  -54.2863 H         1 UNK         0.0800 
    245 H245       -1.2122  -17.6877  -52.6865 H         1 UNK         0.0800 
    246 H246        1.8753  -18.7194  -54.8519 H         1 UNK         0.0800 
    247 H247        0.2578  -19.3478  -54.6545 H         1 UNK         0.0800 
@<TRIPOS>BOND
     1    1    2 1    
     2    1  127 1    
     3    1  128 1    
     4    1  129 1    
     5    2    3 2    
     6    2    4 am   BACKBONE|DICT|INTERRES
     7    4    5 1    
     8    4  130 1    
     9    5    6 1    
    10    5   65 1    
    11    5  131 1    
    12    6    7 1    
    13    6  132 1    
    14    6  133 1    
    15    7    8 1    
    16    8    9 1    
    17    8  134 1    
    18    8  135 1    
    19    9   10 ar   
    20    9   14 ar   
    21   10   11 ar   
    22   10  136 1    
    23   11   12 ar   
    24   11  126 1    
    25   12   13 ar   
    26   12  137 1    
    27   13   14 ar   
    28   13   15 1    
    29   14  138 1    
    30   15   16 1    
    31   15  139 1    
    32   15  140 1    
    33   16   17 1    
    34   17   18 1    
    35   17  141 1    
    36   17  142 1    
    37   18   19 1    
    38   18   67 1    
    39   18  143 1    
    40   19   20 am   BACKBONE|DICT|INTERRES
    41   19  144 1    
    42   20   21 2    
    43   20   22 1    
    44   22   23 1    
    45   22   24 1    
    46   22  145 1    
    47   23  146 1    
    48   23  147 1    
    49   23  148 1    
    50   24   25 am   BACKBONE|DICT|INTERRES
    51   24  149 1    
    52   25   26 2    
    53   25   27 1    
    54   27   28 1    
    55   27   29 1    
    56   27  150 1    
    57   28  151 1    
    58   28  152 1    
    59   28  153 1    
    60   29   30 am   BACKBONE|DICT|INTERRES
    61   29  154 1    
    62   30   31 2    
    63   30   32 1    
    64   32   33 1    
    65   32   34 1    
    66   32  155 1    
    67   33  156 1    
    68   33  157 1    
    69   33  158 1    
    70   34   35 am   BACKBONE|DICT|INTERRES
    71   34  159 1    
    72   35   36 2    
    73   35   37 1    
    74   37   38 1    
    75   37   39 1    
    76   37  160 1    
    77   38  161 1    
    78   38  162 1    
    79   38  163 1    
    80   39   40 am   BACKBONE|DICT|INTERRES
    81   39  164 1    
    82   40   41 2    
    83   40   42 1    
    84   42   43 1    
    85   42   44 1    
    86   42  165 1    
    87   43  166 1    
    88   43  167 1    
    89   43  168 1    
    90   44   45 am   BACKBONE|DICT|INTERRES
    91   44  169 1    
    92   45   46 2    
    93   45   47 1    
    94   47   48 1    
    95   47   49 1    
    96   47  170 1    
    97   48  171 1    
    98   48  172 1    
    99   48  173 1    
   100   49   50 am   BACKBONE|DICT|INTERRES
   101   49  174 1    
   102   50   51 2    
   103   50   52 1    
   104   52   53 1    
   105   52   54 1    
   106   52  175 1    
   107   53  176 1    
   108   53  177 1    
   109   53  178 1    
   110   54   55 am   BACKBONE|DICT|INTERRES
   111   54  179 1    
   112   55   56 2    
   113   55   57 1    
   114   57   58 1    
   115   57   59 1    
   116   57  180 1    
   117   58  181 1    
   118   58  182 1    
   119   58  183 1    
   120   59   60 am   BACKBONE|DICT|INTERRES
   121   59  184 1    
   122   60   61 2    
   123   60   62 1    
   124   62   63 1    
   125   62   64 1    
   126   62  185 1    
   127   63  186 1    
   128   63  187 1    
   129   63  188 1    
   130   64   65 am   BACKBONE|DICT|INTERRES
   131   64  189 1    
   132   65   66 2    
   133   67   68 2    
   134   67   69 am   BACKBONE|DICT|INTERRES
   135   69   70 1    
   136   69  190 1    
   137   70   71 1    
   138   70   72 1    
   139   70  191 1    
   140   71  192 1    
   141   71  193 1    
   142   71  194 1    
   143   72   73 2    
   144   72   74 am   BACKBONE|DICT|INTERRES
   145   74   75 1    
   146   74  195 1    
   147   75   76 1    
   148   75   77 1    
   149   75  196 1    
   150   76  197 1    
   151   76  198 1    
   152   76  199 1    
   153   77   78 2    
   154   77   79 am   BACKBONE|DICT|INTERRES
   155   79   80 1    
   156   79  200 1    
   157   80   81 1    
   158   80   82 1    
   159   80  201 1    
   160   81  202 1    
   161   81  203 1    
   162   81  204 1    
   163   82   83 2    
   164   82   84 am   BACKBONE|DICT|INTERRES
   165   84   85 1    
   166   84  205 1    
   167   85   86 1    
   168   85   87 1    
   169   85  206 1    
   170   86  207 1    
   171   86  208 1    
   172   86  209 1    
   173   87   88 2    
   174   87   89 am   BACKBONE|DICT|INTERRES
   175   89   90 1    
   176   89  210 1    
   177   90   91 1    
   178   90   92 1    
   179   90  211 1    
   180   91  212 1    
   181   91  213 1    
   182   91  214 1    
   183   92   93 2    
   184   92   94 am   BACKBONE|DICT|INTERRES
   185   94   95 1    
   186   94  215 1    
   187   95   96 1    
   188   95   97 1    
   189   95  216 1    
   190   96  217 1    
   191   96  218 1    
   192   96  219 1    
   193   97   98 2    
   194   97   99 am   BACKBONE|DICT|INTERRES
   195   99  100 1    
   196   99  220 1    
   197  100  101 1    
   198  100  102 1    
   199  100  221 1    
   200  101  222 1    
   201  101  223 1    
   202  101  224 1    
   203  102  103 2    
   204  102  104 am   BACKBONE|DICT|INTERRES
   205  104  105 1    
   206  104  225 1    
   207  105  106 1    
   208  105  107 1    
   209  105  226 1    
   210  106  227 1    
   211  106  228 1    
   212  106  229 1    
   213  107  108 2    
   214  107  109 am   BACKBONE|DICT|INTERRES
   215  109  110 1    
   216  109  230 1    
   217  110  111 1    
   218  110  112 1    
   219  110  231 1    
   220  111  232 1    
   221  111  233 1    
   222  111  234 1    
   223  112  113 2    
   224  112  114 am   BACKBONE|DICT|INTERRES
   225  114  115 1    
   226  114  235 1    
   227  115  116 1    
   228  115  117 1    
   229  115  236 1    
   230  116  237 1    
   231  116  238 1    
   232  116  239 1    
   233  117  118 2    
   234  117  119 am   BACKBONE|DICT|INTERRES
   235  119  120 1    
   236  119  240 1    
   237  120  121 1    
   238  120  124 1    
   239  120  241 1    
   240  121  122 am   BACKBONE|DICT|INTERRES
   241  121  123 2    
   242  122  242 1    
   243  122  243 1    
   244  124  125 1    
   245  124  244 1    
   246  124  245 1    
   247  125  126 1    
   248  126  246 1    
   249  126  247 1    
@<TRIPOS>SUBSTRUCTURE
     1 UNK         1 GROUP             0       ****    0 ROOT    
