@<TRIPOS>MOLECULE
3R540
247   249    1
SMALL
USER_CHARGES


@<TRIPOS>ATOM
      1 CA         -3.0690  -16.8053  -45.9270 C.3       0 UNK        -0.1800 
      2 C          -3.0579  -15.3207  -46.2682 C.2       0 UNK         0.5000 
      3 O          -4.1184  -14.7404  -46.4979 O.2       0 UNK        -0.5000 
      4 N          -1.8671  -14.7110  -46.3099 N.am      1 UNK        -0.5000 
      5 CA         -1.6584  -13.3112  -46.7168 C.3       1 UNK         0.1400 
      6 C6         -0.3832  -13.1419  -47.5812 C.3       23 UNK        -0.0398 
      7 S7         -0.5255  -14.0036  -49.1809 S.3       23 UNK        -0.2404 
      8 C8          0.3456  -15.5625  -48.8315 C.3       23 UNK        -0.0205 
      9 C9         -0.0766  -16.6422  -49.8133 C.ar      23 UNK        -0.0193 
     10 C10         0.7680  -17.0339  -50.8553 C.ar      23 UNK        -0.1150 
     11 C11         0.3807  -18.0310  -51.7574 C.ar      23 UNK        -0.0193 
     12 C12        -0.8776  -18.6318  -51.6033 C.ar      23 UNK        -0.1150 
     13 C13        -1.7317  -18.2457  -50.5662 C.ar      23 UNK        -0.0193 
     14 C14        -1.3233  -17.2541  -49.6727 C.ar      23 UNK        -0.1150 
     15 C15        -3.0887  -18.9123  -50.3909 C.3       23 UNK        -0.0205 
     16 S16        -2.9594  -20.6952  -50.0368 S.3       23 UNK        -0.2404 
     17 C17        -1.7632  -20.7074  -48.6595 C.3       23 UNK        -0.0398 
     18 CA         -1.4188  -22.1373  -48.1800 C.3       11 UNK         0.1400 
     19 N          -0.0370  -22.2172  -47.7021 N.am      11 UNK        -0.5000 
     20 C           0.5880  -23.3327  -47.3041 C.2       10 UNK         0.5000 
     21 O           0.0898  -24.4540  -47.3863 O.2       10 UNK        -0.5000 
     22 CA          1.9765  -23.1684  -46.6528 C.3       10 UNK         0.1400 
     23 CB          3.0791  -23.5581  -47.6482 C.3       10 UNK        -0.1800 
     24 N           2.2631  -21.8278  -46.1227 N.am      10 UNK        -0.5000 
     25 C           1.5347  -21.1672  -45.2109 C.2       9 UNK         0.5000 
     26 O           0.4668  -21.5864  -44.7566 O.2       9 UNK        -0.5000 
     27 CA          2.0663  -19.7803  -44.7986 C.3       9 UNK         0.1400 
     28 CB          1.7782  -18.7492  -45.9030 C.3       9 UNK        -0.1800 
     29 N           1.4799  -19.3000  -43.5470 N.am      9 UNK        -0.5000 
     30 C           1.6467  -19.8657  -42.3421 C.2       8 UNK         0.5000 
     31 O           2.3991  -20.8217  -42.1447 O.2       8 UNK        -0.5000 
     32 CA          0.8671  -19.2609  -41.1531 C.3       8 UNK         0.1400 
     33 CB          1.7824  -19.0494  -39.9346 C.3       8 UNK        -0.1800 
     34 N           0.2296  -17.9836  -41.4787 N.am      8 UNK        -0.5000 
     35 C          -0.9935  -17.8356  -42.0103 C.2       7 UNK         0.5000 
     36 O          -1.7474  -18.7745  -42.2600 O.2       7 UNK        -0.5000 
     37 CA         -1.4383  -16.3972  -42.3483 C.3       7 UNK         0.1400 
     38 CB         -2.2968  -15.8236  -41.2105 C.3       7 UNK        -0.1800 
     39 N          -0.2954  -15.5150  -42.5987 N.am      7 UNK        -0.5000 
     40 C           0.4950  -15.5950  -43.6779 C.2       6 UNK         0.5000 
     41 O           0.1604  -16.1908  -44.7012 O.2       6 UNK        -0.5000 
     42 CA          1.8859  -14.9267  -43.6117 C.3       6 UNK         0.1400 
     43 CB          2.1745  -14.1174  -44.8819 C.3       6 UNK        -0.1800 
     44 N           2.1170  -14.0844  -42.4315 N.am      6 UNK        -0.5000 
     45 C           2.2753  -14.5342  -41.1771 C.2       5 UNK         0.5000 
     46 O           2.1773  -15.7271  -40.8839 O.2       5 UNK        -0.5000 
     47 CA          2.5056  -13.4920  -40.0614 C.3       5 UNK         0.1400 
     48 CB          3.3880  -14.0318  -38.9164 C.3       5 UNK        -0.1800 
     49 N           2.9839  -12.1919  -40.5445 N.am      5 UNK        -0.5000 
     50 C           4.1729  -11.9014  -41.0959 C.2       4 UNK         0.5000 
     51 O           5.0813  -12.7207  -41.2414 O.2       4 UNK        -0.5000 
     52 CA          4.3577  -10.4415  -41.5762 C.3       4 UNK         0.1400 
     53 CB          5.4835  -10.2921  -42.6215 C.3       4 UNK        -0.1800 
     54 N           3.1122   -9.8282  -42.0637 N.am      4 UNK        -0.5000 
     55 C           2.3487  -10.2793  -43.0688 C.2       3 UNK         0.5000 
     56 O           2.6289  -11.2612  -43.7559 O.2       3 UNK        -0.5000 
     57 CA          1.0289   -9.5324  -43.3278 C.3       3 UNK         0.1400 
     58 CB          1.1422   -8.6529  -44.5816 C.3       3 UNK        -0.1800 
     59 N          -0.0962  -10.4545  -43.4928 N.am      3 UNK        -0.5000 
     60 C          -0.5222  -11.3453  -42.5899 C.2       2 UNK         0.5000 
     61 O          -0.0029  -11.4958  -41.4826 O.2       2 UNK        -0.5000 
     62 CA         -1.7303  -12.2220  -42.9724 C.3       2 UNK         0.1400 
     63 CB         -3.0516  -11.4474  -42.8141 C.3       2 UNK        -0.1800 
     64 N          -1.6538  -12.8844  -44.2834 N.am      2 UNK        -0.5000 
     65 C          -1.6516  -12.3439  -45.5120 C.2       1 UNK         0.5000 
     66 O          -1.6547  -11.1303  -45.7222 O.2       1 UNK        -0.5000 
     67 C          -2.4412  -22.6414  -47.1369 C.2       11 UNK         0.5000 
     68 O          -3.4348  -23.2598  -47.5180 O.2       11 UNK        -0.5000 
     69 N          -2.1647  -22.4154  -45.8427 N.am      12 UNK        -0.5000 
     70 CA         -2.9852  -22.9071  -44.7354 C.3       12 UNK         0.1400 
     71 CB         -2.5829  -22.1946  -43.4356 C.3       12 UNK        -0.1800 
     72 C          -2.8838  -24.4345  -44.5791 C.2       12 UNK         0.5000 
     73 O          -3.9043  -25.0930  -44.3787 O.2       12 UNK        -0.5000 
     74 N          -1.6653  -24.9754  -44.7263 N.am      13 UNK        -0.5000 
     75 CA         -1.3852  -26.4143  -44.7098 C.3       13 UNK         0.1400 
     76 CB          0.1310  -26.6413  -44.6096 C.3       13 UNK        -0.1800 
     77 C          -1.9725  -27.1410  -45.9352 C.2       13 UNK         0.5000 
     78 O          -2.4485  -28.2691  -45.8073 O.2       13 UNK        -0.5000 
     79 N          -1.9712  -26.4582  -47.0877 N.am      14 UNK        -0.5000 
     80 CA         -2.5989  -26.8911  -48.3369 C.3       14 UNK         0.1400 
     81 CB         -2.0013  -26.0755  -49.4965 C.3       14 UNK        -0.1800 
     82 C          -4.1374  -26.7665  -48.3355 C.2       14 UNK         0.5000 
     83 O          -4.7629  -27.1721  -49.3140 O.2       14 UNK        -0.5000 
     84 N          -4.7233  -26.1842  -47.2771 N.am      15 UNK        -0.5000 
     85 CA         -6.1541  -25.9109  -47.0975 C.3       15 UNK         0.1400 
     86 CB         -6.9438  -27.2252  -46.9274 C.3       15 UNK        -0.1800 
     87 C          -6.7228  -24.9968  -48.2044 C.2       15 UNK         0.5000 
     88 O          -7.8080  -25.2501  -48.7294 O.2       15 UNK        -0.5000 
     89 N          -5.9449  -23.9611  -48.5482 N.am      16 UNK        -0.5000 
     90 CA         -6.1779  -22.9404  -49.5727 C.3       16 UNK         0.1400 
     91 CB         -7.4930  -22.1736  -49.3248 C.3       16 UNK        -0.1800 
     92 C          -6.0573  -23.4411  -51.0267 C.2       16 UNK         0.5000 
     93 O          -6.2885  -22.6528  -51.9429 O.2       16 UNK        -0.5000 
     94 N          -5.6616  -24.7056  -51.2457 N.am      17 UNK        -0.5000 
     95 CA         -5.5067  -25.2941  -52.5823 C.3       17 UNK         0.1400 
     96 CB         -5.2873  -26.8084  -52.4612 C.3       17 UNK        -0.1800 
     97 C          -4.3750  -24.6545  -53.4098 C.2       17 UNK         0.5000 
     98 O          -4.4650  -24.6207  -54.6376 O.2       17 UNK        -0.5000 
     99 N          -3.3481  -24.1271  -52.7268 N.am      18 UNK        -0.5000 
    100 CA        -2.2163  -23.4259  -53.3364 C.3       18 UNK         0.1400 
    101 CB        -1.0981  -23.2548  -52.2976 C.3       18 UNK        -0.1800 
    102 C         -2.5952  -22.0720  -53.9689 C.2       18 UNK         0.5000 
    103 O         -1.8628  -21.5948  -54.8349 O.2       18 UNK        -0.5000 
    104 N         -3.7456  -21.4952  -53.5846 N.am      19 UNK        -0.5000 
    105 CA        -4.2804  -20.2472  -54.1388 C.3       19 UNK         0.1400 
    106 CB        -5.5749  -19.8707  -53.4031 C.3       19 UNK        -0.1800 
    107 C         -4.5382  -20.3145  -55.6569 C.2       19 UNK         0.5000 
    108 O         -4.3951  -19.3014  -56.3409 O.2       19 UNK        -0.5000 
    109 N         -4.8672  -21.5123  -56.1622 N.am      20 UNK        -0.5000 
    110 CA        -5.0507  -21.7943  -57.5861 C.3       20 UNK         0.1400 
    111 CB        -5.6831  -23.1854  -57.7418 C.3       20 UNK        -0.1800 
    112 C         -3.7447  -21.6999  -58.4007 C.2       20 UNK         0.5000 
    113 O         -3.8030  -21.4024  -59.5945 O.2       20 UNK        -0.5000 
    114 N         -2.5988  -21.9454  -57.7503 N.am      21 UNK        -0.5000 
    115 CA        -1.2693  -21.7971  -58.3380 C.3       21 UNK         0.1400 
    116 CB        -0.3132  -22.8248  -57.7111 C.3       21 UNK        -0.1800 
    117 C         -0.7394  -20.3664  -58.1470 C.2       21 UNK         0.5000 
    118 O         -0.1849  -19.7959  -59.0876 O.2       21 UNK        -0.5000 
    119 N         -0.9157  -19.8173  -56.9381 N.am      22 UNK        -0.5000 
    120 CA        -0.4618  -18.4698  -56.5586 C.3       22 UNK         0.1400 
    121 C         -1.2534  -17.3114  -57.2288 C.2       22 UNK         0.5000 
    122 N         -2.5349  -17.4702  -57.5340 N.am      22 UNK        -0.7600 
    123 O         -0.6905  -16.2498  -57.4820 O.2       22 UNK        -0.5000 
    124 C124       -0.4317  -18.2862  -55.0222 C.3       23 UNK        -0.0398 
    125 S125        0.7002  -19.4625  -54.2040 S.3       23 UNK        -0.2404 
    126 C126        1.3725  -18.4380  -52.8506 C.3       23 UNK        -0.0205 
    127 H127       -2.0638  -17.1984  -45.7755 H         1 UNK         0.0600 
    128 H128       -3.5306  -17.3703  -46.7368 H         1 UNK         0.0600 
    129 H129       -3.6466  -16.9802  -45.0196 H         1 UNK         0.0600 
    130 H130       -1.0369  -15.2388  -46.0603 H         1 UNK         0.3000 
    131 H131       -2.5010  -12.9933  -47.3349 H         1 UNK         0.0600 
    132 H132       -0.2060  -12.0881  -47.8042 H         1 UNK         0.0800 
    133 H133        0.5034  -13.4922  -47.0571 H         1 UNK         0.0800 
    134 H134        0.1298  -15.9023  -47.8180 H         1 UNK         0.0800 
    135 H135        1.4224  -15.3925  -48.8760 H         1 UNK         0.0800 
    136 H136        1.7360  -16.5641  -50.9611 H         1 UNK         0.1150 
    137 H137       -1.2004  -19.4178  -52.2703 H         1 UNK         0.1150 
    138 H138       -1.9758  -16.9506  -48.8664 H         1 UNK         0.1150 
    139 H139       -3.6544  -18.4369  -49.5881 H         1 UNK         0.0800 
    140 H140       -3.6690  -18.7680  -51.3014 H         1 UNK         0.0800 
    141 H141       -2.1266  -20.0755  -47.8464 H         1 UNK         0.0800 
    142 H142       -0.8558  -20.2261  -49.0256 H         1 UNK         0.0800 
    143 H143       -1.4734  -22.8134  -49.0345 H         1 UNK         0.0600 
    144 H144        0.4529  -21.3430  -47.5884 H         1 UNK         0.3000 
    145 H145        2.0149  -23.8636  -45.8118 H         1 UNK         0.0600 
    146 H146        4.0603  -23.5551  -47.1731 H         1 UNK         0.0600 
    147 H147        2.9148  -24.5625  -48.0416 H         1 UNK         0.0600 
    148 H148        3.1134  -22.8747  -48.4976 H         1 UNK         0.0600 
    149 H149        3.1132  -21.3985  -46.4591 H         1 UNK         0.3000 
    150 H150        3.1465  -19.8560  -44.6586 H         1 UNK         0.0600 
    151 H151        0.7068  -18.6145  -46.0592 H         1 UNK         0.0600 
    152 H152        2.2128  -19.0522  -46.8563 H         1 UNK         0.0600 
    153 H153        2.2040  -17.7770  -45.6541 H         1 UNK         0.0600 
    154 H154        0.8189  -18.5421  -43.6265 H         1 UNK         0.3000 
    155 H155        0.0989  -19.9849  -40.8742 H         1 UNK         0.0600 
    156 H156        2.6097  -18.3775  -40.1660 H         1 UNK         0.0600 
    157 H157        2.2105  -19.9928  -39.5938 H         1 UNK         0.0600 
    158 H158        1.2309  -18.6245  -39.0957 H         1 UNK         0.0600 
    159 H159        0.7977  -17.1597  -41.3082 H         1 UNK         0.3000 
    160 H160       -2.0529  -16.4448  -43.2478 H         1 UNK         0.0600 
    161 H161       -1.7062  -15.6346  -40.3134 H         1 UNK         0.0600 
    162 H162       -3.0950  -16.5151  -40.9366 H         1 UNK         0.0600 
    163 H163       -2.7777  -14.8922  -41.5042 H         1 UNK         0.0600 
    164 H164        0.0581  -15.0031  -41.8037 H         1 UNK         0.3000 
    165 H165        2.6092  -15.7439  -43.5767 H         1 UNK         0.0600 
    166 H166        3.1855  -13.7099  -44.8670 H         1 UNK         0.0600 
    167 H167        1.4786  -13.2851  -44.9848 H         1 UNK         0.0600 
    168 H168        2.0951  -14.7380  -45.7753 H         1 UNK         0.0600 
    169 H169        2.2115  -13.0905  -42.6067 H         1 UNK         0.3000 
    170 H170        1.5183  -13.2980  -39.6403 H         1 UNK         0.0600 
    171 H171        2.9264  -14.8993  -38.4433 H         1 UNK         0.0600 
    172 H172        4.3709  -14.3425  -39.2710 H         1 UNK         0.0600 
    173 H173        3.5318  -13.2802  -38.1402 H         1 UNK         0.0600 
    174 H174        2.2926  -11.4535  -40.5181 H         1 UNK         0.3000 
    175 H175        4.6534   -9.8723  -40.6938 H         1 UNK         0.0600 
    176 H176        5.2930  -10.8922  -43.5118 H         1 UNK         0.0600 
    177 H177        5.5956   -9.2541  -42.9345 H         1 UNK         0.0600 
    178 H178        6.4427  -10.6111  -42.2123 H         1 UNK         0.0600 
    179 H179        2.7976   -9.0185  -41.5467 H         1 UNK         0.3000 
    180 H180        0.8088   -8.8917  -42.4717 H         1 UNK         0.0600 
    181 H181        1.3274   -9.2512  -45.4749 H         1 UNK         0.0600 
    182 H182        1.9620   -7.9397  -44.4869 H         1 UNK         0.0600 
    183 H183        0.2294   -8.0800  -44.7457 H         1 UNK         0.0600 
    184 H184       -0.5753  -10.4424  -44.3895 H         1 UNK         0.3000 
    185 H185       -1.7474  -13.0288  -42.2418 H         1 UNK         0.0600 
    186 H186       -3.9104  -12.0975  -42.9813 H         1 UNK         0.0600 
    187 H187       -3.1449  -11.0388  -41.8071 H         1 UNK         0.0600 
    188 H188       -3.1227  -10.6122  -43.5113 H         1 UNK         0.0600 
    189 H189       -1.6508  -13.8932  -44.2448 H         1 UNK         0.3000 
    190 H190       -1.2966  -21.9529  -45.5883 H         1 UNK         0.3000 
    191 H191       -4.0277  -22.6599  -44.9474 H         1 UNK         0.0600 
    192 H192       -3.2210  -22.5048  -42.6074 H         1 UNK         0.0600 
    193 H193       -2.6795  -21.1131  -43.5334 H         1 UNK         0.0600 
    194 H194       -1.5522  -22.4127  -43.1544 H         1 UNK         0.0600 
    195 H195       -0.8875  -24.3624  -44.9219 H         1 UNK         0.3000 
    196 H196       -1.8513  -26.8384  -43.8178 H         1 UNK         0.0600 
    197 H197        0.6597  -26.2460  -45.4770 H         1 UNK         0.0600 
    198 H198        0.5435  -26.1661  -43.7194 H         1 UNK         0.0600 
    199 H199        0.3605  -27.7057  -44.5452 H         1 UNK         0.0600 
    200 H200       -1.4737  -25.5730  -47.1182 H         1 UNK         0.3000 
    201 H201       -2.3567  -27.9434  -48.4978 H         1 UNK         0.0600 
    202 H202       -2.2623  -25.0205  -49.4191 H         1 UNK         0.0600 
    203 H203       -2.3668  -26.4335  -50.4596 H         1 UNK         0.0600 
    204 H204       -0.9139  -26.1513  -49.5158 H         1 UNK         0.0600 
    205 H205       -4.1256  -25.8596  -46.5284 H         1 UNK         0.3000 
    206 H206       -6.2428  -25.3508  -46.1656 H         1 UNK         0.0600 
    207 H207       -6.5233  -27.8356  -46.1281 H         1 UNK         0.0600 
    208 H208       -7.9842  -27.0248  -46.6689 H         1 UNK         0.0600 
    209 H209       -6.9432  -27.8214  -47.8404 H         1 UNK         0.0600 
    210 H210       -5.0519  -23.8597  -48.0661 H         1 UNK         0.3000 
    211 H211       -5.3672  -22.2244  -49.4443 H         1 UNK         0.0600 
    212 H212       -7.5644  -21.3025  -49.9772 H         1 UNK         0.0600 
    213 H213       -7.5522  -21.8129  -48.2980 H         1 UNK         0.0600 
    214 H214       -8.3691  -22.7931  -49.5168 H         1 UNK         0.0600 
    215 H215       -5.4990  -25.3173  -50.4556 H         1 UNK         0.3000 
    216 H216       -6.4401  -25.1317  -53.1253 H         1 UNK         0.0600 
    217 H217       -4.3444  -27.0402  -51.9654 H         1 UNK         0.0600 
    218 H218       -5.2621  -27.2780  -53.4453 H         1 UNK         0.0600 
    219 H219       -6.0905  -27.2814  -51.8957 H         1 UNK         0.0600 
    220 H220       -3.3628  -24.1852  -51.7200 H         1 UNK         0.3000 
    221 H221       -1.8294  -24.0540  -54.1416 H         1 UNK         0.0600 
    222 H222       -0.7616  -24.2187  -51.9155 H         1 UNK         0.0600 
    223 H223       -1.4220  -22.6534  -51.4511 H         1 UNK         0.0600 
    224 H224       -0.2312  -22.7582  -52.7361 H         1 UNK         0.0600 
    225 H225       -4.3207  -21.9614  -52.8949 H         1 UNK         0.3000 
    226 H226       -3.5412  -19.4652  -53.9565 H         1 UNK         0.0600 
    227 H227       -6.3849  -20.5619  -53.6388 H         1 UNK         0.0600 
    228 H228       -5.4417  -19.8769  -52.3218 H         1 UNK         0.0600 
    229 H229       -5.9062  -18.8712  -53.6873 H         1 UNK         0.0600 
    230 H230       -4.9415  -22.2991  -55.5314 H         1 UNK         0.3000 
    231 H231       -5.7456  -21.0552  -57.9901 H         1 UNK         0.0600 
    232 H232       -5.0352  -23.9678  -57.3445 H         1 UNK         0.0600 
    233 H233       -5.8695  -23.4149  -58.7918 H         1 UNK         0.0600 
    234 H234       -6.6392  -23.2455  -57.2216 H         1 UNK         0.0600 
    235 H235       -2.6314  -22.1272  -56.7553 H         1 UNK         0.3000 
    236 H236       -1.3170  -21.9999  -59.4102 H         1 UNK         0.0600 
    237 H237       -0.6705  -23.8423  -57.8699 H         1 UNK         0.0600 
    238 H238        0.6789  -22.7547  -58.1585 H         1 UNK         0.0600 
    239 H239       -0.1979  -22.6745  -56.6373 H         1 UNK         0.0600 
    240 H240       -1.3259  -20.3787  -56.1971 H         1 UNK         0.3000 
    241 H241        0.5669  -18.3720  -56.9119 H         1 UNK         0.0600 
    242 H242       -3.0313  -16.7128  -57.9750 H         1 UNK         0.3800 
    243 H243       -3.0497  -18.2982  -57.2480 H         1 UNK         0.3800 
    244 H244       -1.4304  -18.4141  -54.6033 H         1 UNK         0.0800 
    245 H245       -0.1214  -17.2709  -54.7685 H         1 UNK         0.0800 
    246 H246        1.8262  -17.5452  -53.2838 H         1 UNK         0.0800 
    247 H247        2.1833  -18.9950  -52.3795 H         1 UNK         0.0800 
@<TRIPOS>BOND
     1    1    2 1    
     2    1  127 1    
     3    1  128 1    
     4    1  129 1    
     5    2    3 2    
     6    2    4 am   BACKBONE|DICT|INTERRES
     7    4    5 1    
     8    4  130 1    
     9    5    6 1    
    10    5   65 1    
    11    5  131 1    
    12    6    7 1    
    13    6  132 1    
    14    6  133 1    
    15    7    8 1    
    16    8    9 1    
    17    8  134 1    
    18    8  135 1    
    19    9   10 ar   
    20    9   14 ar   
    21   10   11 ar   
    22   10  136 1    
    23   11   12 ar   
    24   11  126 1    
    25   12   13 ar   
    26   12  137 1    
    27   13   14 ar   
    28   13   15 1    
    29   14  138 1    
    30   15   16 1    
    31   15  139 1    
    32   15  140 1    
    33   16   17 1    
    34   17   18 1    
    35   17  141 1    
    36   17  142 1    
    37   18   19 1    
    38   18   67 1    
    39   18  143 1    
    40   19   20 am   BACKBONE|DICT|INTERRES
    41   19  144 1    
    42   20   21 2    
    43   20   22 1    
    44   22   23 1    
    45   22   24 1    
    46   22  145 1    
    47   23  146 1    
    48   23  147 1    
    49   23  148 1    
    50   24   25 am   BACKBONE|DICT|INTERRES
    51   24  149 1    
    52   25   26 2    
    53   25   27 1    
    54   27   28 1    
    55   27   29 1    
    56   27  150 1    
    57   28  151 1    
    58   28  152 1    
    59   28  153 1    
    60   29   30 am   BACKBONE|DICT|INTERRES
    61   29  154 1    
    62   30   31 2    
    63   30   32 1    
    64   32   33 1    
    65   32   34 1    
    66   32  155 1    
    67   33  156 1    
    68   33  157 1    
    69   33  158 1    
    70   34   35 am   BACKBONE|DICT|INTERRES
    71   34  159 1    
    72   35   36 2    
    73   35   37 1    
    74   37   38 1    
    75   37   39 1    
    76   37  160 1    
    77   38  161 1    
    78   38  162 1    
    79   38  163 1    
    80   39   40 am   BACKBONE|DICT|INTERRES
    81   39  164 1    
    82   40   41 2    
    83   40   42 1    
    84   42   43 1    
    85   42   44 1    
    86   42  165 1    
    87   43  166 1    
    88   43  167 1    
    89   43  168 1    
    90   44   45 am   BACKBONE|DICT|INTERRES
    91   44  169 1    
    92   45   46 2    
    93   45   47 1    
    94   47   48 1    
    95   47   49 1    
    96   47  170 1    
    97   48  171 1    
    98   48  172 1    
    99   48  173 1    
   100   49   50 am   BACKBONE|DICT|INTERRES
   101   49  174 1    
   102   50   51 2    
   103   50   52 1    
   104   52   53 1    
   105   52   54 1    
   106   52  175 1    
   107   53  176 1    
   108   53  177 1    
   109   53  178 1    
   110   54   55 am   BACKBONE|DICT|INTERRES
   111   54  179 1    
   112   55   56 2    
   113   55   57 1    
   114   57   58 1    
   115   57   59 1    
   116   57  180 1    
   117   58  181 1    
   118   58  182 1    
   119   58  183 1    
   120   59   60 am   BACKBONE|DICT|INTERRES
   121   59  184 1    
   122   60   61 2    
   123   60   62 1    
   124   62   63 1    
   125   62   64 1    
   126   62  185 1    
   127   63  186 1    
   128   63  187 1    
   129   63  188 1    
   130   64   65 am   BACKBONE|DICT|INTERRES
   131   64  189 1    
   132   65   66 2    
   133   67   68 2    
   134   67   69 am   BACKBONE|DICT|INTERRES
   135   69   70 1    
   136   69  190 1    
   137   70   71 1    
   138   70   72 1    
   139   70  191 1    
   140   71  192 1    
   141   71  193 1    
   142   71  194 1    
   143   72   73 2    
   144   72   74 am   BACKBONE|DICT|INTERRES
   145   74   75 1    
   146   74  195 1    
   147   75   76 1    
   148   75   77 1    
   149   75  196 1    
   150   76  197 1    
   151   76  198 1    
   152   76  199 1    
   153   77   78 2    
   154   77   79 am   BACKBONE|DICT|INTERRES
   155   79   80 1    
   156   79  200 1    
   157   80   81 1    
   158   80   82 1    
   159   80  201 1    
   160   81  202 1    
   161   81  203 1    
   162   81  204 1    
   163   82   83 2    
   164   82   84 am   BACKBONE|DICT|INTERRES
   165   84   85 1    
   166   84  205 1    
   167   85   86 1    
   168   85   87 1    
   169   85  206 1    
   170   86  207 1    
   171   86  208 1    
   172   86  209 1    
   173   87   88 2    
   174   87   89 am   BACKBONE|DICT|INTERRES
   175   89   90 1    
   176   89  210 1    
   177   90   91 1    
   178   90   92 1    
   179   90  211 1    
   180   91  212 1    
   181   91  213 1    
   182   91  214 1    
   183   92   93 2    
   184   92   94 am   BACKBONE|DICT|INTERRES
   185   94   95 1    
   186   94  215 1    
   187   95   96 1    
   188   95   97 1    
   189   95  216 1    
   190   96  217 1    
   191   96  218 1    
   192   96  219 1    
   193   97   98 2    
   194   97   99 am   BACKBONE|DICT|INTERRES
   195   99  100 1    
   196   99  220 1    
   197  100  101 1    
   198  100  102 1    
   199  100  221 1    
   200  101  222 1    
   201  101  223 1    
   202  101  224 1    
   203  102  103 2    
   204  102  104 am   BACKBONE|DICT|INTERRES
   205  104  105 1    
   206  104  225 1    
   207  105  106 1    
   208  105  107 1    
   209  105  226 1    
   210  106  227 1    
   211  106  228 1    
   212  106  229 1    
   213  107  108 2    
   214  107  109 am   BACKBONE|DICT|INTERRES
   215  109  110 1    
   216  109  230 1    
   217  110  111 1    
   218  110  112 1    
   219  110  231 1    
   220  111  232 1    
   221  111  233 1    
   222  111  234 1    
   223  112  113 2    
   224  112  114 am   BACKBONE|DICT|INTERRES
   225  114  115 1    
   226  114  235 1    
   227  115  116 1    
   228  115  117 1    
   229  115  236 1    
   230  116  237 1    
   231  116  238 1    
   232  116  239 1    
   233  117  118 2    
   234  117  119 am   BACKBONE|DICT|INTERRES
   235  119  120 1    
   236  119  240 1    
   237  120  121 1    
   238  120  124 1    
   239  120  241 1    
   240  121  122 am   BACKBONE|DICT|INTERRES
   241  121  123 2    
   242  122  242 1    
   243  122  243 1    
   244  124  125 1    
   245  124  244 1    
   246  124  245 1    
   247  125  126 1    
   248  126  246 1    
   249  126  247 1    
@<TRIPOS>SUBSTRUCTURE
     1 UNK         1 GROUP             0       ****    0 ROOT    
