@<TRIPOS>MOLECULE
3R540
247   249    1
SMALL
USER_CHARGES


@<TRIPOS>ATOM
      1 CA         -3.0654  -13.0694  -42.3639 C.3       0 UNK        -0.1800 
      2 C          -2.7639  -12.4097  -43.7024 C.2       0 UNK         0.5000 
      3 O          -3.2617  -11.3171  -43.9760 O.2       0 UNK        -0.5000 
      4 N          -1.9606  -13.0766  -44.5379 N.am      1 UNK        -0.5000 
      5 CA         -1.5112  -12.5915  -45.8460 C.3       1 UNK         0.1400 
      6 C6         -0.9759  -13.7493  -46.7253 C.3       23 UNK        -0.0398 
      7 S7         -2.2948  -14.9226  -47.1775 S.3       23 UNK        -0.2404 
      8 C8         -1.6026  -15.6349  -48.6980 C.3       23 UNK        -0.0205 
      9 C9         -2.5093  -16.7215  -49.2494 C.ar      23 UNK        -0.0193 
     10 C10        -3.4840  -16.4140  -50.2033 C.ar      23 UNK        -0.1150 
     11 C11        -4.3140  -17.4158  -50.7143 C.ar      23 UNK        -0.0193 
     12 C12        -4.1569  -18.7328  -50.2727 C.ar      23 UNK        -0.1150 
     13 C13        -3.1830  -19.0530  -49.3222 C.ar      23 UNK        -0.0193 
     14 C14        -2.3693  -18.0395  -48.8074 C.ar      23 UNK        -0.1150 
     15 C15        -3.0142  -20.4903  -48.8545 C.3       23 UNK        -0.0205 
     16 S16        -1.3881  -21.1651  -49.3264 S.3       23 UNK        -0.2404 
     17 C17        -0.4704  -21.0295  -47.7525 C.3       23 UNK        -0.0398 
     18 CA         -0.2708  -22.3766  -47.0146 C.3       11 UNK         0.1400 
     19 N           0.4799  -22.1915  -45.7717 N.am      11 UNK        -0.5000 
     20 C           0.9183  -23.1783  -44.9775 C.2       10 UNK         0.5000 
     21 O           0.7813  -24.3753  -45.2288 O.2       10 UNK        -0.5000 
     22 CA          1.5719  -22.7539  -43.6512 C.3       10 UNK         0.1400 
     23 CB          3.0202  -22.2969  -43.8790 C.3       10 UNK        -0.1800 
     24 N           0.8198  -21.7000  -42.9671 N.am      10 UNK        -0.5000 
     25 C          -0.4341  -21.8377  -42.5117 C.2       9 UNK         0.5000 
     26 O          -1.0779  -22.8830  -42.5905 O.2       9 UNK        -0.5000 
     27 CA         -1.1016  -20.5909  -41.9063 C.3       9 UNK         0.1400 
     28 CB         -0.6098  -20.3474  -40.4719 C.3       9 UNK        -0.1800 
     29 N          -0.8932  -19.3873  -42.7100 N.am      9 UNK        -0.5000 
     30 C          -1.3238  -19.2215  -43.9690 C.2       8 UNK         0.5000 
     31 O          -1.9623  -20.0664  -44.5963 O.2       8 UNK        -0.5000 
     32 CA         -0.9242  -17.9057  -44.6598 C.3       8 UNK         0.1400 
     33 CB         -1.7659  -16.7357  -44.1304 C.3       8 UNK        -0.1800 
     34 N           0.4982  -17.6052  -44.4912 N.am      8 UNK        -0.5000 
     35 C           1.4980  -18.3841  -44.9310 C.2       7 UNK         0.5000 
     36 O           1.3322  -19.4128  -45.5864 O.2       7 UNK        -0.5000 
     37 CA          2.9203  -17.9760  -44.5137 C.3       7 UNK         0.1400 
     38 CB          3.4758  -16.8827  -45.4403 C.3       7 UNK        -0.1800 
     39 N           2.9691  -17.5280  -43.1207 N.am      7 UNK        -0.5000 
     40 C           2.7724  -18.3299  -42.0630 C.2       6 UNK         0.5000 
     41 O           2.5762  -19.5410  -42.1508 O.2       6 UNK        -0.5000 
     42 CA          2.7439  -17.6587  -40.6777 C.3       6 UNK         0.1400 
     43 CB          4.1682  -17.4943  -40.1274 C.3       6 UNK        -0.1800 
     44 N           2.0798  -16.3552  -40.7019 N.am      6 UNK        -0.5000 
     45 C           0.7787  -16.1661  -40.9675 C.2       5 UNK         0.5000 
     46 O          -0.0186  -17.0840  -41.1533 O.2       5 UNK        -0.5000 
     47 CA          0.3091  -14.7053  -41.1111 C.3       5 UNK         0.1400 
     48 CB         -0.1492  -14.1424  -39.7584 C.3       5 UNK        -0.1800 
     49 N           1.3555  -13.8467  -41.6727 N.am      5 UNK        -0.5000 
     50 C           1.7924  -13.9385  -42.9347 C.2       4 UNK         0.5000 
     51 O           1.2745  -14.6707  -43.7846 O.2       4 UNK        -0.5000 
     52 CA          3.0709  -13.1579  -43.2700 C.3       4 UNK         0.1400 
     53 CB          4.3008  -13.9637  -42.7963 C.3       4 UNK        -0.1800 
     54 N           3.1016  -12.9248  -44.7102 N.am      4 UNK        -0.5000 
     55 C           4.0499  -12.2993  -45.4184 C.2       3 UNK         0.5000 
     56 O           5.0970  -11.8556  -44.9461 O.2       3 UNK        -0.5000 
     57 CA          3.7437  -12.0941  -46.9137 C.3       3 UNK         0.1400 
     58 CB          3.7207  -13.4355  -47.6663 C.3       3 UNK        -0.1800 
     59 N           2.4695  -11.4016  -47.1093 N.am      3 UNK        -0.5000 
     60 C           2.2207  -10.1357  -46.7392 C.2       2 UNK         0.5000 
     61 O           3.0801   -9.3660  -46.3084 O.2       2 UNK        -0.5000 
     62 CA          0.7623   -9.6460  -46.8548 C.3       2 UNK         0.1400 
     63 CB          0.5561   -8.8767  -48.1688 C.3       2 UNK        -0.1800 
     64 N          -0.2350  -10.7181  -46.7673 N.am      2 UNK        -0.5000 
     65 C          -0.4407  -11.4913  -45.6915 C.2       1 UNK         0.5000 
     66 O           0.1995  -11.3850  -44.6424 O.2       1 UNK        -0.5000 
     67 C          -1.6010  -23.1207  -46.7685 C.2       11 UNK         0.5000 
     68 O          -1.9038  -24.0664  -47.4977 O.2       11 UNK        -0.5000 
     69 N          -2.3523  -22.6998  -45.7412 N.am      12 UNK        -0.5000 
     70 CA         -3.6173  -23.3104  -45.3346 C.3       12 UNK         0.1400 
     71 CB         -4.2987  -22.4288  -44.2777 C.3       12 UNK        -0.1800 
     72 C          -3.4503  -24.7526  -44.8230 C.2       12 UNK         0.5000 
     73 O          -4.2528  -25.6140  -45.1824 O.2       12 UNK        -0.5000 
     74 N          -2.4011  -24.9970  -44.0248 N.am      13 UNK        -0.5000 
     75 CA         -2.0423  -26.3152  -43.4976 C.3       13 UNK         0.1400 
     76 CB         -0.9403  -26.1641  -42.4379 C.3       13 UNK        -0.1800 
     77 C          -1.6074  -27.2999  -44.5980 C.2       13 UNK         0.5000 
     78 O          -2.0037  -28.4655  -44.5617 O.2       13 UNK        -0.5000 
     79 N          -0.8225  -26.8099  -45.5672 N.am      14 UNK        -0.5000 
     80 CA         -0.3938  -27.5643  -46.7464 C.3       14 UNK         0.1400 
     81 CB          0.7914  -26.8335  -47.3970 C.3       14 UNK        -0.1800 
     82 C          -1.5180  -27.7664  -47.7815 C.2       14 UNK         0.5000 
     83 O          -1.4250  -28.6855  -48.5959 O.2       14 UNK        -0.5000 
     84 N          -2.5303  -26.8862  -47.7482 N.am      15 UNK        -0.5000 
     85 CA         -3.6070  -26.7137  -48.7287 C.3       15 UNK         0.1400 
     86 CB         -4.5422  -27.9402  -48.7519 C.3       15 UNK        -0.1800 
     87 C          -3.0500  -26.3347  -50.1178 C.2       15 UNK         0.5000 
     88 O          -3.5038  -26.8553  -51.1385 O.2       15 UNK        -0.5000 
     89 N          -2.0378  -25.4556  -50.1179 N.am      16 UNK        -0.5000 
     90 CA         -1.2567  -25.0876  -51.2994 C.3       16 UNK         0.1400 
     91 CB          0.0825  -24.4856  -50.8467 C.3       16 UNK        -0.1800 
     92 C          -1.9963  -24.1334  -52.2547 C.2       16 UNK         0.5000 
     93 O          -1.7391  -24.1740  -53.4580 O.2       16 UNK        -0.5000 
     94 N          -2.8934  -23.3008  -51.7030 N.am      17 UNK        -0.5000 
     95 CA         -3.7320  -22.3133  -52.3998 C.3       17 UNK         0.1400 
     96 CB         -4.7677  -23.0277  -53.2913 C.3       17 UNK        -0.1800 
     97 C          -2.9299  -21.2241  -53.1531 C.2       17 UNK         0.5000 
     98 O          -3.4020  -20.7054  -54.1664 O.2       17 UNK        -0.5000 
     99 N          -1.7370  -20.9088  -52.6227 N.am      18 UNK        -0.5000 
    100 CA        -0.7620  -19.9054  -53.0582 C.3       18 UNK         0.1400 
    101 CB        -1.1708  -18.5114  -52.5432 C.3       18 UNK        -0.1800 
    102 C         -0.4643  -19.9516  -54.5709 C.2       18 UNK         0.5000 
    103 O          0.2375  -20.8605  -55.0179 O.2       18 UNK        -0.5000 
    104 N         -0.9903  -18.9781  -55.3205 N.am      19 UNK        -0.5000 
    105 CA        -0.9169  -18.8821  -56.7719 C.3       19 UNK         0.1400 
    106 CB         0.0085  -17.7169  -57.1561 C.3       19 UNK        -0.1800 
    107 C         -2.3358  -18.6534  -57.3080 C.2       19 UNK         0.5000 
    108 O         -3.1523  -18.0253  -56.6300 O.2       19 UNK        -0.5000 
    109 N         -2.5993  -19.1750  -58.5141 N.am      20 UNK        -0.5000 
    110 CA        -3.8751  -19.1267  -59.2455 C.3       20 UNK         0.1400 
    111 CB        -4.2573  -17.6720  -59.5929 C.3       20 UNK        -0.1800 
    112 C         -5.0349  -19.8917  -58.5654 C.2       20 UNK         0.5000 
    113 O         -6.1873  -19.7189  -58.9658 O.2       20 UNK        -0.5000 
    114 N         -4.7084  -20.7383  -57.5760 N.am      21 UNK        -0.5000 
    115 CA        -5.6093  -21.5707  -56.7730 C.3       21 UNK         0.1400 
    116 CB        -6.1979  -22.7115  -57.6293 C.3       21 UNK        -0.1800 
    117 C         -6.6858  -20.7504  -56.0293 C.2       21 UNK         0.5000 
    118 O         -7.8680  -21.0997  -56.0682 O.2       21 UNK        -0.5000 
    119 N         -6.2595  -19.6542  -55.3899 N.am      22 UNK        -0.5000 
    120 CA        -7.1223  -18.7590  -54.6058 C.3       22 UNK         0.1400 
    121 C         -7.6927  -19.4081  -53.3100 C.2       22 UNK         0.5000 
    122 N         -8.8273  -18.9248  -52.8211 N.am      22 UNK        -0.7600 
    123 O         -7.1081  -20.3151  -52.7218 O.2       22 UNK        -0.5000 
    124 C124       -6.4372  -17.3944  -54.3285 C.3       23 UNK        -0.0398 
    125 S125       -4.8591  -17.5107  -53.4187 S.3       23 UNK        -0.2404 
    126 C126       -5.3910  -17.0830  -51.7332 C.3       23 UNK        -0.0205 
    127 H127       -4.1218  -12.9602  -42.1184 H         1 UNK         0.0600 
    128 H128       -2.4799  -12.5996  -41.5737 H         1 UNK         0.0600 
    129 H129       -2.8344  -14.1347  -42.3791 H         1 UNK         0.0600 
    130 H130       -1.5519  -13.9492  -44.2404 H         1 UNK         0.3000 
    131 H131       -2.3677  -12.1417  -46.3534 H         1 UNK         0.0600 
    132 H132       -0.5426  -13.3637  -47.6496 H         1 UNK         0.0800 
    133 H133       -0.1783  -14.2932  -46.2152 H         1 UNK         0.0800 
    134 H134       -0.6131  -16.0456  -48.4902 H         1 UNK         0.0800 
    135 H135       -1.4639  -14.8488  -49.4419 H         1 UNK         0.0800 
    136 H136       -3.5988  -15.3946  -50.5440 H         1 UNK         0.1150 
    137 H137       -4.7960  -19.5054  -50.6770 H         1 UNK         0.1150 
    138 H138       -1.6150  -18.2769  -48.0724 H         1 UNK         0.1150 
    139 H139       -3.1612  -20.5421  -47.7748 H         1 UNK         0.0800 
    140 H140       -3.7871  -21.1252  -49.2887 H         1 UNK         0.0800 
    141 H141       -0.9607  -20.3087  -47.0984 H         1 UNK         0.0800 
    142 H142        0.5041  -20.5969  -47.9824 H         1 UNK         0.0800 
    143 H143        0.3359  -23.0178  -47.6574 H         1 UNK         0.0600 
    144 H144        0.6673  -21.2296  -45.5019 H         1 UNK         0.3000 
    145 H145        1.5908  -23.6275  -42.9966 H         1 UNK         0.0600 
    146 H146        3.5186  -22.0839  -42.9332 H         1 UNK         0.0600 
    147 H147        3.5996  -23.0703  -44.3848 H         1 UNK         0.0600 
    148 H148        3.0672  -21.3961  -44.4915 H         1 UNK         0.0600 
    149 H149        1.3043  -20.8188  -42.8202 H         1 UNK         0.3000 
    150 H150       -2.1766  -20.7779  -41.8676 H         1 UNK         0.0600 
    151 H151       -0.7814  -21.2241  -39.8462 H         1 UNK         0.0600 
    152 H152       -1.1360  -19.5108  -40.0119 H         1 UNK         0.0600 
    153 H153        0.4573  -20.1267  -40.4431 H         1 UNK         0.0600 
    154 H154       -0.4100  -18.6176  -42.2555 H         1 UNK         0.3000 
    155 H155       -1.1145  -18.0074  -45.7296 H         1 UNK         0.0600 
    156 H156       -1.7576  -16.6766  -43.0428 H         1 UNK         0.0600 
    157 H157       -2.8059  -16.8355  -44.4431 H         1 UNK         0.0600 
    158 H158       -1.3964  -15.7879  -44.5137 H         1 UNK         0.0600 
    159 H159        0.7310  -16.7564  -43.9905 H         1 UNK         0.3000 
    160 H160        3.5603  -18.8557  -44.6091 H         1 UNK         0.0600 
    161 H161        2.8875  -15.9671  -45.3924 H         1 UNK         0.0600 
    162 H162        3.4724  -17.2164  -46.4787 H         1 UNK         0.0600 
    163 H163        4.5058  -16.6343  -45.1848 H         1 UNK         0.0600 
    164 H164        3.0863  -16.5397  -42.9644 H         1 UNK         0.3000 
    165 H165        2.1877  -18.3108  -40.0011 H         1 UNK         0.0600 
    166 H166        4.1557  -17.0854  -39.1170 H         1 UNK         0.0600 
    167 H167        4.6811  -18.4560  -40.0811 H         1 UNK         0.0600 
    168 H168        4.7694  -16.8315  -40.7511 H         1 UNK         0.0600 
    169 H169        2.6600  -15.5465  -40.5393 H         1 UNK         0.3000 
    170 H170       -0.5435  -14.6980  -41.7920 H         1 UNK         0.0600 
    171 H171       -0.9497  -14.7506  -39.3351 H         1 UNK         0.0600 
    172 H172        0.6650  -14.1192  -39.0331 H         1 UNK         0.0600 
    173 H173       -0.5343  -13.1281  -39.8639 H         1 UNK         0.0600 
    174 H174        1.8178  -13.2166  -41.0327 H         1 UNK         0.3000 
    175 H175        3.0375  -12.1922  -42.7624 H         1 UNK         0.0600 
    176 H176        4.4385  -14.8715  -43.3831 H         1 UNK         0.0600 
    177 H177        5.2178  -13.3803  -42.8699 H         1 UNK         0.0600 
    178 H178        4.2077  -14.2572  -41.7503 H         1 UNK         0.0600 
    179 H179        2.2650  -13.2444  -45.1795 H         1 UNK         0.3000 
    180 H180        4.5381  -11.4776  -47.3400 H         1 UNK         0.0600 
    181 H181        2.9096  -14.0814  -47.3280 H         1 UNK         0.0600 
    182 H182        4.6548  -13.9798  -47.5208 H         1 UNK         0.0600 
    183 H183        3.5996  -13.2817  -48.7387 H         1 UNK         0.0600 
    184 H184        1.7066  -11.9464  -47.4795 H         1 UNK         0.3000 
    185 H185        0.5844   -8.9585  -46.0252 H         1 UNK         0.0600 
    186 H186        1.2649   -8.0519  -48.2542 H         1 UNK         0.0600 
    187 H187        0.6955   -9.5203  -49.0383 H         1 UNK         0.0600 
    188 H188       -0.4450   -8.4486  -48.2233 H         1 UNK         0.0600 
    189 H189       -0.8061  -10.8573  -47.5888 H         1 UNK         0.3000 
    190 H190       -2.0539  -21.8840  -45.2127 H         1 UNK         0.3000 
    191 H191       -4.2649  -23.3449  -46.2132 H         1 UNK         0.0600 
    192 H192       -3.6835  -22.3226  -43.3839 H         1 UNK         0.0600 
    193 H193       -5.2551  -22.8538  -43.9710 H         1 UNK         0.0600 
    194 H194       -4.4960  -21.4298  -44.6671 H         1 UNK         0.0600 
    195 H195       -1.8201  -24.2170  -43.7275 H         1 UNK         0.3000 
    196 H196       -2.9260  -26.7319  -43.0100 H         1 UNK         0.0600 
    197 H197       -0.6600  -27.1331  -42.0232 H         1 UNK         0.0600 
    198 H198       -1.2747  -25.5400  -41.6090 H         1 UNK         0.0600 
    199 H199       -0.0403  -25.7110  -42.8550 H         1 UNK         0.0600 
    200 H200       -0.4826  -25.8550  -45.4906 H         1 UNK         0.3000 
    201 H201       -0.0548  -28.5514  -46.4253 H         1 UNK         0.0600 
    202 H202        1.6268  -26.7413  -46.7027 H         1 UNK         0.0600 
    203 H203        0.5137  -25.8294  -47.7206 H         1 UNK         0.0600 
    204 H204        1.1539  -27.3731  -48.2729 H         1 UNK         0.0600 
    205 H205       -2.4640  -26.1444  -47.0626 H         1 UNK         0.3000 
    206 H206       -4.1927  -25.8581  -48.3894 H         1 UNK         0.0600 
    207 H207       -4.0422  -28.8277  -49.1403 H         1 UNK         0.0600 
    208 H208       -5.4121  -27.7539  -49.3825 H         1 UNK         0.0600 
    209 H209       -4.9096  -28.1719  -47.7522 H         1 UNK         0.0600 
    210 H210       -1.7641  -25.0444  -49.2304 H         1 UNK         0.3000 
    211 H211       -1.0382  -25.9994  -51.8596 H         1 UNK         0.0600 
    212 H212       -0.0596  -23.6071  -50.2189 H         1 UNK         0.0600 
    213 H213        0.6869  -24.1840  -51.7032 H         1 UNK         0.0600 
    214 H214        0.6655  -25.2101  -50.2779 H         1 UNK         0.0600 
    215 H215       -3.0117  -23.3506  -50.7011 H         1 UNK         0.3000 
    216 H216       -4.2871  -21.7859  -51.6237 H         1 UNK         0.0600 
    217 H217       -5.5080  -22.3222  -53.6674 H         1 UNK         0.0600 
    218 H218       -5.3091  -23.7908  -52.7325 H         1 UNK         0.0600 
    219 H219       -4.3000  -23.5093  -54.1502 H         1 UNK         0.0600 
    220 H220       -1.4722  -21.4145  -51.7890 H         1 UNK         0.3000 
    221 H221        0.1756  -20.1642  -52.5640 H         1 UNK         0.0600 
    222 H222       -2.1566  -18.2194  -52.8989 H         1 UNK         0.0600 
    223 H223       -1.1970  -18.4953  -51.4544 H         1 UNK         0.0600 
    224 H224       -0.4600  -17.7460  -52.8564 H         1 UNK         0.0600 
    225 H225       -1.6470  -18.3387  -54.8912 H         1 UNK         0.3000 
    226 H226       -0.5263  -19.8081  -57.1991 H         1 UNK         0.0600 
    227 H227        1.0174  -17.8743  -56.7745 H         1 UNK         0.0600 
    228 H228        0.0818  -17.6164  -58.2396 H         1 UNK         0.0600 
    229 H229       -0.3548  -16.7673  -56.7608 H         1 UNK         0.0600 
    230 H230       -1.8591  -19.6763  -58.9863 H         1 UNK         0.3000 
    231 H231       -3.6951  -19.6469  -60.1873 H         1 UNK         0.0600 
    232 H232       -3.4303  -17.1506  -60.0747 H         1 UNK         0.0600 
    233 H233       -4.5427  -17.1041  -58.7071 H         1 UNK         0.0600 
    234 H234       -5.1018  -17.6428  -60.2823 H         1 UNK         0.0600 
    235 H235       -3.7355  -20.7778  -57.3091 H         1 UNK         0.3000 
    236 H236       -4.9877  -22.0299  -56.0054 H         1 UNK         0.0600 
    237 H237       -6.8601  -22.3336  -58.4088 H         1 UNK         0.0600 
    238 H238       -5.4095  -23.2902  -58.1104 H         1 UNK         0.0600 
    239 H239       -6.7762  -23.4021  -57.0144 H         1 UNK         0.0600 
    240 H240       -5.2666  -19.4595  -55.3535 H         1 UNK         0.3000 
    241 H241       -7.9852  -18.5467  -55.2403 H         1 UNK         0.0600 
    242 H242       -9.2037  -19.3284  -51.9774 H         1 UNK         0.3800 
    243 H243       -9.3323  -18.1821  -53.2795 H         1 UNK         0.3800 
    244 H244       -7.1158  -16.7200  -53.8036 H         1 UNK         0.0800 
    245 H245       -6.2244  -16.9050  -55.2799 H         1 UNK         0.0800 
    246 H246       -6.3009  -17.6277  -51.4792 H         1 UNK         0.0800 
    247 H247       -5.6449  -16.0227  -51.6930 H         1 UNK         0.0800 
@<TRIPOS>BOND
     1    1    2 1    
     2    1  127 1    
     3    1  128 1    
     4    1  129 1    
     5    2    3 2    
     6    2    4 am   BACKBONE|DICT|INTERRES
     7    4    5 1    
     8    4  130 1    
     9    5    6 1    
    10    5   65 1    
    11    5  131 1    
    12    6    7 1    
    13    6  132 1    
    14    6  133 1    
    15    7    8 1    
    16    8    9 1    
    17    8  134 1    
    18    8  135 1    
    19    9   10 ar   
    20    9   14 ar   
    21   10   11 ar   
    22   10  136 1    
    23   11   12 ar   
    24   11  126 1    
    25   12   13 ar   
    26   12  137 1    
    27   13   14 ar   
    28   13   15 1    
    29   14  138 1    
    30   15   16 1    
    31   15  139 1    
    32   15  140 1    
    33   16   17 1    
    34   17   18 1    
    35   17  141 1    
    36   17  142 1    
    37   18   19 1    
    38   18   67 1    
    39   18  143 1    
    40   19   20 am   BACKBONE|DICT|INTERRES
    41   19  144 1    
    42   20   21 2    
    43   20   22 1    
    44   22   23 1    
    45   22   24 1    
    46   22  145 1    
    47   23  146 1    
    48   23  147 1    
    49   23  148 1    
    50   24   25 am   BACKBONE|DICT|INTERRES
    51   24  149 1    
    52   25   26 2    
    53   25   27 1    
    54   27   28 1    
    55   27   29 1    
    56   27  150 1    
    57   28  151 1    
    58   28  152 1    
    59   28  153 1    
    60   29   30 am   BACKBONE|DICT|INTERRES
    61   29  154 1    
    62   30   31 2    
    63   30   32 1    
    64   32   33 1    
    65   32   34 1    
    66   32  155 1    
    67   33  156 1    
    68   33  157 1    
    69   33  158 1    
    70   34   35 am   BACKBONE|DICT|INTERRES
    71   34  159 1    
    72   35   36 2    
    73   35   37 1    
    74   37   38 1    
    75   37   39 1    
    76   37  160 1    
    77   38  161 1    
    78   38  162 1    
    79   38  163 1    
    80   39   40 am   BACKBONE|DICT|INTERRES
    81   39  164 1    
    82   40   41 2    
    83   40   42 1    
    84   42   43 1    
    85   42   44 1    
    86   42  165 1    
    87   43  166 1    
    88   43  167 1    
    89   43  168 1    
    90   44   45 am   BACKBONE|DICT|INTERRES
    91   44  169 1    
    92   45   46 2    
    93   45   47 1    
    94   47   48 1    
    95   47   49 1    
    96   47  170 1    
    97   48  171 1    
    98   48  172 1    
    99   48  173 1    
   100   49   50 am   BACKBONE|DICT|INTERRES
   101   49  174 1    
   102   50   51 2    
   103   50   52 1    
   104   52   53 1    
   105   52   54 1    
   106   52  175 1    
   107   53  176 1    
   108   53  177 1    
   109   53  178 1    
   110   54   55 am   BACKBONE|DICT|INTERRES
   111   54  179 1    
   112   55   56 2    
   113   55   57 1    
   114   57   58 1    
   115   57   59 1    
   116   57  180 1    
   117   58  181 1    
   118   58  182 1    
   119   58  183 1    
   120   59   60 am   BACKBONE|DICT|INTERRES
   121   59  184 1    
   122   60   61 2    
   123   60   62 1    
   124   62   63 1    
   125   62   64 1    
   126   62  185 1    
   127   63  186 1    
   128   63  187 1    
   129   63  188 1    
   130   64   65 am   BACKBONE|DICT|INTERRES
   131   64  189 1    
   132   65   66 2    
   133   67   68 2    
   134   67   69 am   BACKBONE|DICT|INTERRES
   135   69   70 1    
   136   69  190 1    
   137   70   71 1    
   138   70   72 1    
   139   70  191 1    
   140   71  192 1    
   141   71  193 1    
   142   71  194 1    
   143   72   73 2    
   144   72   74 am   BACKBONE|DICT|INTERRES
   145   74   75 1    
   146   74  195 1    
   147   75   76 1    
   148   75   77 1    
   149   75  196 1    
   150   76  197 1    
   151   76  198 1    
   152   76  199 1    
   153   77   78 2    
   154   77   79 am   BACKBONE|DICT|INTERRES
   155   79   80 1    
   156   79  200 1    
   157   80   81 1    
   158   80   82 1    
   159   80  201 1    
   160   81  202 1    
   161   81  203 1    
   162   81  204 1    
   163   82   83 2    
   164   82   84 am   BACKBONE|DICT|INTERRES
   165   84   85 1    
   166   84  205 1    
   167   85   86 1    
   168   85   87 1    
   169   85  206 1    
   170   86  207 1    
   171   86  208 1    
   172   86  209 1    
   173   87   88 2    
   174   87   89 am   BACKBONE|DICT|INTERRES
   175   89   90 1    
   176   89  210 1    
   177   90   91 1    
   178   90   92 1    
   179   90  211 1    
   180   91  212 1    
   181   91  213 1    
   182   91  214 1    
   183   92   93 2    
   184   92   94 am   BACKBONE|DICT|INTERRES
   185   94   95 1    
   186   94  215 1    
   187   95   96 1    
   188   95   97 1    
   189   95  216 1    
   190   96  217 1    
   191   96  218 1    
   192   96  219 1    
   193   97   98 2    
   194   97   99 am   BACKBONE|DICT|INTERRES
   195   99  100 1    
   196   99  220 1    
   197  100  101 1    
   198  100  102 1    
   199  100  221 1    
   200  101  222 1    
   201  101  223 1    
   202  101  224 1    
   203  102  103 2    
   204  102  104 am   BACKBONE|DICT|INTERRES
   205  104  105 1    
   206  104  225 1    
   207  105  106 1    
   208  105  107 1    
   209  105  226 1    
   210  106  227 1    
   211  106  228 1    
   212  106  229 1    
   213  107  108 2    
   214  107  109 am   BACKBONE|DICT|INTERRES
   215  109  110 1    
   216  109  230 1    
   217  110  111 1    
   218  110  112 1    
   219  110  231 1    
   220  111  232 1    
   221  111  233 1    
   222  111  234 1    
   223  112  113 2    
   224  112  114 am   BACKBONE|DICT|INTERRES
   225  114  115 1    
   226  114  235 1    
   227  115  116 1    
   228  115  117 1    
   229  115  236 1    
   230  116  237 1    
   231  116  238 1    
   232  116  239 1    
   233  117  118 2    
   234  117  119 am   BACKBONE|DICT|INTERRES
   235  119  120 1    
   236  119  240 1    
   237  120  121 1    
   238  120  124 1    
   239  120  241 1    
   240  121  122 am   BACKBONE|DICT|INTERRES
   241  121  123 2    
   242  122  242 1    
   243  122  243 1    
   244  124  125 1    
   245  124  244 1    
   246  124  245 1    
   247  125  126 1    
   248  126  246 1    
   249  126  247 1    
@<TRIPOS>SUBSTRUCTURE
     1 UNK         1 GROUP             0       ****    0 ROOT    
