@<TRIPOS>MOLECULE
3R540
247   249    1
SMALL
USER_CHARGES


@<TRIPOS>ATOM
      1 CA          6.7322  -13.5524  -44.1982 C.3       0 UNK        -0.1800 
      2 C           5.4644  -14.2169  -44.7122 C.2       0 UNK         0.5000 
      3 O           4.3820  -13.9831  -44.1739 O.2       0 UNK        -0.5000 
      4 N           5.5994  -15.0305  -45.7679 N.am      1 UNK        -0.5000 
      5 CA          4.5445  -15.8562  -46.3762 C.3       1 UNK         0.1400 
      6 C6          5.1104  -16.7713  -47.4883 C.3       23 UNK        -0.0398 
      7 S7          6.1926  -18.0831  -46.8250 S.3       23 UNK        -0.2404 
      8 C8          4.9871  -19.3299  -46.2566 C.3       23 UNK        -0.0205 
      9 C9          4.2333  -19.9823  -47.4072 C.ar      23 UNK        -0.0193 
     10 C10         2.9893  -19.4885  -47.8111 C.ar      23 UNK        -0.1150 
     11 C11         2.3130  -20.0506  -48.8978 C.ar      23 UNK        -0.0193 
     12 C12         2.8848  -21.1436  -49.5608 C.ar      23 UNK        -0.1150 
     13 C13         4.1073  -21.6749  -49.1400 C.ar      23 UNK        -0.0193 
     14 C14         4.7806  -21.0845  -48.0680 C.ar      23 UNK        -0.1150 
     15 C15         4.7188  -22.8664  -49.8619 C.3       23 UNK        -0.0205 
     16 S16         4.4675  -24.4266  -48.9552 S.3       23 UNK        -0.2404 
     17 C17         2.6792  -24.7160  -49.1816 C.3       23 UNK        -0.0398 
     18 CA          1.9473  -25.0031  -47.8460 C.3       11 UNK         0.1400 
     19 N           2.0484  -23.8908  -46.9005 N.am      11 UNK        -0.5000 
     20 C           2.0091  -24.0145  -45.5675 C.2       10 UNK         0.5000 
     21 O           2.0064  -25.0983  -44.9817 O.2       10 UNK        -0.5000 
     22 CA          1.8905  -22.7107  -44.7579 C.3       10 UNK         0.1400 
     23 CB          3.2766  -22.1040  -44.5004 C.3       10 UNK        -0.1800 
     24 N           1.0268  -21.7163  -45.4026 N.am      10 UNK        -0.5000 
     25 C          -0.2958  -21.8630  -45.5817 C.2       9 UNK         0.5000 
     26 O          -0.9174  -22.8741  -45.2513 O.2       9 UNK        -0.5000 
     27 CA         -1.0420  -20.6790  -46.2353 C.3       9 UNK         0.1400 
     28 CB         -2.5657  -20.7218  -45.9940 C.3       9 UNK        -0.1800 
     29 N          -0.5063  -19.3618  -45.8670 N.am      9 UNK        -0.5000 
     30 C          -0.4209  -18.8336  -44.6355 C.2       8 UNK         0.5000 
     31 O          -0.7394  -19.4250  -43.6037 O.2       8 UNK        -0.5000 
     32 CA          0.1181  -17.3929  -44.5377 C.3       8 UNK         0.1400 
     33 CB          1.6102  -17.4081  -44.1727 C.3       8 UNK        -0.1800 
     34 N          -0.0629  -16.6042  -45.7604 N.am      8 UNK        -0.5000 
     35 C          -1.2409  -16.1753  -46.2289 C.2       7 UNK         0.5000 
     36 O          -2.3270  -16.4496  -45.7129 O.2       7 UNK        -0.5000 
     37 CA         -1.1930  -15.3153  -47.5075 C.3       7 UNK         0.1400 
     38 CB         -1.3274  -16.1980  -48.7565 C.3       7 UNK        -0.1800 
     39 N          -2.2510  -14.3052  -47.5254 N.am      7 UNK        -0.5000 
     40 C          -2.3131  -13.2639  -46.6877 C.2       6 UNK         0.5000 
     41 O          -1.4386  -13.0005  -45.8563 O.2       6 UNK        -0.5000 
     42 CA         -3.5638  -12.3767  -46.7974 C.3       6 UNK         0.1400 
     43 CB         -4.8150  -13.1028  -46.2737 C.3       6 UNK        -0.1800 
     44 N          -3.3478  -11.1702  -46.0091 N.am      6 UNK        -0.5000 
     45 C          -3.6988   -9.9259  -46.3483 C.2       5 UNK         0.5000 
     46 O          -4.3577   -9.6540  -47.3531 O.2       5 UNK        -0.5000 
     47 CA         -3.2389   -8.7850  -45.4121 C.3       5 UNK         0.1400 
     48 CB         -4.4354   -8.2127  -44.6351 C.3       5 UNK        -0.1800 
     49 N          -2.1985   -9.1735  -44.4511 N.am      5 UNK        -0.5000 
     50 C          -0.9393   -9.5027  -44.7697 C.2       4 UNK         0.5000 
     51 O          -0.5101   -9.4815  -45.9256 O.2       4 UNK        -0.5000 
     52 CA         -0.0341   -9.9472  -43.6005 C.3       4 UNK         0.1400 
     53 CB         -0.6514  -11.1177  -42.8127 C.3       4 UNK        -0.1800 
     54 N           1.2834  -10.3641  -44.0752 N.am      4 UNK        -0.5000 
     55 C           2.3073   -9.5438  -44.3420 C.2       3 UNK         0.5000 
     56 O           2.2931   -8.3328  -44.1151 O.2       3 UNK        -0.5000 
     57 CA          3.5619  -10.1863  -44.9662 C.3       3 UNK         0.1400 
     58 CB          4.6110  -10.4802  -43.8833 C.3       3 UNK        -0.1800 
     59 N           3.2642  -11.4216  -45.6999 N.am      3 UNK        -0.5000 
     60 C           2.7061  -11.4537  -46.9207 C.2       2 UNK         0.5000 
     61 O           2.4588  -10.4432  -47.5798 O.2       2 UNK        -0.5000 
     62 CA          2.4035  -12.8467  -47.5012 C.3       2 UNK         0.1400 
     63 CB          2.1640  -12.8482  -49.0230 C.3       2 UNK        -0.1800 
     64 N           3.4811  -13.7719  -47.1607 N.am      2 UNK        -0.5000 
     65 C           3.3204  -15.0728  -46.8989 C.2       1 UNK         0.5000 
     66 O           2.2497  -15.6670  -47.0340 O.2       1 UNK        -0.5000 
     67 C           0.4507  -25.3021  -48.0602 C.2       11 UNK         0.5000 
     68 O          -0.0988  -24.9608  -49.1071 O.2       11 UNK        -0.5000 
     69 N          -0.1973  -25.8808  -47.0394 N.am      12 UNK        -0.5000 
     70 CA         -1.6516  -26.0387  -46.9229 C.3       12 UNK         0.1400 
     71 CB         -1.9779  -26.7536  -45.6042 C.3       12 UNK        -0.1800 
     72 C          -2.3354  -26.7533  -48.1043 C.2       12 UNK         0.5000 
     73 O          -3.4660  -26.4030  -48.4456 O.2       12 UNK        -0.5000 
     74 N          -1.6338  -27.7140  -48.7209 N.am      13 UNK        -0.5000 
     75 CA         -2.0891  -28.4413  -49.9067 C.3       13 UNK         0.1400 
     76 CB         -1.1978  -29.6741  -50.1198 C.3       13 UNK        -0.1800 
     77 C          -2.1133  -27.5632  -51.1723 C.2       13 UNK         0.5000 
     78 O          -3.0509  -27.6670  -51.9630 O.2       13 UNK        -0.5000 
     79 N          -1.1027  -26.6957  -51.3268 N.am      14 UNK        -0.5000 
     80 CA         -1.0063  -25.7183  -52.4148 C.3       14 UNK         0.1400 
     81 CB          0.4483  -25.2408  -52.5489 C.3       14 UNK        -0.1800 
     82 C          -1.9474  -24.5233  -52.1865 C.2       14 UNK         0.5000 
     83 O          -2.4993  -23.9821  -53.1445 O.2       14 UNK        -0.5000 
     84 N          -2.1327  -24.1562  -50.9121 N.am      15 UNK        -0.5000 
     85 CA         -3.0527  -23.1187  -50.4576 C.3       15 UNK         0.1400 
     86 CB         -2.7118  -22.7496  -49.0076 C.3       15 UNK        -0.1800 
     87 C          -4.5336  -23.5220  -50.5553 C.2       15 UNK         0.5000 
     88 O          -5.3913  -22.6437  -50.4561 O.2       15 UNK        -0.5000 
     89 N          -4.8031  -24.8284  -50.6951 N.am      16 UNK        -0.5000 
     90 CA         -6.1165  -25.4784  -50.6844 C.3       16 UNK         0.1400 
     91 CB         -6.9366  -25.0721  -51.9260 C.3       16 UNK        -0.1800 
     92 C          -6.8590  -25.2217  -49.3584 C.2       16 UNK         0.5000 
     93 O          -8.0150  -24.8001  -49.3656 O.2       16 UNK        -0.5000 
     94 N          -6.1436  -25.4098  -48.2386 N.am      17 UNK        -0.5000 
     95 CA         -6.5628  -25.0840  -46.8684 C.3       17 UNK         0.1400 
     96 CB         -7.7008  -26.0168  -46.4048 C.3       17 UNK        -0.1800 
     97 C          -6.8960  -23.5837  -46.6955 C.2       17 UNK         0.5000 
     98 O          -7.8492  -23.2303  -46.0003 O.2       17 UNK        -0.5000 
     99 N          -6.0964  -22.7417  -47.3666 N.am      18 UNK        -0.5000 
    100 CA        -6.1715  -21.2800  -47.4661 C.3       18 UNK         0.1400 
    101 CB        -6.1840  -20.6105  -46.0761 C.3       18 UNK        -0.1800 
    102 C         -7.2999  -20.7511  -48.3765 C.2       18 UNK         0.5000 
    103 O         -7.4467  -19.5329  -48.4817 O.2       18 UNK        -0.5000 
    104 N         -8.0524  -21.6339  -49.0511 N.am      19 UNK        -0.5000 
    105 CA        -9.1325  -21.2512  -49.9653 C.3       19 UNK         0.1400 
    106 CB       -10.0370  -22.4616  -50.2385 C.3       19 UNK        -0.1800 
    107 C         -8.6252  -20.6539  -51.2918 C.2       19 UNK         0.5000 
    108 O         -9.3007  -19.7934  -51.8578 O.2       19 UNK        -0.5000 
    109 N         -7.4553  -21.1088  -51.7621 N.am      20 UNK        -0.5000 
    110 CA        -6.8136  -20.6279  -52.9890 C.3       20 UNK         0.1400 
    111 CB        -6.1821  -21.8200  -53.7271 C.3       20 UNK        -0.1800 
    112 C         -5.7521  -19.5483  -52.7092 C.2       20 UNK         0.5000 
    113 O         -5.2655  -18.9282  -53.6563 O.2       20 UNK        -0.5000 
    114 N         -5.3819  -19.3658  -51.4303 N.am      21 UNK        -0.5000 
    115 CA        -4.3968  -18.4031  -50.9124 C.3       21 UNK         0.1400 
    116 CB        -4.9604  -16.9701  -50.9896 C.3       21 UNK        -0.1800 
    117 C         -2.9999  -18.5302  -51.5637 C.2       21 UNK         0.5000 
    118 O         -2.2833  -17.5380  -51.6977 O.2       21 UNK        -0.5000 
    119 N         -2.6599  -19.7599  -51.9696 N.am      22 UNK        -0.5000 
    120 CA        -1.4383  -20.1507  -52.6957 C.3       22 UNK         0.1400 
    121 C         -1.3803  -19.6469  -54.1711 C.2       22 UNK         0.5000 
    122 N         -2.4707  -19.1633  -54.7571 N.am      22 UNK        -0.7600 
    123 O         -0.3363  -19.7239  -54.8131 O.2       22 UNK        -0.5000 
    124 C124       -0.1253  -19.8603  -51.9127 C.3       23 UNK        -0.0398 
    125 S125       -0.1453  -20.5392  -50.2160 S.3       23 UNK        -0.2404 
    126 C126        1.0017  -19.4129  -49.3516 C.3       23 UNK        -0.0205 
    127 H127        6.5854  -13.1755  -43.1856 H         1 UNK         0.0600 
    128 H128        7.0078  -12.7153  -44.8395 H         1 UNK         0.0600 
    129 H129        7.5615  -14.2599  -44.1783 H         1 UNK         0.0600 
    130 H130        6.5224  -15.1671  -46.1558 H         1 UNK         0.3000 
    131 H131        4.1573  -16.4904  -45.5777 H         1 UNK         0.0600 
    132 H132        4.3203  -17.2295  -48.0813 H         1 UNK         0.0800 
    133 H133        5.6892  -16.1805  -48.2001 H         1 UNK         0.0800 
    134 H134        4.2914  -18.8787  -45.5496 H         1 UNK         0.0800 
    135 H135        5.5250  -20.0952  -45.6952 H         1 UNK         0.0800 
    136 H136        2.5638  -18.6352  -47.3018 H         1 UNK         0.1150 
    137 H137        2.3879  -21.5807  -50.4144 H         1 UNK         0.1150 
    138 H138        5.7364  -21.4795  -47.7529 H         1 UNK         0.1150 
    139 H139        4.3117  -22.9604  -50.8699 H         1 UNK         0.0800 
    140 H140        5.7903  -22.7011  -49.9837 H         1 UNK         0.0800 
    141 H141        2.5688  -25.5634  -49.8602 H         1 UNK         0.0800 
    142 H142        2.2277  -23.8648  -49.6913 H         1 UNK         0.0800 
    143 H143        2.4019  -25.8954  -47.4100 H         1 UNK         0.0600 
    144 H144        2.0353  -22.9639  -47.3000 H         1 UNK         0.3000 
    145 H145        1.4448  -22.9575  -43.7920 H         1 UNK         0.0600 
    146 H146        3.2072  -21.1614  -43.9571 H         1 UNK         0.0600 
    147 H147        3.8891  -22.7803  -43.9029 H         1 UNK         0.0600 
    148 H148        3.8115  -21.9230  -45.4312 H         1 UNK         0.0600 
    149 H149        1.4613  -20.8544  -45.6948 H         1 UNK         0.3000 
    150 H150       -0.8815  -20.7892  -47.3072 H         1 UNK         0.0600 
    151 H151       -2.9963  -21.6666  -46.3257 H         1 UNK         0.0600 
    152 H152       -3.0717  -19.9249  -46.5391 H         1 UNK         0.0600 
    153 H153       -2.8108  -20.6119  -44.9375 H         1 UNK         0.0600 
    154 H154       -0.2248  -18.7693  -46.6326 H         1 UNK         0.3000 
    155 H155       -0.4253  -16.8941  -43.7325 H         1 UNK         0.0600 
    156 H156        2.2040  -17.8870  -44.9503 H         1 UNK         0.0600 
    157 H157        1.7822  -17.9543  -43.2443 H         1 UNK         0.0600 
    158 H158        1.9931  -16.3971  -44.0304 H         1 UNK         0.0600 
    159 H159        0.7873  -16.3108  -46.2411 H         1 UNK         0.3000 
    160 H160       -0.2341  -14.7967  -47.5520 H         1 UNK         0.0600 
    161 H161       -2.2475  -16.7837  -48.7425 H         1 UNK         0.0600 
    162 H162       -0.4935  -16.8945  -48.8307 H         1 UNK         0.0600 
    163 H163       -1.3243  -15.6002  -49.6682 H         1 UNK         0.0600 
    164 H164       -3.0205  -14.4743  -48.1558 H         1 UNK         0.3000 
    165 H165       -3.7017  -12.1189  -47.8496 H         1 UNK         0.0600 
    166 H166       -5.6964  -12.4645  -46.3394 H         1 UNK         0.0600 
    167 H167       -5.0233  -14.0022  -46.8540 H         1 UNK         0.0600 
    168 H168       -4.6968  -13.4038  -45.2320 H         1 UNK         0.0600 
    169 H169       -2.7342  -11.2994  -45.2159 H         1 UNK         0.3000 
    170 H170       -2.8337   -7.9932  -46.0455 H         1 UNK         0.0600 
    171 H171       -5.2186   -7.8742  -45.3148 H         1 UNK         0.0600 
    172 H172       -4.8766   -8.9574  -43.9715 H         1 UNK         0.0600 
    173 H173       -4.1405   -7.3547  -44.0306 H         1 UNK         0.0600 
    174 H174       -2.4822   -9.2112  -43.4826 H         1 UNK         0.3000 
    175 H175        0.0788   -9.0972  -42.9243 H         1 UNK         0.0600 
    176 H176       -0.8270  -11.9852  -43.4491 H         1 UNK         0.0600 
    177 H177        0.0050  -11.4311  -42.0004 H         1 UNK         0.0600 
    178 H178       -1.6042  -10.8420  -42.3601 H         1 UNK         0.0600 
    179 H179        1.3749  -11.3336  -44.3381 H         1 UNK         0.3000 
    180 H180        3.9903   -9.4597  -45.6601 H         1 UNK         0.0600 
    181 H181        4.2689  -11.2465  -43.1865 H         1 UNK         0.0600 
    182 H182        4.8371   -9.5848  -43.3026 H         1 UNK         0.0600 
    183 H183        5.5462  -10.8194  -44.3269 H         1 UNK         0.0600 
    184 H184        3.4478  -12.2930  -45.2151 H         1 UNK         0.3000 
    185 H185        1.4828  -13.1714  -47.0119 H         1 UNK         0.0600 
    186 H186        1.3378  -12.1887  -49.2913 H         1 UNK         0.0600 
    187 H187        3.0475  -12.5125  -49.5668 H         1 UNK         0.0600 
    188 H188        1.9079  -13.8457  -49.3807 H         1 UNK         0.0600 
    189 H189        4.3946  -13.3607  -47.0275 H         1 UNK         0.3000 
    190 H190        0.3379  -26.0796  -46.2035 H         1 UNK         0.3000 
    191 H191       -2.0729  -25.0340  -46.8671 H         1 UNK         0.0600 
    192 H192       -1.5367  -27.7503  -45.5670 H         1 UNK         0.0600 
    193 H193       -3.0554  -26.8646  -45.4742 H         1 UNK         0.0600 
    194 H194       -1.6062  -26.1884  -44.7491 H         1 UNK         0.0600 
    195 H195       -0.7149  -27.9380  -48.3688 H         1 UNK         0.3000 
    196 H196       -3.1087  -28.7875  -49.7233 H         1 UNK         0.0600 
    197 H197       -1.5260  -30.2475  -50.9878 H         1 UNK         0.0600 
    198 H198       -1.2354  -30.3410  -49.2583 H         1 UNK         0.0600 
    199 H199       -0.1560  -29.3962  -50.2846 H         1 UNK         0.0600 
    200 H200       -0.4167  -26.6138  -50.5890 H         1 UNK         0.3000 
    201 H201       -1.2949  -26.2032  -53.3499 H         1 UNK         0.0600 
    202 H202        1.1254  -26.0778  -52.7197 H         1 UNK         0.0600 
    203 H203        0.7850  -24.7118  -51.6573 H         1 UNK         0.0600 
    204 H204        0.5559  -24.5576  -53.3922 H         1 UNK         0.0600 
    205 H205       -1.5551  -24.5964  -50.2000 H         1 UNK         0.3000 
    206 H206       -2.9026  -22.2424  -51.0836 H         1 UNK         0.0600 
    207 H207       -1.6377  -22.6457  -48.8590 H         1 UNK         0.0600 
    208 H208       -3.1684  -21.7972  -48.7411 H         1 UNK         0.0600 
    209 H209       -3.0687  -23.5004  -48.3033 H         1 UNK         0.0600 
    210 H210       -4.0129  -25.4580  -50.7185 H         1 UNK         0.3000 
    211 H211       -5.9336  -26.5525  -50.7393 H         1 UNK         0.0600 
    212 H212       -7.2208  -24.0206  -51.8993 H         1 UNK         0.0600 
    213 H213       -7.8561  -25.6546  -51.9920 H         1 UNK         0.0600 
    214 H214       -6.3746  -25.2443  -52.8439 H         1 UNK         0.0600 
    215 H215       -5.1917  -25.7608  -48.3371 H         1 UNK         0.3000 
    216 H216       -5.6987  -25.2782  -46.2313 H         1 UNK         0.0600 
    217 H217       -7.9212  -25.8677  -45.3472 H         1 UNK         0.0600 
    218 H218       -7.4282  -27.0641  -46.5340 H         1 UNK         0.0600 
    219 H219       -8.6233  -25.8393  -46.9582 H         1 UNK         0.0600 
    220 H220       -5.3931  -23.1653  -47.9530 H         1 UNK         0.3000 
    221 H221       -5.2452  -20.9781  -47.9548 H         1 UNK         0.0600 
    222 H222       -7.1460  -20.7285  -45.5769 H         1 UNK         0.0600 
    223 H223       -5.4161  -21.0274  -45.4252 H         1 UNK         0.0600 
    224 H224       -5.9929  -19.5400  -46.1584 H         1 UNK         0.0600 
    225 H225       -7.8716  -22.6253  -48.9487 H         1 UNK         0.3000 
    226 H226       -9.7384  -20.4897  -49.4695 H         1 UNK         0.0600 
    227 H227      -10.3815  -22.9188  -49.3107 H         1 UNK         0.0600 
    228 H228      -10.9210  -22.1648  -50.8041 H         1 UNK         0.0600 
    229 H229       -9.5221  -23.2261  -50.8208 H         1 UNK         0.0600 
    230 H230       -6.9361  -21.7974  -51.2231 H         1 UNK         0.3000 
    231 H231       -7.5587  -20.1844  -53.6525 H         1 UNK         0.0600 
    232 H232       -6.9277  -22.5814  -53.9556 H         1 UNK         0.0600 
    233 H233       -5.3900  -22.2896  -53.1444 H         1 UNK         0.0600 
    234 H234       -5.7435  -21.5046  -54.6746 H         1 UNK         0.0600 
    235 H235       -5.8459  -19.9348  -50.7369 H         1 UNK         0.3000 
    236 H236       -4.2582  -18.6457  -49.8578 H         1 UNK         0.0600 
    237 H237       -5.0841  -16.6413  -52.0220 H         1 UNK         0.0600 
    238 H238       -5.9306  -16.9027  -50.4972 H         1 UNK         0.0600 
    239 H239       -4.2975  -16.2588  -50.4956 H         1 UNK         0.0600 
    240 H240       -3.3438  -20.4893  -51.8457 H         1 UNK         0.3000 
    241 H241       -1.5052  -21.2344  -52.7941 H         1 UNK         0.0600 
    242 H242       -2.4167  -18.8527  -55.7140 H         1 UNK         0.3800 
    243 H243       -3.3508  -19.0861  -54.2583 H         1 UNK         0.3800 
    244 H244        0.0516  -18.7850  -51.8778 H         1 UNK         0.0800 
    245 H245        0.7326  -20.2931  -52.4294 H         1 UNK         0.0800 
    246 H246        0.4751  -19.0176  -48.4853 H         1 UNK         0.0800 
    247 H247        1.2396  -18.5513  -49.9757 H         1 UNK         0.0800 
@<TRIPOS>BOND
     1    1    2 1    
     2    1  127 1    
     3    1  128 1    
     4    1  129 1    
     5    2    3 2    
     6    2    4 am   BACKBONE|DICT|INTERRES
     7    4    5 1    
     8    4  130 1    
     9    5    6 1    
    10    5   65 1    
    11    5  131 1    
    12    6    7 1    
    13    6  132 1    
    14    6  133 1    
    15    7    8 1    
    16    8    9 1    
    17    8  134 1    
    18    8  135 1    
    19    9   10 ar   
    20    9   14 ar   
    21   10   11 ar   
    22   10  136 1    
    23   11   12 ar   
    24   11  126 1    
    25   12   13 ar   
    26   12  137 1    
    27   13   14 ar   
    28   13   15 1    
    29   14  138 1    
    30   15   16 1    
    31   15  139 1    
    32   15  140 1    
    33   16   17 1    
    34   17   18 1    
    35   17  141 1    
    36   17  142 1    
    37   18   19 1    
    38   18   67 1    
    39   18  143 1    
    40   19   20 am   BACKBONE|DICT|INTERRES
    41   19  144 1    
    42   20   21 2    
    43   20   22 1    
    44   22   23 1    
    45   22   24 1    
    46   22  145 1    
    47   23  146 1    
    48   23  147 1    
    49   23  148 1    
    50   24   25 am   BACKBONE|DICT|INTERRES
    51   24  149 1    
    52   25   26 2    
    53   25   27 1    
    54   27   28 1    
    55   27   29 1    
    56   27  150 1    
    57   28  151 1    
    58   28  152 1    
    59   28  153 1    
    60   29   30 am   BACKBONE|DICT|INTERRES
    61   29  154 1    
    62   30   31 2    
    63   30   32 1    
    64   32   33 1    
    65   32   34 1    
    66   32  155 1    
    67   33  156 1    
    68   33  157 1    
    69   33  158 1    
    70   34   35 am   BACKBONE|DICT|INTERRES
    71   34  159 1    
    72   35   36 2    
    73   35   37 1    
    74   37   38 1    
    75   37   39 1    
    76   37  160 1    
    77   38  161 1    
    78   38  162 1    
    79   38  163 1    
    80   39   40 am   BACKBONE|DICT|INTERRES
    81   39  164 1    
    82   40   41 2    
    83   40   42 1    
    84   42   43 1    
    85   42   44 1    
    86   42  165 1    
    87   43  166 1    
    88   43  167 1    
    89   43  168 1    
    90   44   45 am   BACKBONE|DICT|INTERRES
    91   44  169 1    
    92   45   46 2    
    93   45   47 1    
    94   47   48 1    
    95   47   49 1    
    96   47  170 1    
    97   48  171 1    
    98   48  172 1    
    99   48  173 1    
   100   49   50 am   BACKBONE|DICT|INTERRES
   101   49  174 1    
   102   50   51 2    
   103   50   52 1    
   104   52   53 1    
   105   52   54 1    
   106   52  175 1    
   107   53  176 1    
   108   53  177 1    
   109   53  178 1    
   110   54   55 am   BACKBONE|DICT|INTERRES
   111   54  179 1    
   112   55   56 2    
   113   55   57 1    
   114   57   58 1    
   115   57   59 1    
   116   57  180 1    
   117   58  181 1    
   118   58  182 1    
   119   58  183 1    
   120   59   60 am   BACKBONE|DICT|INTERRES
   121   59  184 1    
   122   60   61 2    
   123   60   62 1    
   124   62   63 1    
   125   62   64 1    
   126   62  185 1    
   127   63  186 1    
   128   63  187 1    
   129   63  188 1    
   130   64   65 am   BACKBONE|DICT|INTERRES
   131   64  189 1    
   132   65   66 2    
   133   67   68 2    
   134   67   69 am   BACKBONE|DICT|INTERRES
   135   69   70 1    
   136   69  190 1    
   137   70   71 1    
   138   70   72 1    
   139   70  191 1    
   140   71  192 1    
   141   71  193 1    
   142   71  194 1    
   143   72   73 2    
   144   72   74 am   BACKBONE|DICT|INTERRES
   145   74   75 1    
   146   74  195 1    
   147   75   76 1    
   148   75   77 1    
   149   75  196 1    
   150   76  197 1    
   151   76  198 1    
   152   76  199 1    
   153   77   78 2    
   154   77   79 am   BACKBONE|DICT|INTERRES
   155   79   80 1    
   156   79  200 1    
   157   80   81 1    
   158   80   82 1    
   159   80  201 1    
   160   81  202 1    
   161   81  203 1    
   162   81  204 1    
   163   82   83 2    
   164   82   84 am   BACKBONE|DICT|INTERRES
   165   84   85 1    
   166   84  205 1    
   167   85   86 1    
   168   85   87 1    
   169   85  206 1    
   170   86  207 1    
   171   86  208 1    
   172   86  209 1    
   173   87   88 2    
   174   87   89 am   BACKBONE|DICT|INTERRES
   175   89   90 1    
   176   89  210 1    
   177   90   91 1    
   178   90   92 1    
   179   90  211 1    
   180   91  212 1    
   181   91  213 1    
   182   91  214 1    
   183   92   93 2    
   184   92   94 am   BACKBONE|DICT|INTERRES
   185   94   95 1    
   186   94  215 1    
   187   95   96 1    
   188   95   97 1    
   189   95  216 1    
   190   96  217 1    
   191   96  218 1    
   192   96  219 1    
   193   97   98 2    
   194   97   99 am   BACKBONE|DICT|INTERRES
   195   99  100 1    
   196   99  220 1    
   197  100  101 1    
   198  100  102 1    
   199  100  221 1    
   200  101  222 1    
   201  101  223 1    
   202  101  224 1    
   203  102  103 2    
   204  102  104 am   BACKBONE|DICT|INTERRES
   205  104  105 1    
   206  104  225 1    
   207  105  106 1    
   208  105  107 1    
   209  105  226 1    
   210  106  227 1    
   211  106  228 1    
   212  106  229 1    
   213  107  108 2    
   214  107  109 am   BACKBONE|DICT|INTERRES
   215  109  110 1    
   216  109  230 1    
   217  110  111 1    
   218  110  112 1    
   219  110  231 1    
   220  111  232 1    
   221  111  233 1    
   222  111  234 1    
   223  112  113 2    
   224  112  114 am   BACKBONE|DICT|INTERRES
   225  114  115 1    
   226  114  235 1    
   227  115  116 1    
   228  115  117 1    
   229  115  236 1    
   230  116  237 1    
   231  116  238 1    
   232  116  239 1    
   233  117  118 2    
   234  117  119 am   BACKBONE|DICT|INTERRES
   235  119  120 1    
   236  119  240 1    
   237  120  121 1    
   238  120  124 1    
   239  120  241 1    
   240  121  122 am   BACKBONE|DICT|INTERRES
   241  121  123 2    
   242  122  242 1    
   243  122  243 1    
   244  124  125 1    
   245  124  244 1    
   246  124  245 1    
   247  125  126 1    
   248  126  246 1    
   249  126  247 1    
@<TRIPOS>SUBSTRUCTURE
     1 UNK         1 GROUP             0       ****    0 ROOT    
