@<TRIPOS>MOLECULE
3R540
247   249    1
SMALL
USER_CHARGES


@<TRIPOS>ATOM
      1 CA         -5.4264  -16.4286  -47.3106 C.3       0 UNK        -0.1800 
      2 C          -4.0009  -16.1012  -46.8905 C.2       0 UNK         0.5000 
      3 O          -3.7949  -15.2306  -46.0474 O.2       0 UNK        -0.5000 
      4 N          -3.0146  -16.8076  -47.4549 N.am      1 UNK        -0.5000 
      5 CA         -1.5804  -16.6227  -47.2027 C.3       1 UNK         0.1400 
      6 C6         -0.7140  -17.3945  -48.2247 C.3       23 UNK        -0.0398 
      7 S7         -1.0383  -16.9155  -49.9564 S.3       23 UNK        -0.2404 
      8 C8          0.6548  -16.8102  -50.6202 C.3       23 UNK        -0.0205 
      9 C9          1.2126  -18.1831  -50.9684 C.ar      23 UNK        -0.0193 
     10 C10         1.1873  -18.6327  -52.2919 C.ar      23 UNK        -0.1150 
     11 C11         1.7107  -19.8862  -52.6357 C.ar      23 UNK        -0.0193 
     12 C12         2.2513  -20.6889  -51.6268 C.ar      23 UNK        -0.1150 
     13 C13         2.2719  -20.2598  -50.2968 C.ar      23 UNK        -0.0193 
     14 C14         1.7624  -19.0002  -49.9763 C.ar      23 UNK        -0.1150 
     15 C15         2.8652  -21.1510  -49.2152 C.3       23 UNK        -0.0205 
     16 S16         1.9367  -22.7021  -49.0168 S.3       23 UNK        -0.2404 
     17 C17         0.4640  -22.1885  -48.0651 C.3       23 UNK        -0.0398 
     18 CA          0.1503  -23.2472  -46.9786 C.3       11 UNK         0.1400 
     19 N           1.1088  -23.2057  -45.8720 N.am      11 UNK        -0.5000 
     20 C           1.6138  -24.2838  -45.2554 C.2       10 UNK         0.5000 
     21 O           1.3108  -25.4410  -45.5473 O.2       10 UNK        -0.5000 
     22 CA          2.5928  -24.0295  -44.0897 C.3       10 UNK         0.1400 
     23 CB          4.0419  -24.0379  -44.5989 C.3       10 UNK        -0.1800 
     24 N           2.3435  -22.7708  -43.3828 N.am      10 UNK        -0.5000 
     25 C           1.2049  -22.4635  -42.7466 C.2       9 UNK         0.5000 
     26 O           0.2690  -23.2512  -42.6205 O.2       9 UNK        -0.5000 
     27 CA          1.0543  -21.0268  -42.2125 C.3       9 UNK         0.1400 
     28 CB          1.3334  -20.9787  -40.7036 C.3       9 UNK        -0.1800 
     29 N           1.8891  -20.0250  -42.8826 N.am      9 UNK        -0.5000 
     30 C           1.8803  -19.7234  -44.1882 C.2       8 UNK         0.5000 
     31 O           1.2145  -20.3344  -45.0274 O.2       8 UNK        -0.5000 
     32 CA          2.7413  -18.5130  -44.5943 C.3       8 UNK         0.1400 
     33 CB          2.7635  -18.2771  -46.1121 C.3       8 UNK        -0.1800 
     34 N           2.2510  -17.3036  -43.9359 N.am      8 UNK        -0.5000 
     35 C           2.5935  -16.9006  -42.7061 C.2       7 UNK         0.5000 
     36 O           3.3631  -17.5389  -41.9847 O.2       7 UNK        -0.5000 
     37 CA          1.9484  -15.5991  -42.1840 C.3       7 UNK         0.1400 
     38 CB          2.7974  -14.9060  -41.0985 C.3       7 UNK        -0.1800 
     39 N           1.5796  -14.6427  -43.2326 N.am      7 UNK        -0.5000 
     40 C           2.3843  -14.0297  -44.1140 C.2       6 UNK         0.5000 
     41 O           3.5954  -14.2369  -44.1970 O.2       6 UNK        -0.5000 
     42 CA          1.7423  -12.9772  -45.0359 C.3       6 UNK         0.1400 
     43 CB          1.1981  -13.6092  -46.3266 C.3       6 UNK        -0.1800 
     44 N           0.6688  -12.2438  -44.3608 N.am      6 UNK        -0.5000 
     45 C           0.5548  -10.9089  -44.3251 C.2       5 UNK         0.5000 
     46 O           1.3168  -10.1404  -44.9139 O.2       5 UNK        -0.5000 
     47 CA         -0.5997  -10.3184  -43.4857 C.3       5 UNK         0.1400 
     48 CB         -1.8076  -10.0065  -44.3827 C.3       5 UNK        -0.1800 
     49 N          -1.0373  -11.1886  -42.3929 N.am      5 UNK        -0.5000 
     50 C          -0.2900  -11.5430  -41.3388 C.2       4 UNK         0.5000 
     51 O           0.8249  -11.0733  -41.1090 O.2       4 UNK        -0.5000 
     52 CA         -0.8624  -12.6175  -40.3884 C.3       4 UNK         0.1400 
     53 CB         -1.2978  -11.9770  -39.0611 C.3       4 UNK        -0.1800 
     54 N          -1.9775  -13.4247  -40.9056 N.am      4 UNK        -0.5000 
     55 C          -1.9820  -14.1611  -42.0247 C.2       3 UNK         0.5000 
     56 O          -1.0885  -14.1261  -42.8738 O.2       3 UNK        -0.5000 
     57 CA         -3.2124  -15.0569  -42.2474 C.3       3 UNK         0.1400 
     58 CB         -4.3444  -14.2541  -42.9053 C.3       3 UNK        -0.1800 
     59 N          -2.8832  -16.2087  -43.0880 N.am      3 UNK        -0.5000 
     60 C          -2.1162  -17.2382  -42.6953 C.2       2 UNK         0.5000 
     61 O          -1.6786  -17.3610  -41.5506 O.2       2 UNK        -0.5000 
     62 CA         -1.7720  -18.3176  -43.7412 C.3       2 UNK         0.1400 
     63 CB         -2.5948  -19.5929  -43.5060 C.3       2 UNK        -0.1800 
     64 N          -1.9683  -17.8771  -45.1209 N.am      2 UNK        -0.5000 
     65 C          -1.1689  -17.0192  -45.7683 C.2       1 UNK         0.5000 
     66 O          -0.1442  -16.5467  -45.2779 O.2       1 UNK        -0.5000 
     67 C          -1.3145  -23.2110  -46.4931 C.2       11 UNK         0.5000 
     68 O          -2.2178  -23.2102  -47.3302 O.2       11 UNK        -0.5000 
     69 N          -1.5636  -23.2891  -45.1738 N.am      12 UNK        -0.5000 
     70 CA         -2.8984  -23.5447  -44.6124 C.3       12 UNK         0.1400 
     71 CB         -2.8582  -23.4356  -43.0824 C.3       12 UNK        -0.1800 
     72 C          -3.4600  -24.9186  -45.0366 C.2       12 UNK         0.5000 
     73 O          -4.6691  -25.0536  -45.2219 O.2       12 UNK        -0.5000 
     74 N          -2.5603  -25.8897  -45.2576 N.am      13 UNK        -0.5000 
     75 CA         -2.8504  -27.2111  -45.8204 C.3       13 UNK         0.1400 
     76 CB         -1.6000  -28.0916  -45.6767 C.3       13 UNK        -0.1800 
     77 C          -3.3127  -27.1689  -47.2932 C.2       13 UNK         0.5000 
     78 O          -3.9722  -28.1049  -47.7444 O.2       13 UNK        -0.5000 
     79 N          -2.9922  -26.0778  -48.0034 N.am      14 UNK        -0.5000 
     80 CA         -3.4420  -25.7762  -49.3641 C.3       14 UNK         0.1400 
     81 CB         -2.2651  -25.1732  -50.1530 C.3       14 UNK        -0.1800 
     82 C          -4.6755  -24.8454  -49.3559 C.2       14 UNK         0.5000 
     83 O          -4.9197  -24.1465  -50.3397 O.2       14 UNK        -0.5000 
     84 N          -5.4222  -24.8455  -48.2398 N.am      15 UNK        -0.5000 
     85 CA         -6.6237  -24.0548  -47.9529 C.3       15 UNK         0.1400 
     86 CB         -7.7585  -24.3737  -48.9493 C.3       15 UNK        -0.1800 
     87 C          -6.3486  -22.5435  -47.8164 C.2       15 UNK         0.5000 
     88 O          -7.2528  -21.7365  -48.0387 O.2       15 UNK        -0.5000 
     89 N          -5.1082  -22.1859  -47.4499 N.am      16 UNK        -0.5000 
     90 CA         -4.5627  -20.8447  -47.2086 C.3       16 UNK         0.1400 
     91 CB         -5.3227  -20.1094  -46.0893 C.3       16 UNK        -0.1800 
     92 C          -4.4410  -19.9703  -48.4672 C.2       16 UNK         0.5000 
     93 O          -3.4097  -19.3260  -48.6489 O.2       16 UNK        -0.5000 
     94 N          -5.4650  -19.9563  -49.3254 N.am      17 UNK        -0.5000 
     95 CA         -5.5498  -19.1880  -50.5701 C.3       17 UNK         0.1400 
     96 CB         -7.0330  -19.0379  -50.9514 C.3       17 UNK        -0.1800 
     97 C          -4.7004  -19.7838  -51.7156 C.2       17 UNK         0.5000 
     98 O          -5.1566  -19.8484  -52.8579 O.2       17 UNK        -0.5000 
     99 N          -3.4650  -20.1925  -51.4012 N.am      18 UNK        -0.5000 
    100 CA        -2.5090  -20.8174  -52.3170 C.3       18 UNK         0.1400 
    101 CB        -1.3102  -21.3247  -51.5075 C.3       18 UNK        -0.1800 
    102 C         -2.0620  -19.8965  -53.4685 C.2       18 UNK         0.5000 
    103 O         -1.6933  -20.3932  -54.5333 O.2       18 UNK        -0.5000 
    104 N         -2.1750  -18.5750  -53.2696 N.am      19 UNK        -0.5000 
    105 CA        -1.9678  -17.5416  -54.2862 C.3       19 UNK         0.1400 
    106 CB        -2.1504  -16.1596  -53.6429 C.3       19 UNK        -0.1800 
    107 C         -2.8828  -17.6849  -55.5184 C.2       19 UNK         0.5000 
    108 O         -2.4864  -17.2774  -56.6097 O.2       19 UNK        -0.5000 
    109 N         -4.0654  -18.2948  -55.3463 N.am      20 UNK        -0.5000 
    110 CA        -4.9805  -18.6219  -56.4406 C.3       20 UNK         0.1400 
    111 CB        -6.3572  -18.9806  -55.8611 C.3       20 UNK        -0.1800 
    112 C         -4.4599  -19.7600  -57.3422 C.2       20 UNK         0.5000 
    113 O         -4.8785  -19.8438  -58.4976 O.2       20 UNK        -0.5000 
    114 N         -3.5671  -20.6087  -56.8120 N.am      21 UNK        -0.5000 
    115 CA        -2.9309  -21.6982  -57.5451 C.3       21 UNK         0.1400 
    116 CB        -2.6777  -22.8875  -56.6033 C.3       21 UNK        -0.1800 
    117 C         -1.6290  -21.2278  -58.2121 C.2       21 UNK         0.5000 
    118 O         -1.4633  -21.4460  -59.4133 O.2       21 UNK        -0.5000 
    119 N         -0.7291  -20.6028  -57.4369 N.am      22 UNK        -0.5000 
    120 CA         0.5846  -20.1495  -57.9322 C.3       22 UNK         0.1400 
    121 C          0.5899  -18.7780  -58.6679 C.2       22 UNK         0.5000 
    122 N         -0.4470  -17.9560  -58.5763 N.am      22 UNK        -0.7600 
    123 O          1.5523  -18.4617  -59.3625 O.2       22 UNK        -0.5000 
    124 C124        1.7025  -20.2540  -56.8635 C.3       23 UNK        -0.0398 
    125 S125        1.4730  -19.2007  -55.3892 S.3       23 UNK        -0.2404 
    126 C126        1.6871  -20.4373  -54.0625 C.3       23 UNK        -0.0205 
    127 H127       -5.4532  -17.1323  -48.1415 H         1 UNK         0.0600 
    128 H128       -5.9746  -16.8632  -46.4749 H         1 UNK         0.0600 
    129 H129       -5.9424  -15.5205  -47.6222 H         1 UNK         0.0600 
    130 H130       -3.2321  -17.5542  -48.1106 H         1 UNK         0.3000 
    131 H131       -1.3646  -15.5581  -47.3122 H         1 UNK         0.0600 
    132 H132        0.3365  -17.2044  -48.0088 H         1 UNK         0.0800 
    133 H133       -0.8608  -18.4723  -48.1321 H         1 UNK         0.0800 
    134 H134        1.3112  -16.3030  -49.9118 H         1 UNK         0.0800 
    135 H135        0.6390  -16.1801  -51.5104 H         1 UNK         0.0800 
    136 H136        0.7524  -17.9980  -53.0482 H         1 UNK         0.1150 
    137 H137        2.6486  -21.6638  -51.8733 H         1 UNK         0.1150 
    138 H138        1.7956  -18.6588  -48.9534 H         1 UNK         0.1150 
    139 H139        2.9151  -20.6368  -48.2566 H         1 UNK         0.0800 
    140 H140        3.8937  -21.3918  -49.4869 H         1 UNK         0.0800 
    141 H141       -0.3577  -22.0845  -48.7738 H         1 UNK         0.0800 
    142 H142        0.6131  -21.2033  -47.6205 H         1 UNK         0.0800 
    143 H143        0.2283  -24.2214  -47.4667 H         1 UNK         0.0600 
    144 H144        1.3641  -22.2792  -45.5440 H         1 UNK         0.3000 
    145 H145        2.4730  -24.8453  -43.3738 H         1 UNK         0.0600 
    146 H146        4.2709  -24.9745  -45.1091 H         1 UNK         0.0600 
    147 H147        4.7505  -23.9355  -43.7768 H         1 UNK         0.0600 
    148 H148        4.2246  -23.2266  -45.3049 H         1 UNK         0.0600 
    149 H149        3.0620  -22.0648  -43.4422 H         1 UNK         0.3000 
    150 H150        0.0141  -20.7390  -42.3735 H         1 UNK         0.0600 
    151 H151        2.3734  -21.2193  -40.4800 H         1 UNK         0.0600 
    152 H152        0.7073  -21.6922  -40.1660 H         1 UNK         0.0600 
    153 H153        1.1211  -19.9905  -40.2949 H         1 UNK         0.0600 
    154 H154        2.4641  -19.4453  -42.2814 H         1 UNK         0.3000 
    155 H155        3.7672  -18.7100  -44.2764 H         1 UNK         0.0600 
    156 H156        1.7575  -18.1850  -46.5173 H         1 UNK         0.0600 
    157 H157        3.2537  -19.1059  -46.6202 H         1 UNK         0.0600 
    158 H158        3.3131  -17.3703  -46.3657 H         1 UNK         0.0600 
    159 H159        1.5292  -16.7868  -44.4334 H         1 UNK         0.3000 
    160 H160        1.0089  -15.9023  -41.7194 H         1 UNK         0.0600 
    161 H161        3.7872  -14.6394  -41.4703 H         1 UNK         0.0600 
    162 H162        2.9365  -15.5559  -40.2339 H         1 UNK         0.0600 
    163 H163        2.3173  -13.9942  -40.7434 H         1 UNK         0.0600 
    164 H164        0.5807  -14.4475  -43.2719 H         1 UNK         0.3000 
    165 H165        2.5468  -12.2930  -45.3138 H         1 UNK         0.0600 
    166 H166        1.9190  -14.2975  -46.7702 H         1 UNK         0.0600 
    167 H167        0.2789  -14.1618  -46.1407 H         1 UNK         0.0600 
    168 H168        0.9759  -12.8439  -47.0702 H         1 UNK         0.0600 
    169 H169       -0.0019  -12.7982  -43.8384 H         1 UNK         0.3000 
    170 H170       -0.2443   -9.3827  -43.0492 H         1 UNK         0.0600 
    171 H171       -2.6022   -9.5168  -43.8194 H         1 UNK         0.0600 
    172 H172       -2.2202  -10.9121  -44.8298 H         1 UNK         0.0600 
    173 H173       -1.5276   -9.3365  -45.1967 H         1 UNK         0.0600 
    174 H174       -1.9371  -11.6323  -42.5016 H         1 UNK         0.3000 
    175 H175       -0.0452  -13.3094  -40.1767 H         1 UNK         0.0600 
    176 H176       -0.4864  -11.3975  -38.6183 H         1 UNK         0.0600 
    177 H177       -2.1441  -11.3031  -39.2003 H         1 UNK         0.0600 
    178 H178       -1.5862  -12.7342  -38.3317 H         1 UNK         0.0600 
    179 H179       -2.7781  -13.4915  -40.2936 H         1 UNK         0.3000 
    180 H180       -3.5605  -15.4266  -41.2807 H         1 UNK         0.0600 
    181 H181       -4.0195  -13.7885  -43.8364 H         1 UNK         0.0600 
    182 H182       -4.6917  -13.4567  -42.2474 H         1 UNK         0.0600 
    183 H183       -5.2030  -14.8877  -43.1287 H         1 UNK         0.0600 
    184 H184       -3.1435  -16.1361  -44.0631 H         1 UNK         0.3000 
    185 H185       -0.7184  -18.5655  -43.6084 H         1 UNK         0.0600 
    186 H186       -2.4318  -19.9810  -42.4999 H         1 UNK         0.0600 
    187 H187       -3.6638  -19.4085  -43.6141 H         1 UNK         0.0600 
    188 H188       -2.3124  -20.3783  -44.2077 H         1 UNK         0.0600 
    189 H189       -2.7885  -18.2147  -45.5999 H         1 UNK         0.3000 
    190 H190       -0.7890  -23.2988  -44.5208 H         1 UNK         0.3000 
    191 H191       -3.5753  -22.7753  -44.9875 H         1 UNK         0.0600 
    192 H192       -2.4575  -22.4751  -42.7608 H         1 UNK         0.0600 
    193 H193       -3.8594  -23.5280  -42.6599 H         1 UNK         0.0600 
    194 H194       -2.2433  -24.2198  -42.6391 H         1 UNK         0.0600 
    195 H195       -1.5875  -25.6881  -45.0744 H         1 UNK         0.3000 
    196 H196       -3.6569  -27.6583  -45.2357 H         1 UNK         0.0600 
    197 H197       -1.7804  -29.0953  -46.0642 H         1 UNK         0.0600 
    198 H198       -1.3088  -28.1960  -44.6313 H         1 UNK         0.0600 
    199 H199       -0.7509  -27.6761  -46.2214 H         1 UNK         0.0600 
    200 H200       -2.4950  -25.3282  -47.5410 H         1 UNK         0.3000 
    201 H201       -3.7431  -26.6964  -49.8683 H         1 UNK         0.0600 
    202 H202       -2.5353  -25.0018  -51.1956 H         1 UNK         0.0600 
    203 H203       -1.4047  -25.8424  -50.1492 H         1 UNK         0.0600 
    204 H204       -1.9462  -24.2182  -49.7370 H         1 UNK         0.0600 
    205 H205       -5.1111  -25.4275  -47.4730 H         1 UNK         0.3000 
    206 H206       -6.9596  -24.3797  -46.9672 H         1 UNK         0.0600 
    207 H207       -7.9256  -25.4480  -49.0269 H         1 UNK         0.0600 
    208 H208       -8.6984  -23.9237  -48.6278 H         1 UNK         0.0600 
    209 H209       -7.5424  -23.9934  -49.9480 H         1 UNK         0.0600 
    210 H210       -4.4209  -22.9261  -47.3786 H         1 UNK         0.3000 
    211 H211       -3.5451  -20.9991  -46.8492 H         1 UNK         0.0600 
    212 H212       -4.8387  -19.1637  -45.8465 H         1 UNK         0.0600 
    213 H213       -5.3507  -20.7043  -45.1764 H         1 UNK         0.0600 
    214 H214       -6.3504  -19.8808  -46.3721 H         1 UNK         0.0600 
    215 H215       -6.2670  -20.5351  -49.0901 H         1 UNK         0.3000 
    216 H216       -5.1553  -18.1876  -50.3824 H         1 UNK         0.0600 
    217 H217       -7.6011  -18.5709  -50.1466 H         1 UNK         0.0600 
    218 H218       -7.4897  -20.0046  -51.1670 H         1 UNK         0.0600 
    219 H219       -7.1525  -18.4108  -51.8359 H         1 UNK         0.0600 
    220 H220       -3.1598  -20.0535  -50.4434 H         1 UNK         0.3000 
    221 H221       -3.0012  -21.6803  -52.7702 H         1 UNK         0.0600 
    222 H222       -0.8105  -20.5133  -50.9772 H         1 UNK         0.0600 
    223 H223       -1.6259  -22.0625  -50.7714 H         1 UNK         0.0600 
    224 H224       -0.5740  -21.8059  -52.1518 H         1 UNK         0.0600 
    225 H225       -2.4704  -18.2593  -52.3576 H         1 UNK         0.3000 
    226 H226       -0.9397  -17.6219  -54.6406 H         1 UNK         0.0600 
    227 H227       -1.4248  -15.9956  -52.8475 H         1 UNK         0.0600 
    228 H228       -2.0084  -15.3645  -54.3761 H         1 UNK         0.0600 
    229 H229       -3.1481  -16.0419  -53.2183 H         1 UNK         0.0600 
    230 H230       -4.3198  -18.6386  -54.4273 H         1 UNK         0.3000 
    231 H231       -5.0975  -17.7331  -57.0643 H         1 UNK         0.0600 
    232 H232       -6.3186  -19.8961  -55.2698 H         1 UNK         0.0600 
    233 H233       -7.0855  -19.1378  -56.6576 H         1 UNK         0.0600 
    234 H234       -6.7395  -18.1839  -55.2228 H         1 UNK         0.0600 
    235 H235       -3.2224  -20.4411  -55.8740 H         1 UNK         0.3000 
    236 H236       -3.6034  -22.0477  -58.3316 H         1 UNK         0.0600 
    237 H237       -3.6051  -23.2284  -56.1428 H         1 UNK         0.0600 
    238 H238       -2.2580  -23.7315  -57.1517 H         1 UNK         0.0600 
    239 H239       -1.9792  -22.6414  -55.8039 H         1 UNK         0.0600 
    240 H240       -0.9291  -20.4490  -56.4538 H         1 UNK         0.3000 
    241 H241        0.8857  -20.8579  -58.7068 H         1 UNK         0.0600 
    242 H242       -1.2212  -18.1378  -57.9494 H         1 UNK         0.3800 
    243 H243       -0.4187  -17.0801  -59.0726 H         1 UNK         0.3800 
    244 H244        2.6703  -20.0081  -57.3039 H         1 UNK         0.0800 
    245 H245        1.7884  -21.2956  -56.5514 H         1 UNK         0.0800 
    246 H246        0.8877  -21.1751  -54.1374 H         1 UNK         0.0800 
    247 H247        2.6213  -20.9702  -54.2469 H         1 UNK         0.0800 
@<TRIPOS>BOND
     1    1    2 1    
     2    1  127 1    
     3    1  128 1    
     4    1  129 1    
     5    2    3 2    
     6    2    4 am   BACKBONE|DICT|INTERRES
     7    4    5 1    
     8    4  130 1    
     9    5    6 1    
    10    5   65 1    
    11    5  131 1    
    12    6    7 1    
    13    6  132 1    
    14    6  133 1    
    15    7    8 1    
    16    8    9 1    
    17    8  134 1    
    18    8  135 1    
    19    9   10 ar   
    20    9   14 ar   
    21   10   11 ar   
    22   10  136 1    
    23   11   12 ar   
    24   11  126 1    
    25   12   13 ar   
    26   12  137 1    
    27   13   14 ar   
    28   13   15 1    
    29   14  138 1    
    30   15   16 1    
    31   15  139 1    
    32   15  140 1    
    33   16   17 1    
    34   17   18 1    
    35   17  141 1    
    36   17  142 1    
    37   18   19 1    
    38   18   67 1    
    39   18  143 1    
    40   19   20 am   BACKBONE|DICT|INTERRES
    41   19  144 1    
    42   20   21 2    
    43   20   22 1    
    44   22   23 1    
    45   22   24 1    
    46   22  145 1    
    47   23  146 1    
    48   23  147 1    
    49   23  148 1    
    50   24   25 am   BACKBONE|DICT|INTERRES
    51   24  149 1    
    52   25   26 2    
    53   25   27 1    
    54   27   28 1    
    55   27   29 1    
    56   27  150 1    
    57   28  151 1    
    58   28  152 1    
    59   28  153 1    
    60   29   30 am   BACKBONE|DICT|INTERRES
    61   29  154 1    
    62   30   31 2    
    63   30   32 1    
    64   32   33 1    
    65   32   34 1    
    66   32  155 1    
    67   33  156 1    
    68   33  157 1    
    69   33  158 1    
    70   34   35 am   BACKBONE|DICT|INTERRES
    71   34  159 1    
    72   35   36 2    
    73   35   37 1    
    74   37   38 1    
    75   37   39 1    
    76   37  160 1    
    77   38  161 1    
    78   38  162 1    
    79   38  163 1    
    80   39   40 am   BACKBONE|DICT|INTERRES
    81   39  164 1    
    82   40   41 2    
    83   40   42 1    
    84   42   43 1    
    85   42   44 1    
    86   42  165 1    
    87   43  166 1    
    88   43  167 1    
    89   43  168 1    
    90   44   45 am   BACKBONE|DICT|INTERRES
    91   44  169 1    
    92   45   46 2    
    93   45   47 1    
    94   47   48 1    
    95   47   49 1    
    96   47  170 1    
    97   48  171 1    
    98   48  172 1    
    99   48  173 1    
   100   49   50 am   BACKBONE|DICT|INTERRES
   101   49  174 1    
   102   50   51 2    
   103   50   52 1    
   104   52   53 1    
   105   52   54 1    
   106   52  175 1    
   107   53  176 1    
   108   53  177 1    
   109   53  178 1    
   110   54   55 am   BACKBONE|DICT|INTERRES
   111   54  179 1    
   112   55   56 2    
   113   55   57 1    
   114   57   58 1    
   115   57   59 1    
   116   57  180 1    
   117   58  181 1    
   118   58  182 1    
   119   58  183 1    
   120   59   60 am   BACKBONE|DICT|INTERRES
   121   59  184 1    
   122   60   61 2    
   123   60   62 1    
   124   62   63 1    
   125   62   64 1    
   126   62  185 1    
   127   63  186 1    
   128   63  187 1    
   129   63  188 1    
   130   64   65 am   BACKBONE|DICT|INTERRES
   131   64  189 1    
   132   65   66 2    
   133   67   68 2    
   134   67   69 am   BACKBONE|DICT|INTERRES
   135   69   70 1    
   136   69  190 1    
   137   70   71 1    
   138   70   72 1    
   139   70  191 1    
   140   71  192 1    
   141   71  193 1    
   142   71  194 1    
   143   72   73 2    
   144   72   74 am   BACKBONE|DICT|INTERRES
   145   74   75 1    
   146   74  195 1    
   147   75   76 1    
   148   75   77 1    
   149   75  196 1    
   150   76  197 1    
   151   76  198 1    
   152   76  199 1    
   153   77   78 2    
   154   77   79 am   BACKBONE|DICT|INTERRES
   155   79   80 1    
   156   79  200 1    
   157   80   81 1    
   158   80   82 1    
   159   80  201 1    
   160   81  202 1    
   161   81  203 1    
   162   81  204 1    
   163   82   83 2    
   164   82   84 am   BACKBONE|DICT|INTERRES
   165   84   85 1    
   166   84  205 1    
   167   85   86 1    
   168   85   87 1    
   169   85  206 1    
   170   86  207 1    
   171   86  208 1    
   172   86  209 1    
   173   87   88 2    
   174   87   89 am   BACKBONE|DICT|INTERRES
   175   89   90 1    
   176   89  210 1    
   177   90   91 1    
   178   90   92 1    
   179   90  211 1    
   180   91  212 1    
   181   91  213 1    
   182   91  214 1    
   183   92   93 2    
   184   92   94 am   BACKBONE|DICT|INTERRES
   185   94   95 1    
   186   94  215 1    
   187   95   96 1    
   188   95   97 1    
   189   95  216 1    
   190   96  217 1    
   191   96  218 1    
   192   96  219 1    
   193   97   98 2    
   194   97   99 am   BACKBONE|DICT|INTERRES
   195   99  100 1    
   196   99  220 1    
   197  100  101 1    
   198  100  102 1    
   199  100  221 1    
   200  101  222 1    
   201  101  223 1    
   202  101  224 1    
   203  102  103 2    
   204  102  104 am   BACKBONE|DICT|INTERRES
   205  104  105 1    
   206  104  225 1    
   207  105  106 1    
   208  105  107 1    
   209  105  226 1    
   210  106  227 1    
   211  106  228 1    
   212  106  229 1    
   213  107  108 2    
   214  107  109 am   BACKBONE|DICT|INTERRES
   215  109  110 1    
   216  109  230 1    
   217  110  111 1    
   218  110  112 1    
   219  110  231 1    
   220  111  232 1    
   221  111  233 1    
   222  111  234 1    
   223  112  113 2    
   224  112  114 am   BACKBONE|DICT|INTERRES
   225  114  115 1    
   226  114  235 1    
   227  115  116 1    
   228  115  117 1    
   229  115  236 1    
   230  116  237 1    
   231  116  238 1    
   232  116  239 1    
   233  117  118 2    
   234  117  119 am   BACKBONE|DICT|INTERRES
   235  119  120 1    
   236  119  240 1    
   237  120  121 1    
   238  120  124 1    
   239  120  241 1    
   240  121  122 am   BACKBONE|DICT|INTERRES
   241  121  123 2    
   242  122  242 1    
   243  122  243 1    
   244  124  125 1    
   245  124  244 1    
   246  124  245 1    
   247  125  126 1    
   248  126  246 1    
   249  126  247 1    
@<TRIPOS>SUBSTRUCTURE
     1 UNK         1 GROUP             0       ****    0 ROOT    
