@<TRIPOS>MOLECULE
3R540
247   249    1
SMALL
USER_CHARGES


@<TRIPOS>ATOM
      1 CA          3.6950  -17.1064  -46.7561 C.3       0 UNK        -0.1800 
      2 C           2.9682  -16.0769  -47.6089 C.2       0 UNK         0.5000 
      3 O           1.7737  -15.8569  -47.4279 O.2       0 UNK        -0.5000 
      4 N           3.6872  -15.4270  -48.5323 N.am      1 UNK        -0.5000 
      5 CA          3.1207  -14.4486  -49.4726 C.3       1 UNK         0.1400 
      6 C6          4.0078  -14.2403  -50.7292 C.3       23 UNK        -0.0398 
      7 S7          4.5331  -15.7895  -51.5469 S.3       23 UNK        -0.2404 
      8 C8          3.1860  -16.0825  -52.7394 C.3       23 UNK        -0.0205 
      9 C9          1.8976  -16.4804  -52.0374 C.ar      23 UNK        -0.0193 
     10 C10         0.8204  -15.5918  -51.9786 C.ar      23 UNK        -0.1150 
     11 C11        -0.3408  -15.9331  -51.2794 C.ar      23 UNK        -0.0193 
     12 C12        -0.4180  -17.1728  -50.6393 C.ar      23 UNK        -0.1150 
     13 C13         0.6345  -18.0878  -50.7281 C.ar      23 UNK        -0.0193 
     14 C14         1.7905  -17.7341  -51.4284 C.ar      23 UNK        -0.1150 
     15 C15         0.5214  -19.4630  -50.0885 C.3       23 UNK        -0.0205 
     16 S16         1.3556  -19.5178  -48.4715 S.3       23 UNK        -0.2404 
     17 C17         0.0447  -20.1787  -47.3898 C.3       23 UNK        -0.0398 
     18 CA          0.0482  -21.7193  -47.3193 C.3       11 UNK         0.1400 
     19 N           1.3161  -22.2594  -46.8287 N.am      11 UNK        -0.5000 
     20 C           1.6994  -23.5340  -46.9766 C.2       10 UNK         0.5000 
     21 O           1.0276  -24.3768  -47.5699 O.2       10 UNK        -0.5000 
     22 CA          3.0402  -23.9462  -46.3391 C.3       10 UNK         0.1400 
     23 CB          4.1558  -23.9505  -47.3947 C.3       10 UNK        -0.1800 
     24 N           3.4400  -23.0832  -45.2251 N.am      10 UNK        -0.5000 
     25 C           2.8052  -23.0116  -44.0474 C.2       9 UNK         0.5000 
     26 O           1.8390  -23.7208  -43.7604 O.2       9 UNK        -0.5000 
     27 CA          3.3256  -21.9751  -43.0246 C.3       9 UNK         0.1400 
     28 CB          4.2942  -20.9329  -43.6306 C.3       9 UNK        -0.1800 
     29 N           2.2495  -21.2843  -42.3032 N.am      9 UNK        -0.5000 
     30 C           1.2394  -20.5823  -42.8379 C.2       8 UNK         0.5000 
     31 O           1.0204  -20.5116  -44.0497 O.2       8 UNK        -0.5000 
     32 CA          0.3305  -19.8456  -41.8356 C.3       8 UNK         0.1400 
     33 CB          1.1203  -18.7914  -41.0382 C.3       8 UNK        -0.1800 
     34 N          -0.7607  -19.1658  -42.5313 N.am      8 UNK        -0.5000 
     35 C          -2.0648  -19.2748  -42.2433 C.2       7 UNK         0.5000 
     36 O          -2.4983  -20.0030  -41.3496 O.2       7 UNK        -0.5000 
     37 CA         -3.0669  -18.4231  -43.0545 C.3       7 UNK         0.1400 
     38 CB         -3.9146  -17.5389  -42.1251 C.3       7 UNK        -0.1800 
     39 N          -2.4184  -17.5607  -44.0406 N.am      7 UNK        -0.5000 
     40 C          -2.1090  -17.9257  -45.2917 C.2       6 UNK         0.5000 
     41 O          -2.4312  -19.0089  -45.7767 O.2       6 UNK        -0.5000 
     42 CA         -1.2868  -16.9273  -46.1362 C.3       6 UNK         0.1400 
     43 CB         -2.1889  -16.2106  -47.1507 C.3       6 UNK        -0.1800 
     44 N          -0.5751  -15.9249  -45.3395 N.am      6 UNK        -0.5000 
     45 C           0.3959  -16.1913  -44.4508 C.2       5 UNK         0.5000 
     46 O           0.8238  -17.3247  -44.2419 O.2       5 UNK        -0.5000 
     47 CA          0.9468  -15.0231  -43.6043 C.3       5 UNK         0.1400 
     48 CB          2.3598  -14.6390  -44.0641 C.3       5 UNK        -0.1800 
     49 N           0.0983  -13.8290  -43.6050 N.am      5 UNK        -0.5000 
     50 C          -1.1634  -13.7782  -43.1509 C.2       4 UNK         0.5000 
     51 O          -1.7240  -14.7267  -42.5995 O.2       4 UNK        -0.5000 
     52 CA         -1.9548  -12.4790  -43.4055 C.3       4 UNK         0.1400 
     53 CB         -2.0046  -11.6230  -42.1312 C.3       4 UNK        -0.1800 
     54 N          -1.4365  -11.6611  -44.5068 N.am      4 UNK        -0.5000 
     55 C          -1.3135  -12.0434  -45.7867 C.2       3 UNK         0.5000 
     56 O          -1.6412  -13.1556  -46.1994 O.2       3 UNK        -0.5000 
     57 CA         -0.6879  -11.0287  -46.7657 C.3       3 UNK         0.1400 
     58 CB         -0.8373   -9.5604  -46.3098 C.3       3 UNK        -0.1800 
     59 N           0.7194  -11.3187  -47.0625 N.am      3 UNK        -0.5000 
     60 C           1.7301  -11.4784  -46.1968 C.2       2 UNK         0.5000 
     61 O           1.5876  -11.5043  -44.9723 O.2       2 UNK        -0.5000 
     62 CA          3.1381  -11.6261  -46.8146 C.3       2 UNK         0.1400 
     63 CB          4.2559  -11.5783  -45.7571 C.3       2 UNK        -0.1800 
     64 N           3.2923  -12.8534  -47.5955 N.am      2 UNK        -0.5000 
     65 C           2.7881  -13.0891  -48.8147 C.2       1 UNK         0.5000 
     66 O           2.0959  -12.2737  -49.4269 O.2       1 UNK        -0.5000 
     67 C          -1.1467  -22.2541  -46.5035 C.2       11 UNK         0.5000 
     68 O          -2.1982  -22.5138  -47.0883 O.2       11 UNK        -0.5000 
     69 N          -0.9570  -22.4919  -45.1955 N.am      12 UNK        -0.5000 
     70 CA         -1.9345  -23.1580  -44.3284 C.3       12 UNK         0.1400 
     71 CB         -1.4603  -23.1456  -42.8700 C.3       12 UNK        -0.1800 
     72 C          -2.2296  -24.5987  -44.7782 C.2       12 UNK         0.5000 
     73 O          -3.3951  -24.9940  -44.8149 O.2       12 UNK        -0.5000 
     74 N          -1.1753  -25.3281  -45.1732 N.am      13 UNK        -0.5000 
     75 CA         -1.2565  -26.6772  -45.7411 C.3       13 UNK         0.1400 
     76 CB          0.1497  -27.2919  -45.8058 C.3       13 UNK        -0.1800 
     77 C          -1.9434  -26.7146  -47.1223 C.2       13 UNK         0.5000 
     78 O          -2.5253  -27.7383  -47.4800 O.2       13 UNK        -0.5000 
     79 N          -1.9239  -25.5847  -47.8427 N.am      14 UNK        -0.5000 
     80 CA         -2.6656  -25.3391  -49.0808 C.3       14 UNK         0.1400 
     81 CB         -1.8455  -24.3951  -49.9787 C.3       14 UNK        -0.1800 
     82 C          -4.0867  -24.7940  -48.8093 C.2       14 UNK         0.5000 
     83 O          -4.6162  -24.0414  -49.6296 O.2       14 UNK        -0.5000 
     84 N          -4.6758  -25.1787  -47.6665 N.am      15 UNK        -0.5000 
     85 CA         -6.0202  -24.8450  -47.1884 C.3       15 UNK         0.1400 
     86 CB         -7.0895  -25.4836  -48.0999 C.3       15 UNK        -0.1800 
     87 C          -6.2166  -23.3305  -46.9811 C.2       15 UNK         0.5000 
     88 O          -7.2007  -22.7635  -47.4553 O.2       15 UNK        -0.5000 
     89 N          -5.2471  -22.6997  -46.3015 N.am      16 UNK        -0.5000 
     90 CA         -5.1334  -21.2501  -46.0778 C.3       16 UNK         0.1400 
     91 CB         -6.2254  -20.7499  -45.1109 C.3       16 UNK        -0.1800 
     92 C          -5.0868  -20.4728  -47.4100 C.2       16 UNK         0.5000 
     93 O          -5.8324  -19.5130  -47.6119 O.2       16 UNK        -0.5000 
     94 N          -4.2244  -20.9678  -48.3060 N.am      17 UNK        -0.5000 
     95 CA         -3.9594  -20.5245  -49.6727 C.3       17 UNK         0.1400 
     96 CB         -3.4705  -19.0661  -49.6974 C.3       17 UNK        -0.1800 
     97 C          -5.1045  -20.7515  -50.6775 C.2       17 UNK         0.5000 
     98 O          -4.9608  -20.3325  -51.8256 O.2       17 UNK        -0.5000 
     99 N          -6.1925  -21.4315  -50.2884 N.am      18 UNK        -0.5000 
    100 CA        -7.3245  -21.7245  -51.1725 C.3       18 UNK         0.1400 
    101 CB        -8.4990  -22.2820  -50.3573 C.3       18 UNK        -0.1800 
    102 C         -6.9652  -22.6757  -52.3301 C.2       18 UNK         0.5000 
    103 O         -7.5030  -22.5161  -53.4264 O.2       18 UNK        -0.5000 
    104 N         -6.0503  -23.6243  -52.0825 N.am      19 UNK        -0.5000 
    105 CA        -5.5254  -24.5333  -53.1031 C.3       19 UNK         0.1400 
    106 CB        -5.0500  -25.8323  -52.4343 C.3       19 UNK        -0.1800 
    107 C         -4.3842  -23.8953  -53.9181 C.2       19 UNK         0.5000 
    108 O         -4.1950  -24.2606  -55.0788 O.2       19 UNK        -0.5000 
    109 N         -3.6422  -22.9635  -53.3018 N.am      20 UNK        -0.5000 
    110 CA        -2.5319  -22.2418  -53.9283 C.3       20 UNK         0.1400 
    111 CB        -1.6168  -21.6631  -52.8353 C.3       20 UNK        -0.1800 
    112 C         -3.0082  -21.1169  -54.8644 C.2       20 UNK         0.5000 
    113 O         -2.3381  -20.8288  -55.8575 O.2       20 UNK        -0.5000 
    114 N         -4.1238  -20.4671  -54.4969 N.am      21 UNK        -0.5000 
    115 CA        -4.7466  -19.3056  -55.1456 C.3       21 UNK         0.1400 
    116 CB        -5.3192  -19.7005  -56.5221 C.3       21 UNK        -0.1800 
    117 C         -3.8200  -18.0698  -55.2172 C.2       21 UNK         0.5000 
    118 O         -4.0092  -17.2079  -56.0772 O.2       21 UNK        -0.5000 
    119 N         -2.8207  -18.0260  -54.3246 N.am      22 UNK        -0.5000 
    120 CA        -1.7010  -17.0700  -54.3005 C.3       22 UNK         0.1400 
    121 C         -0.7731  -17.1322  -55.5547 C.2       22 UNK         0.5000 
    122 N         -0.7533  -18.2269  -56.3087 N.am      22 UNK        -0.7600 
    123 O         -0.0359  -16.1921  -55.8389 O.2       22 UNK        -0.5000 
    124 C124       -2.1391  -15.6250  -53.9243 C.3       23 UNK        -0.0398 
    125 S125       -2.9094  -15.5464  -52.2677 S.3       23 UNK        -0.2404 
    126 C126       -1.5207  -14.9730  -51.2326 C.3       23 UNK        -0.0205 
    127 H127        4.1694  -16.6237  -45.9022 H         1 UNK         0.0600 
    128 H128        4.4610  -17.6249  -47.3330 H         1 UNK         0.0600 
    129 H129        2.9934  -17.8515  -46.3788 H         1 UNK         0.0600 
    130 H130        4.6638  -15.6503  -48.6616 H         1 UNK         0.3000 
    131 H131        2.1635  -14.8477  -49.8051 H         1 UNK         0.0600 
    132 H132        4.9146  -13.6956  -50.4606 H         1 UNK         0.0800 
    133 H133        3.4905  -13.6172  -51.4610 H         1 UNK         0.0800 
    134 H134        3.4830  -16.8826  -53.4188 H         1 UNK         0.0800 
    135 H135        3.0407  -15.1951  -53.3575 H         1 UNK         0.0800 
    136 H136        0.8922  -14.6283  -52.4635 H         1 UNK         0.1150 
    137 H137       -1.3098  -17.4255  -50.0893 H         1 UNK         0.1150 
    138 H138        2.6180  -18.4277  -51.4817 H         1 UNK         0.1150 
    139 H139       -0.5265  -19.7493  -49.9992 H         1 UNK         0.0800 
    140 H140        0.9766  -20.2089  -50.7416 H         1 UNK         0.0800 
    141 H141        0.1897  -19.7560  -46.3952 H         1 UNK         0.0800 
    142 H142       -0.9203  -19.8125  -47.7381 H         1 UNK         0.0800 
    143 H143       -0.0864  -22.0848  -48.3396 H         1 UNK         0.0600 
    144 H144        1.9032  -21.6241  -46.3074 H         1 UNK         0.3000 
    145 H145        2.9235  -24.9631  -45.9584 H         1 UNK         0.0600 
    146 H146        5.0958  -24.3092  -46.9749 H         1 UNK         0.0600 
    147 H147        3.9019  -24.6073  -48.2280 H         1 UNK         0.0600 
    148 H148        4.3273  -22.9537  -47.8032 H         1 UNK         0.0600 
    149 H149        4.2269  -22.4717  -45.3875 H         1 UNK         0.3000 
    150 H150        3.8780  -22.5451  -42.2764 H         1 UNK         0.0600 
    151 H151        5.1936  -21.4039  -44.0286 H         1 UNK         0.0600 
    152 H152        4.6226  -20.2213  -42.8728 H         1 UNK         0.0600 
    153 H153        3.8275  -20.3617  -44.4346 H         1 UNK         0.0600 
    154 H154        2.3151  -21.3299  -41.2965 H         1 UNK         0.3000 
    155 H155       -0.0607  -20.5903  -41.1401 H         1 UNK         0.0600 
    156 H156        0.4684  -18.2453  -40.3560 H         1 UNK         0.0600 
    157 H157        1.5968  -18.0640  -41.6966 H         1 UNK         0.0600 
    158 H158        1.9035  -19.2501  -40.4343 H         1 UNK         0.0600 
    159 H159       -0.4630  -18.5982  -43.3190 H         1 UNK         0.3000 
    160 H160       -3.7397  -19.1159  -43.5642 H         1 UNK         0.0600 
    161 H161       -3.2943  -16.8451  -41.5561 H         1 UNK         0.0600 
    162 H162       -4.4749  -18.1419  -41.4096 H         1 UNK         0.0600 
    163 H163       -4.6396  -16.9534  -42.6908 H         1 UNK         0.0600 
    164 H164       -2.1146  -16.6522  -43.7105 H         1 UNK         0.3000 
    165 H165       -0.5377  -17.4934  -46.6908 H         1 UNK         0.0600 
    166 H166       -2.9293  -15.5822  -46.6546 H         1 UNK         0.0600 
    167 H167       -1.6011  -15.5780  -47.8161 H         1 UNK         0.0600 
    168 H168       -2.7303  -16.9227  -47.7722 H         1 UNK         0.0600 
    169 H169       -0.8557  -14.9610  -45.4825 H         1 UNK         0.3000 
    170 H170        1.0107  -15.3777  -42.5736 H         1 UNK         0.0600 
    171 H171        3.0360  -15.4919  -43.9985 H         1 UNK         0.0600 
    172 H172        2.3607  -14.2965  -45.0987 H         1 UNK         0.0600 
    173 H173        2.7763  -13.8446  -43.4447 H         1 UNK         0.0600 
    174 H174        0.4846  -13.0014  -44.0480 H         1 UNK         0.3000 
    175 H175       -2.9748  -12.7694  -43.6646 H         1 UNK         0.0600 
    176 H176       -1.0113  -11.2780  -41.8408 H         1 UNK         0.0600 
    177 H177       -2.6391  -10.7471  -42.2678 H         1 UNK         0.0600 
    178 H178       -2.4130  -12.1907  -41.2940 H         1 UNK         0.0600 
    179 H179       -1.0948  -10.7445  -44.2571 H         1 UNK         0.3000 
    180 H180       -1.2318  -11.1380  -47.7051 H         1 UNK         0.0600 
    181 H181       -1.8779   -9.3210  -46.0865 H         1 UNK         0.0600 
    182 H182       -0.2452   -9.3390  -45.4211 H         1 UNK         0.0600 
    183 H183       -0.5141   -8.8772  -47.0953 H         1 UNK         0.0600 
    184 H184        0.9500  -11.4131  -48.0471 H         1 UNK         0.3000 
    185 H185        3.2839  -10.7737  -47.4815 H         1 UNK         0.0600 
    186 H186        4.1941  -10.6654  -45.1633 H         1 UNK         0.0600 
    187 H187        4.1996  -12.4221  -45.0689 H         1 UNK         0.0600 
    188 H188        5.2408  -11.5926  -46.2240 H         1 UNK         0.0600 
    189 H189        3.8230  -13.5948  -47.1631 H         1 UNK         0.3000 
    190 H190       -0.0748  -22.2196  -44.7768 H         1 UNK         0.3000 
    191 H191       -2.8654  -22.5924  -44.3789 H         1 UNK         0.0600 
    192 H192       -2.2078  -23.5946  -42.2148 H         1 UNK         0.0600 
    193 H193       -1.2987  -22.1303  -42.5203 H         1 UNK         0.0600 
    194 H194       -0.5332  -23.7012  -42.7345 H         1 UNK         0.0600 
    195 H195       -0.2556  -24.9133  -45.1155 H         1 UNK         0.3000 
    196 H196       -1.8585  -27.2857  -45.0630 H         1 UNK         0.0600 
    197 H197        0.1063  -28.3236  -46.1568 H         1 UNK         0.0600 
    198 H198        0.6221  -27.3031  -44.8233 H         1 UNK         0.0600 
    199 H199        0.8021  -26.7449  -46.4857 H         1 UNK         0.0600 
    200 H200       -1.4193  -24.7927  -47.4680 H         1 UNK         0.3000 
    201 H201       -2.7854  -26.2823  -49.6171 H         1 UNK         0.0600 
    202 H202       -0.8288  -24.7636  -50.1163 H         1 UNK         0.0600 
    203 H203       -1.7835  -23.3906  -49.5619 H         1 UNK         0.0600 
    204 H204       -2.2944  -24.3108  -50.9683 H         1 UNK         0.0600 
    205 H205       -4.1327  -25.7563  -47.0399 H         1 UNK         0.3000 
    206 H206       -6.1178  -25.2987  -46.2011 H         1 UNK         0.0600 
    207 H207       -6.9654  -26.5653  -48.1494 H         1 UNK         0.0600 
    208 H208       -8.0944  -25.2903  -47.7230 H         1 UNK         0.0600 
    209 H209       -7.0404  -25.0980  -49.1180 H         1 UNK         0.0600 
    210 H210       -4.4606  -23.2580  -45.9966 H         1 UNK         0.3000 
    211 H211       -4.1706  -21.0805  -45.5962 H         1 UNK         0.0600 
    212 H212       -7.2239  -20.8506  -45.5370 H         1 UNK         0.0600 
    213 H213       -6.0771  -19.6964  -44.8707 H         1 UNK         0.0600 
    214 H214       -6.2029  -21.3031  -44.1722 H         1 UNK         0.0600 
    215 H215       -3.6491  -21.7460  -47.9921 H         1 UNK         0.3000 
    216 H216       -3.1365  -21.1520  -50.0158 H         1 UNK         0.0600 
    217 H217       -4.2677  -18.3648  -49.4499 H         1 UNK         0.0600 
    218 H218       -3.0976  -18.7953  -50.6858 H         1 UNK         0.0600 
    219 H219       -2.6619  -18.9177  -48.9849 H         1 UNK         0.0600 
    220 H220       -6.2455  -21.7808  -49.3398 H         1 UNK         0.3000 
    221 H221       -7.6470  -20.7797  -51.6152 H         1 UNK         0.0600 
    222 H222       -8.2560  -23.2445  -49.9087 H         1 UNK         0.0600 
    223 H223       -8.7836  -21.5999  -49.5560 H         1 UNK         0.0600 
    224 H224       -9.3766  -22.4283  -50.9882 H         1 UNK         0.0600 
    225 H225       -5.6469  -23.6975  -51.1502 H         1 UNK         0.3000 
    226 H226       -6.3279  -24.7920  -53.7973 H         1 UNK         0.0600 
    227 H227       -5.8397  -26.2789  -51.8299 H         1 UNK         0.0600 
    228 H228       -4.7561  -26.5686  -53.1833 H         1 UNK         0.0600 
    229 H229       -4.1882  -25.6637  -51.7899 H         1 UNK         0.0600 
    230 H230       -3.8849  -22.7098  -52.3567 H         1 UNK         0.3000 
    231 H231       -1.9464  -22.9463  -54.5230 H         1 UNK         0.0600 
    232 H232       -1.2213  -22.4479  -52.1912 H         1 UNK         0.0600 
    233 H233       -0.7615  -21.1490  -53.2763 H         1 UNK         0.0600 
    234 H234       -2.1397  -20.9416  -52.2079 H         1 UNK         0.0600 
    235 H235       -4.5404  -20.7147  -53.6026 H         1 UNK         0.3000 
    236 H236       -5.5836  -19.0178  -54.5079 H         1 UNK         0.0600 
    237 H237       -5.9719  -20.5699  -56.4412 H         1 UNK         0.0600 
    238 H238       -5.9118  -18.8902  -56.9481 H         1 UNK         0.0600 
    239 H239       -4.5296  -19.9384  -57.2355 H         1 UNK         0.0600 
    240 H240       -2.7723  -18.7716  -53.6473 H         1 UNK         0.3000 
    241 H241       -1.0543  -17.4266  -53.5001 H         1 UNK         0.0600 
    242 H242       -1.3451  -19.0230  -56.0994 H         1 UNK         0.3800 
    243 H243       -0.1439  -18.2599  -57.1104 H         1 UNK         0.3800 
    244 H244       -2.8474  -15.2375  -54.6570 H         1 UNK         0.0800 
    245 H245       -1.2906  -14.9400  -53.9425 H         1 UNK         0.0800 
    246 H246       -1.8644  -14.8737  -50.2023 H         1 UNK         0.0800 
    247 H247       -1.2210  -13.9736  -51.5519 H         1 UNK         0.0800 
@<TRIPOS>BOND
     1    1    2 1    
     2    1  127 1    
     3    1  128 1    
     4    1  129 1    
     5    2    3 2    
     6    2    4 am   BACKBONE|DICT|INTERRES
     7    4    5 1    
     8    4  130 1    
     9    5    6 1    
    10    5   65 1    
    11    5  131 1    
    12    6    7 1    
    13    6  132 1    
    14    6  133 1    
    15    7    8 1    
    16    8    9 1    
    17    8  134 1    
    18    8  135 1    
    19    9   10 ar   
    20    9   14 ar   
    21   10   11 ar   
    22   10  136 1    
    23   11   12 ar   
    24   11  126 1    
    25   12   13 ar   
    26   12  137 1    
    27   13   14 ar   
    28   13   15 1    
    29   14  138 1    
    30   15   16 1    
    31   15  139 1    
    32   15  140 1    
    33   16   17 1    
    34   17   18 1    
    35   17  141 1    
    36   17  142 1    
    37   18   19 1    
    38   18   67 1    
    39   18  143 1    
    40   19   20 am   BACKBONE|DICT|INTERRES
    41   19  144 1    
    42   20   21 2    
    43   20   22 1    
    44   22   23 1    
    45   22   24 1    
    46   22  145 1    
    47   23  146 1    
    48   23  147 1    
    49   23  148 1    
    50   24   25 am   BACKBONE|DICT|INTERRES
    51   24  149 1    
    52   25   26 2    
    53   25   27 1    
    54   27   28 1    
    55   27   29 1    
    56   27  150 1    
    57   28  151 1    
    58   28  152 1    
    59   28  153 1    
    60   29   30 am   BACKBONE|DICT|INTERRES
    61   29  154 1    
    62   30   31 2    
    63   30   32 1    
    64   32   33 1    
    65   32   34 1    
    66   32  155 1    
    67   33  156 1    
    68   33  157 1    
    69   33  158 1    
    70   34   35 am   BACKBONE|DICT|INTERRES
    71   34  159 1    
    72   35   36 2    
    73   35   37 1    
    74   37   38 1    
    75   37   39 1    
    76   37  160 1    
    77   38  161 1    
    78   38  162 1    
    79   38  163 1    
    80   39   40 am   BACKBONE|DICT|INTERRES
    81   39  164 1    
    82   40   41 2    
    83   40   42 1    
    84   42   43 1    
    85   42   44 1    
    86   42  165 1    
    87   43  166 1    
    88   43  167 1    
    89   43  168 1    
    90   44   45 am   BACKBONE|DICT|INTERRES
    91   44  169 1    
    92   45   46 2    
    93   45   47 1    
    94   47   48 1    
    95   47   49 1    
    96   47  170 1    
    97   48  171 1    
    98   48  172 1    
    99   48  173 1    
   100   49   50 am   BACKBONE|DICT|INTERRES
   101   49  174 1    
   102   50   51 2    
   103   50   52 1    
   104   52   53 1    
   105   52   54 1    
   106   52  175 1    
   107   53  176 1    
   108   53  177 1    
   109   53  178 1    
   110   54   55 am   BACKBONE|DICT|INTERRES
   111   54  179 1    
   112   55   56 2    
   113   55   57 1    
   114   57   58 1    
   115   57   59 1    
   116   57  180 1    
   117   58  181 1    
   118   58  182 1    
   119   58  183 1    
   120   59   60 am   BACKBONE|DICT|INTERRES
   121   59  184 1    
   122   60   61 2    
   123   60   62 1    
   124   62   63 1    
   125   62   64 1    
   126   62  185 1    
   127   63  186 1    
   128   63  187 1    
   129   63  188 1    
   130   64   65 am   BACKBONE|DICT|INTERRES
   131   64  189 1    
   132   65   66 2    
   133   67   68 2    
   134   67   69 am   BACKBONE|DICT|INTERRES
   135   69   70 1    
   136   69  190 1    
   137   70   71 1    
   138   70   72 1    
   139   70  191 1    
   140   71  192 1    
   141   71  193 1    
   142   71  194 1    
   143   72   73 2    
   144   72   74 am   BACKBONE|DICT|INTERRES
   145   74   75 1    
   146   74  195 1    
   147   75   76 1    
   148   75   77 1    
   149   75  196 1    
   150   76  197 1    
   151   76  198 1    
   152   76  199 1    
   153   77   78 2    
   154   77   79 am   BACKBONE|DICT|INTERRES
   155   79   80 1    
   156   79  200 1    
   157   80   81 1    
   158   80   82 1    
   159   80  201 1    
   160   81  202 1    
   161   81  203 1    
   162   81  204 1    
   163   82   83 2    
   164   82   84 am   BACKBONE|DICT|INTERRES
   165   84   85 1    
   166   84  205 1    
   167   85   86 1    
   168   85   87 1    
   169   85  206 1    
   170   86  207 1    
   171   86  208 1    
   172   86  209 1    
   173   87   88 2    
   174   87   89 am   BACKBONE|DICT|INTERRES
   175   89   90 1    
   176   89  210 1    
   177   90   91 1    
   178   90   92 1    
   179   90  211 1    
   180   91  212 1    
   181   91  213 1    
   182   91  214 1    
   183   92   93 2    
   184   92   94 am   BACKBONE|DICT|INTERRES
   185   94   95 1    
   186   94  215 1    
   187   95   96 1    
   188   95   97 1    
   189   95  216 1    
   190   96  217 1    
   191   96  218 1    
   192   96  219 1    
   193   97   98 2    
   194   97   99 am   BACKBONE|DICT|INTERRES
   195   99  100 1    
   196   99  220 1    
   197  100  101 1    
   198  100  102 1    
   199  100  221 1    
   200  101  222 1    
   201  101  223 1    
   202  101  224 1    
   203  102  103 2    
   204  102  104 am   BACKBONE|DICT|INTERRES
   205  104  105 1    
   206  104  225 1    
   207  105  106 1    
   208  105  107 1    
   209  105  226 1    
   210  106  227 1    
   211  106  228 1    
   212  106  229 1    
   213  107  108 2    
   214  107  109 am   BACKBONE|DICT|INTERRES
   215  109  110 1    
   216  109  230 1    
   217  110  111 1    
   218  110  112 1    
   219  110  231 1    
   220  111  232 1    
   221  111  233 1    
   222  111  234 1    
   223  112  113 2    
   224  112  114 am   BACKBONE|DICT|INTERRES
   225  114  115 1    
   226  114  235 1    
   227  115  116 1    
   228  115  117 1    
   229  115  236 1    
   230  116  237 1    
   231  116  238 1    
   232  116  239 1    
   233  117  118 2    
   234  117  119 am   BACKBONE|DICT|INTERRES
   235  119  120 1    
   236  119  240 1    
   237  120  121 1    
   238  120  124 1    
   239  120  241 1    
   240  121  122 am   BACKBONE|DICT|INTERRES
   241  121  123 2    
   242  122  242 1    
   243  122  243 1    
   244  124  125 1    
   245  124  244 1    
   246  124  245 1    
   247  125  126 1    
   248  126  246 1    
   249  126  247 1    
@<TRIPOS>SUBSTRUCTURE
     1 UNK         1 GROUP             0       ****    0 ROOT    
