@<TRIPOS>MOLECULE
3R540
247   249    1
SMALL
USER_CHARGES


@<TRIPOS>ATOM
      1 CA          6.1804  -11.7495  -52.7596 C.3       0 UNK        -0.1800 
      2 C           5.4158  -12.0540  -51.4790 C.2       0 UNK         0.5000 
      3 O           5.0289  -11.1306  -50.7623 O.2       0 UNK        -0.5000 
      4 N           5.2042  -13.3428  -51.1854 N.am      1 UNK        -0.5000 
      5 CA          4.4349  -13.8269  -50.0372 C.3       1 UNK         0.1400 
      6 C6          4.7073  -15.3314  -49.7806 C.3       23 UNK        -0.0398 
      7 S7          4.2101  -15.8809  -48.1119 S.3       23 UNK        -0.2404 
      8 C8          2.6029  -16.6760  -48.4342 C.3       23 UNK        -0.0205 
      9 C9          2.7415  -18.0422  -49.0821 C.ar      23 UNK        -0.0193 
     10 C10         2.5400  -18.1996  -50.4569 C.ar      23 UNK        -0.1150 
     11 C11         2.6253  -19.4647  -51.0447 C.ar      23 UNK        -0.0193 
     12 C12         2.9073  -20.5763  -50.2450 C.ar      23 UNK        -0.1150 
     13 C13         3.0934  -20.4334  -48.8669 C.ar      23 UNK        -0.0193 
     14 C14         3.0259  -19.1597  -48.2946 C.ar      23 UNK        -0.1150 
     15 C15         3.3317  -21.6555  -47.9925 C.3       23 UNK        -0.0205 
     16 S16         1.9916  -21.8431  -46.7792 S.3       23 UNK        -0.2404 
     17 C17         1.8571  -23.6536  -46.6196 C.3       23 UNK        -0.0398 
     18 CA          0.7882  -24.0903  -45.5841 C.3       11 UNK         0.1400 
     19 N           1.1080  -23.6114  -44.2360 N.am      11 UNK        -0.5000 
     20 C           1.6815  -24.3321  -43.2676 C.2       10 UNK         0.5000 
     21 O           1.9800  -25.5221  -43.3844 O.2       10 UNK        -0.5000 
     22 CA          1.9590  -23.5788  -41.9506 C.3       10 UNK         0.1400 
     23 CB          2.7573  -24.4085  -40.9235 C.3       10 UNK        -0.1800 
     24 N           2.5865  -22.2730  -42.1735 N.am      10 UNK        -0.5000 
     25 C           3.7884  -22.0124  -42.7106 C.2       9 UNK         0.5000 
     26 O           4.5718  -22.8795  -43.0994 O.2       9 UNK        -0.5000 
     27 CA          4.1971  -20.5270  -42.8268 C.3       9 UNK         0.1400 
     28 CB          4.1870  -20.0694  -44.2926 C.3       9 UNK        -0.1800 
     29 N           3.3492  -19.6212  -42.0474 N.am      9 UNK        -0.5000 
     30 C           3.3728  -19.5020  -40.7125 C.2       8 UNK         0.5000 
     31 O           4.1573  -20.1090  -39.9830 O.2       8 UNK        -0.5000 
     32 CA          2.3151  -18.5748  -40.0895 C.3       8 UNK         0.1400 
     33 CB          2.7893  -17.1131  -40.1035 C.3       8 UNK        -0.1800 
     34 N           1.0309  -18.6795  -40.7848 N.am      8 UNK        -0.5000 
     35 C           0.1485  -19.6722  -40.6017 C.2       7 UNK         0.5000 
     36 O           0.3102  -20.5899  -39.7977 O.2       7 UNK        -0.5000 
     37 CA         -1.1156  -19.6535  -41.4825 C.3       7 UNK         0.1400 
     38 CB         -2.2146  -18.7954  -40.8391 C.3       7 UNK        -0.1800 
     39 N          -0.8529  -19.1612  -42.8344 N.am      7 UNK        -0.5000 
     40 C          -0.1437  -19.8248  -43.7575 C.2       6 UNK         0.5000 
     41 O           0.2875  -20.9657  -43.5917 O.2       6 UNK        -0.5000 
     42 CA          0.1653  -19.0809  -45.0704 C.3       6 UNK         0.1400 
     43 CB         -0.8417  -19.4803  -46.1516 C.3       6 UNK        -0.1800 
     44 N           0.1985  -17.6211  -44.9389 N.am      6 UNK        -0.5000 
     45 C           1.0643  -16.9491  -44.1631 C.2       5 UNK         0.5000 
     46 O           1.9076  -17.5110  -43.4633 O.2       5 UNK        -0.5000 
     47 CA          0.9765  -15.4105  -44.1273 C.3       5 UNK         0.1400 
     48 CB          2.2605  -14.7817  -44.6898 C.3       5 UNK        -0.1800 
     49 N          -0.1791  -14.8744  -44.8482 N.am      5 UNK        -0.5000 
     50 C          -1.4348  -14.8573  -44.3747 C.2       4 UNK         0.5000 
     51 O          -1.7421  -15.2756  -43.2579 O.2       4 UNK        -0.5000 
     52 CA         -2.5388  -14.3150  -45.3102 C.3       4 UNK         0.1400 
     53 CB         -2.8114  -12.8325  -45.0142 C.3       4 UNK        -0.1800 
     54 N          -2.2255  -14.4649  -46.7337 N.am      4 UNK        -0.5000 
     55 C          -2.0367  -15.6370  -47.3555 C.2       3 UNK         0.5000 
     56 O          -2.2259  -16.7227  -46.8115 O.2       3 UNK        -0.5000 
     57 CA         -1.4900  -15.6052  -48.7982 C.3       3 UNK         0.1400 
     58 CB         -2.5936  -15.9619  -49.8035 C.3       3 UNK        -0.1800 
     59 N          -0.8479  -14.3469  -49.2046 N.am      3 UNK        -0.5000 
     60 C           0.2253  -13.8071  -48.6110 C.2       2 UNK         0.5000 
     61 O           0.7072  -14.2311  -47.5587 O.2       2 UNK        -0.5000 
     62 CA          0.8695  -12.5876  -49.2865 C.3       2 UNK         0.1400 
     63 CB          0.5630  -11.3075  -48.4940 C.3       2 UNK        -0.1800 
     64 N           2.3170  -12.7842  -49.3461 N.am      2 UNK        -0.5000 
     65 C           2.9327  -13.5489  -50.2563 C.2       1 UNK         0.5000 
     66 O           2.3631  -14.0448  -51.2314 O.2       1 UNK        -0.5000 
     67 C          -0.6513  -23.6985  -45.9901 C.2       11 UNK         0.5000 
     68 O          -0.9864  -23.7556  -47.1742 O.2       11 UNK        -0.5000 
     69 N          -1.4862  -23.3254  -45.0069 N.am      12 UNK        -0.5000 
     70 CA         -2.8448  -22.7887  -45.1643 C.3       12 UNK         0.1400 
     71 CB         -3.3924  -22.4273  -43.7754 C.3       12 UNK        -0.1800 
     72 C          -3.8430  -23.6923  -45.9204 C.2       12 UNK         0.5000 
     73 O          -4.8567  -23.1976  -46.4135 O.2       12 UNK        -0.5000 
     74 N          -3.5508  -24.9967  -45.9983 N.am      13 UNK        -0.5000 
     75 CA         -4.3128  -25.9686  -46.7820 C.3       13 UNK         0.1400 
     76 CB         -3.9905  -27.3795  -46.2655 C.3       13 UNK        -0.1800 
     77 C          -4.0365  -25.8766  -48.2975 C.2       13 UNK         0.5000 
     78 O          -4.8807  -26.3074  -49.0840 O.2       13 UNK        -0.5000 
     79 N          -2.8658  -25.3476  -48.6794 N.am      14 UNK        -0.5000 
     80 CA         -2.4050  -25.2427  -50.0635 C.3       14 UNK         0.1400 
     81 CB         -0.9806  -25.8129  -50.1601 C.3       14 UNK        -0.1800 
     82 C          -2.4302  -23.7908  -50.5632 C.2       14 UNK         0.5000 
     83 O          -2.8231  -23.5572  -51.7062 O.2       14 UNK        -0.5000 
     84 N          -2.0155  -22.8490  -49.7097 N.am      15 UNK        -0.5000 
     85 CA         -1.9567  -21.4221  -50.0012 C.3       15 UNK         0.1400 
     86 CB         -0.5789  -20.8993  -49.5726 C.3       15 UNK        -0.1800 
     87 C          -3.0753  -20.7075  -49.2324 C.2       15 UNK         0.5000 
     88 O          -3.1375  -20.8406  -48.0109 O.2       15 UNK        -0.5000 
     89 N          -3.9307  -19.9614  -49.9413 N.am      16 UNK        -0.5000 
     90 CA         -5.0392  -19.2017  -49.3476 C.3       16 UNK         0.1400 
     91 CB         -6.1497  -20.1478  -48.8450 C.3       16 UNK        -0.1800 
     92 C          -5.6387  -18.1333  -50.2809 C.2       16 UNK         0.5000 
     93 O          -6.4330  -17.3214  -49.8043 O.2       16 UNK        -0.5000 
     94 N          -5.2852  -18.1446  -51.5752 N.am      17 UNK        -0.5000 
     95 CA         -5.7058  -17.2481  -52.6614 C.3       17 UNK         0.1400 
     96 CB         -5.2574  -15.7974  -52.4020 C.3       17 UNK        -0.1800 
     97 C          -7.1999  -17.3110  -53.0343 C.2       17 UNK         0.5000 
     98 O          -7.5232  -17.4523  -54.2142 O.2       17 UNK        -0.5000 
     99 N          -8.0829  -17.1913  -52.0386 N.am      18 UNK        -0.5000 
    100 CA        -9.5332  -17.2639  -52.1986 C.3       18 UNK         0.1400 
    101 CB       -10.2049  -16.4182  -51.1051 C.3       18 UNK        -0.1800 
    102 C        -10.0325  -18.7167  -52.1454 C.2       18 UNK         0.5000 
    103 O        -10.8767  -19.1012  -52.9559 O.2       18 UNK        -0.5000 
    104 N         -9.5057  -19.4900  -51.1863 N.am      19 UNK        -0.5000 
    105 CA        -9.9252  -20.8650  -50.9026 C.3       19 UNK         0.1400 
    106 CB       -10.0489  -21.0262  -49.3781 C.3       19 UNK        -0.1800 
    107 C         -8.9642  -21.9241  -51.4745 C.2       19 UNK         0.5000 
    108 O         -9.2938  -23.1105  -51.4354 O.2       19 UNK        -0.5000 
    109 N         -7.7971  -21.5010  -51.9737 N.am      20 UNK        -0.5000 
    110 CA        -6.7352  -22.3609  -52.4918 C.3       20 UNK         0.1400 
    111 CB        -5.9878  -23.0587  -51.3348 C.3       20 UNK        -0.1800 
    112 C         -5.8182  -21.5338  -53.4116 C.2       20 UNK         0.5000 
    113 O         -6.2589  -20.5113  -53.9407 O.2       20 UNK        -0.5000 
    114 N         -4.5731  -21.9850  -53.6079 N.am      21 UNK        -0.5000 
    115 CA        -3.5809  -21.3502  -54.4780 C.3       21 UNK         0.1400 
    116 CB        -2.5394  -22.4103  -54.8824 C.3       21 UNK        -0.1800 
    117 C         -2.9133  -20.1267  -53.8162 C.2       21 UNK         0.5000 
    118 O         -3.2847  -19.7379  -52.7046 O.2       21 UNK        -0.5000 
    119 N         -1.9234  -19.5547  -54.5139 N.am      22 UNK        -0.5000 
    120 CA        -1.0671  -18.4389  -54.0644 C.3       22 UNK         0.1400 
    121 C         -1.7735  -17.0505  -54.0438 C.2       22 UNK         0.5000 
    122 N         -2.8562  -16.8596  -54.7874 N.am      22 UNK        -0.7600 
    123 O         -1.3182  -16.1200  -53.3846 O.2       22 UNK        -0.5000 
    124 C124       -0.2814  -18.7484  -52.7568 C.3       23 UNK        -0.0398 
    125 S125        0.7378  -20.2584  -52.9127 S.3       23 UNK        -0.2404 
    126 C126        2.4096  -19.6403  -52.5406 C.3       23 UNK        -0.0205 
    127 H127        5.5655  -11.1484  -53.4296 H         1 UNK         0.0600 
    128 H128        6.4682  -12.6595  -53.2868 H         1 UNK         0.0600 
    129 H129        7.0865  -11.1882  -52.5312 H         1 UNK         0.0600 
    130 H130        5.5210  -14.0518  -51.8312 H         1 UNK         0.3000 
    131 H131        4.7738  -13.2697  -49.1607 H         1 UNK         0.0600 
    132 H132        4.2481  -15.9569  -50.5466 H         1 UNK         0.0800 
    133 H133        5.7787  -15.5228  -49.8548 H         1 UNK         0.0800 
    134 H134        1.9910  -16.0316  -49.0630 H         1 UNK         0.0800 
    135 H135        2.0633  -16.7776  -47.4914 H         1 UNK         0.0800 
    136 H136        2.3093  -17.3380  -51.0677 H         1 UNK         0.1150 
    137 H137        2.9547  -21.5573  -50.6964 H         1 UNK         0.1150 
    138 H138        3.1652  -19.0431  -47.2288 H         1 UNK         0.1150 
    139 H139        3.4026  -22.5552  -48.6053 H         1 UNK         0.0800 
    140 H140        4.2832  -21.5549  -47.4691 H         1 UNK         0.0800 
    141 H141        2.8317  -24.0478  -46.3286 H         1 UNK         0.0800 
    142 H142        1.6386  -24.0800  -47.6002 H         1 UNK         0.0800 
    143 H143        0.7779  -25.1818  -45.5786 H         1 UNK         0.0600 
    144 H144        0.9109  -22.6266  -44.0598 H         1 UNK         0.3000 
    145 H145        0.9826  -23.3703  -41.5108 H         1 UNK         0.0600 
    146 H146        2.9150  -23.8470  -40.0025 H         1 UNK         0.0600 
    147 H147        2.2216  -25.3209  -40.6593 H         1 UNK         0.0600 
    148 H148        3.7338  -24.7038  -41.3079 H         1 UNK         0.0600 
    149 H149        2.0090  -21.4756  -41.9468 H         1 UNK         0.3000 
    150 H150        5.2200  -20.4438  -42.4542 H         1 UNK         0.0600 
    151 H151        4.8262  -20.7024  -44.9093 H         1 UNK         0.0600 
    152 H152        4.5470  -19.0452  -44.3913 H         1 UNK         0.0600 
    153 H153        3.1835  -20.1116  -44.7106 H         1 UNK         0.0600 
    154 H154        2.7175  -19.0239  -42.5735 H         1 UNK         0.3000 
    155 H155        2.1774  -18.8735  -39.0479 H         1 UNK         0.0600 
    156 H156        3.7257  -17.0038  -39.5550 H         1 UNK         0.0600 
    157 H157        2.0579  -16.4571  -39.6313 H         1 UNK         0.0600 
    158 H158        2.9607  -16.7495  -41.1170 H         1 UNK         0.0600 
    159 H159        0.8587  -18.0017  -41.5141 H         1 UNK         0.3000 
    160 H160       -1.4817  -20.6796  -41.5529 H         1 UNK         0.0600 
    161 H161       -1.9182  -17.7481  -40.7665 H         1 UNK         0.0600 
    162 H162       -2.4427  -19.1440  -39.8310 H         1 UNK         0.0600 
    163 H163       -3.1387  -18.8431  -41.4156 H         1 UNK         0.0600 
    164 H164       -1.1793  -18.2312  -43.0556 H         1 UNK         0.3000 
    165 H165        1.1539  -19.3945  -45.4028 H         1 UNK         0.0600 
    166 H166       -0.6057  -19.0119  -47.1071 H         1 UNK         0.0600 
    167 H167       -0.8298  -20.5586  -46.3077 H         1 UNK         0.0600 
    168 H168       -1.8609  -19.2037  -45.8800 H         1 UNK         0.0600 
    169 H169       -0.4895  -17.1053  -45.4737 H         1 UNK         0.3000 
    170 H170        0.8960  -15.1190  -43.0780 H         1 UNK         0.0600 
    171 H171        3.1340  -15.0947  -44.1162 H         1 UNK         0.0600 
    172 H172        2.4311  -15.0728  -45.7258 H         1 UNK         0.0600 
    173 H173        2.2186  -13.6932  -44.6506 H         1 UNK         0.0600 
    174 H174        0.0022  -14.5441  -45.7930 H         1 UNK         0.3000 
    175 H175       -3.4501  -14.8808  -45.1058 H         1 UNK         0.0600 
    176 H176       -3.0730  -12.6849  -43.9653 H         1 UNK         0.0600 
    177 H177       -1.9383  -12.2135  -45.2252 H         1 UNK         0.0600 
    178 H178       -3.6430  -12.4569  -45.6110 H         1 UNK         0.0600 
    179 H179       -2.0391  -13.6184  -47.2500 H         1 UNK         0.3000 
    180 H180       -0.7256  -16.3843  -48.8556 H         1 UNK         0.0600 
    181 H181       -3.3941  -15.2201  -49.8075 H         1 UNK         0.0600 
    182 H182       -3.0373  -16.9279  -49.5617 H         1 UNK         0.0600 
    183 H183       -2.1953  -16.0395  -50.8149 H         1 UNK         0.0600 
    184 H184       -1.1926  -13.9309  -50.0584 H         1 UNK         0.3000 
    185 H185        0.4737  -12.4752  -50.2984 H         1 UNK         0.0600 
    186 H186       -0.5114  -11.1255  -48.4471 H         1 UNK         0.0600 
    187 H187        0.9309  -11.3681  -47.4686 H         1 UNK         0.0600 
    188 H188        1.0200  -10.4356  -48.9627 H         1 UNK         0.0600 
    189 H189        2.8444  -12.4395  -48.5571 H         1 UNK         0.3000 
    190 H190       -1.1199  -23.3237  -44.0664 H         1 UNK         0.3000 
    191 H191       -2.7589  -21.8646  -45.7339 H         1 UNK         0.0600 
    192 H192       -3.4462  -23.3006  -43.1244 H         1 UNK         0.0600 
    193 H193       -4.3962  -22.0063  -43.8461 H         1 UNK         0.0600 
    194 H194       -2.7657  -21.6805  -43.2897 H         1 UNK         0.0600 
    195 H195       -2.7091  -25.3267  -45.5503 H         1 UNK         0.3000 
    196 H196       -5.3786  -25.7859  -46.6282 H         1 UNK         0.0600 
    197 H197       -4.5633  -28.1339  -46.8066 H         1 UNK         0.0600 
    198 H198       -4.2406  -27.4798  -45.2091 H         1 UNK         0.0600 
    199 H199       -2.9337  -27.6209  -46.3861 H         1 UNK         0.0600 
    200 H200       -2.2507  -24.9535  -47.9745 H         1 UNK         0.3000 
    201 H201       -3.0449  -25.8295  -50.7257 H         1 UNK         0.0600 
    202 H202       -0.9574  -26.8629  -49.8682 H         1 UNK         0.0600 
    203 H203       -0.2836  -25.2718  -49.5186 H         1 UNK         0.0600 
    204 H204       -0.6036  -25.7503  -51.1818 H         1 UNK         0.0600 
    205 H205       -1.7291  -23.1159  -48.7715 H         1 UNK         0.3000 
    206 H206       -2.0670  -21.2433  -51.0702 H         1 UNK         0.0600 
    207 H207        0.2097  -21.3732  -50.1549 H         1 UNK         0.0600 
    208 H208       -0.4945  -19.8219  -49.7164 H         1 UNK         0.0600 
    209 H209       -0.3769  -21.1109  -48.5238 H         1 UNK         0.0600 
    210 H210       -3.7792  -19.8783  -50.9431 H         1 UNK         0.3000 
    211 H211       -4.6424  -18.6574  -48.4877 H         1 UNK         0.0600 
    212 H212       -6.9600  -19.5877  -48.3771 H         1 UNK         0.0600 
    213 H213       -5.7809  -20.8494  -48.0970 H         1 UNK         0.0600 
    214 H214       -6.5803  -20.7272  -49.6583 H         1 UNK         0.0600 
    215 H215       -4.6241  -18.8465  -51.8951 H         1 UNK         0.3000 
    216 H216       -5.1670  -17.6035  -53.5400 H         1 UNK         0.0600 
    217 H217       -5.5254  -15.1517  -53.2391 H         1 UNK         0.0600 
    218 H218       -4.1762  -15.7380  -52.2833 H         1 UNK         0.0600 
    219 H219       -5.7176  -15.3777  -51.5074 H         1 UNK         0.0600 
    220 H220       -7.7116  -17.0770  -51.0981 H         1 UNK         0.3000 
    221 H221       -9.8149  -16.8445  -53.1670 H         1 UNK         0.0600 
    222 H222       -9.9482  -16.7693  -50.1048 H         1 UNK         0.0600 
    223 H223       -9.9054  -15.3725  -51.1787 H         1 UNK         0.0600 
    224 H224      -11.2914  -16.4520  -51.1976 H         1 UNK         0.0600 
    225 H225       -8.8227  -19.0872  -50.5619 H         1 UNK         0.3000 
    226 H226      -10.9084  -21.0557  -51.3379 H         1 UNK         0.0600 
    227 H227      -10.7584  -20.3103  -48.9627 H         1 UNK         0.0600 
    228 H228      -10.4066  -22.0230  -49.1167 H         1 UNK         0.0600 
    229 H229       -9.0922  -20.8805  -48.8762 H         1 UNK         0.0600 
    230 H230       -7.6371  -20.5094  -52.0871 H         1 UNK         0.3000 
    231 H231       -7.1959  -23.1267  -53.1190 H         1 UNK         0.0600 
    232 H232       -6.6718  -23.4694  -50.5925 H         1 UNK         0.0600 
    233 H233       -5.3104  -22.3790  -50.8181 H         1 UNK         0.0600 
    234 H234       -5.4014  -23.8980  -51.7073 H         1 UNK         0.0600 
    235 H235       -4.2324  -22.7643  -53.0551 H         1 UNK         0.3000 
    236 H236       -4.0844  -21.0032  -55.3826 H         1 UNK         0.0600 
    237 H237       -1.8850  -22.0460  -55.6746 H         1 UNK         0.0600 
    238 H238       -1.9055  -22.6935  -54.0414 H         1 UNK         0.0600 
    239 H239       -3.0194  -23.3140  -55.2583 H         1 UNK         0.0600 
    240 H240       -1.6879  -19.9365  -55.4183 H         1 UNK         0.3000 
    241 H241       -0.3185  -18.3292  -54.8498 H         1 UNK         0.0600 
    242 H242       -3.2219  -17.6010  -55.3632 H         1 UNK         0.3800 
    243 H243       -3.2887  -15.9503  -54.8004 H         1 UNK         0.3800 
    244 H244        0.3674  -17.9106  -52.4993 H         1 UNK         0.0800 
    245 H245       -0.9609  -18.8650  -51.9128 H         1 UNK         0.0800 
    246 H246        3.1388  -20.3544  -52.9258 H         1 UNK         0.0800 
    247 H247        2.5906  -18.7065  -53.0752 H         1 UNK         0.0800 
@<TRIPOS>BOND
     1    1    2 1    
     2    1  127 1    
     3    1  128 1    
     4    1  129 1    
     5    2    3 2    
     6    2    4 am   BACKBONE|DICT|INTERRES
     7    4    5 1    
     8    4  130 1    
     9    5    6 1    
    10    5   65 1    
    11    5  131 1    
    12    6    7 1    
    13    6  132 1    
    14    6  133 1    
    15    7    8 1    
    16    8    9 1    
    17    8  134 1    
    18    8  135 1    
    19    9   10 ar   
    20    9   14 ar   
    21   10   11 ar   
    22   10  136 1    
    23   11   12 ar   
    24   11  126 1    
    25   12   13 ar   
    26   12  137 1    
    27   13   14 ar   
    28   13   15 1    
    29   14  138 1    
    30   15   16 1    
    31   15  139 1    
    32   15  140 1    
    33   16   17 1    
    34   17   18 1    
    35   17  141 1    
    36   17  142 1    
    37   18   19 1    
    38   18   67 1    
    39   18  143 1    
    40   19   20 am   BACKBONE|DICT|INTERRES
    41   19  144 1    
    42   20   21 2    
    43   20   22 1    
    44   22   23 1    
    45   22   24 1    
    46   22  145 1    
    47   23  146 1    
    48   23  147 1    
    49   23  148 1    
    50   24   25 am   BACKBONE|DICT|INTERRES
    51   24  149 1    
    52   25   26 2    
    53   25   27 1    
    54   27   28 1    
    55   27   29 1    
    56   27  150 1    
    57   28  151 1    
    58   28  152 1    
    59   28  153 1    
    60   29   30 am   BACKBONE|DICT|INTERRES
    61   29  154 1    
    62   30   31 2    
    63   30   32 1    
    64   32   33 1    
    65   32   34 1    
    66   32  155 1    
    67   33  156 1    
    68   33  157 1    
    69   33  158 1    
    70   34   35 am   BACKBONE|DICT|INTERRES
    71   34  159 1    
    72   35   36 2    
    73   35   37 1    
    74   37   38 1    
    75   37   39 1    
    76   37  160 1    
    77   38  161 1    
    78   38  162 1    
    79   38  163 1    
    80   39   40 am   BACKBONE|DICT|INTERRES
    81   39  164 1    
    82   40   41 2    
    83   40   42 1    
    84   42   43 1    
    85   42   44 1    
    86   42  165 1    
    87   43  166 1    
    88   43  167 1    
    89   43  168 1    
    90   44   45 am   BACKBONE|DICT|INTERRES
    91   44  169 1    
    92   45   46 2    
    93   45   47 1    
    94   47   48 1    
    95   47   49 1    
    96   47  170 1    
    97   48  171 1    
    98   48  172 1    
    99   48  173 1    
   100   49   50 am   BACKBONE|DICT|INTERRES
   101   49  174 1    
   102   50   51 2    
   103   50   52 1    
   104   52   53 1    
   105   52   54 1    
   106   52  175 1    
   107   53  176 1    
   108   53  177 1    
   109   53  178 1    
   110   54   55 am   BACKBONE|DICT|INTERRES
   111   54  179 1    
   112   55   56 2    
   113   55   57 1    
   114   57   58 1    
   115   57   59 1    
   116   57  180 1    
   117   58  181 1    
   118   58  182 1    
   119   58  183 1    
   120   59   60 am   BACKBONE|DICT|INTERRES
   121   59  184 1    
   122   60   61 2    
   123   60   62 1    
   124   62   63 1    
   125   62   64 1    
   126   62  185 1    
   127   63  186 1    
   128   63  187 1    
   129   63  188 1    
   130   64   65 am   BACKBONE|DICT|INTERRES
   131   64  189 1    
   132   65   66 2    
   133   67   68 2    
   134   67   69 am   BACKBONE|DICT|INTERRES
   135   69   70 1    
   136   69  190 1    
   137   70   71 1    
   138   70   72 1    
   139   70  191 1    
   140   71  192 1    
   141   71  193 1    
   142   71  194 1    
   143   72   73 2    
   144   72   74 am   BACKBONE|DICT|INTERRES
   145   74   75 1    
   146   74  195 1    
   147   75   76 1    
   148   75   77 1    
   149   75  196 1    
   150   76  197 1    
   151   76  198 1    
   152   76  199 1    
   153   77   78 2    
   154   77   79 am   BACKBONE|DICT|INTERRES
   155   79   80 1    
   156   79  200 1    
   157   80   81 1    
   158   80   82 1    
   159   80  201 1    
   160   81  202 1    
   161   81  203 1    
   162   81  204 1    
   163   82   83 2    
   164   82   84 am   BACKBONE|DICT|INTERRES
   165   84   85 1    
   166   84  205 1    
   167   85   86 1    
   168   85   87 1    
   169   85  206 1    
   170   86  207 1    
   171   86  208 1    
   172   86  209 1    
   173   87   88 2    
   174   87   89 am   BACKBONE|DICT|INTERRES
   175   89   90 1    
   176   89  210 1    
   177   90   91 1    
   178   90   92 1    
   179   90  211 1    
   180   91  212 1    
   181   91  213 1    
   182   91  214 1    
   183   92   93 2    
   184   92   94 am   BACKBONE|DICT|INTERRES
   185   94   95 1    
   186   94  215 1    
   187   95   96 1    
   188   95   97 1    
   189   95  216 1    
   190   96  217 1    
   191   96  218 1    
   192   96  219 1    
   193   97   98 2    
   194   97   99 am   BACKBONE|DICT|INTERRES
   195   99  100 1    
   196   99  220 1    
   197  100  101 1    
   198  100  102 1    
   199  100  221 1    
   200  101  222 1    
   201  101  223 1    
   202  101  224 1    
   203  102  103 2    
   204  102  104 am   BACKBONE|DICT|INTERRES
   205  104  105 1    
   206  104  225 1    
   207  105  106 1    
   208  105  107 1    
   209  105  226 1    
   210  106  227 1    
   211  106  228 1    
   212  106  229 1    
   213  107  108 2    
   214  107  109 am   BACKBONE|DICT|INTERRES
   215  109  110 1    
   216  109  230 1    
   217  110  111 1    
   218  110  112 1    
   219  110  231 1    
   220  111  232 1    
   221  111  233 1    
   222  111  234 1    
   223  112  113 2    
   224  112  114 am   BACKBONE|DICT|INTERRES
   225  114  115 1    
   226  114  235 1    
   227  115  116 1    
   228  115  117 1    
   229  115  236 1    
   230  116  237 1    
   231  116  238 1    
   232  116  239 1    
   233  117  118 2    
   234  117  119 am   BACKBONE|DICT|INTERRES
   235  119  120 1    
   236  119  240 1    
   237  120  121 1    
   238  120  124 1    
   239  120  241 1    
   240  121  122 am   BACKBONE|DICT|INTERRES
   241  121  123 2    
   242  122  242 1    
   243  122  243 1    
   244  124  125 1    
   245  124  244 1    
   246  124  245 1    
   247  125  126 1    
   248  126  246 1    
   249  126  247 1    
@<TRIPOS>SUBSTRUCTURE
     1 UNK         1 GROUP             0       ****    0 ROOT    
