@<TRIPOS>MOLECULE
3R540
247   249    1
SMALL
USER_CHARGES


@<TRIPOS>ATOM
      1 CA          2.3167  -15.5729  -47.4760 C.3       0 UNK        -0.1800 
      2 C           0.8858  -15.4952  -47.9918 C.2       0 UNK         0.5000 
      3 O           0.6427  -14.8584  -49.0166 O.2       0 UNK        -0.5000 
      4 N          -0.0394  -16.1586  -47.2869 N.am      1 UNK        -0.5000 
      5 CA         -1.4808  -16.2629  -47.5551 C.3       1 UNK         0.1400 
      6 C6         -1.8375  -16.7807  -48.9794 C.3       23 UNK        -0.0398 
      7 S7         -1.2017  -18.4641  -49.2974 S.3       23 UNK        -0.2404 
      8 C8          0.1386  -18.1397  -50.4834 C.3       23 UNK        -0.0205 
      9 C9          0.9392  -19.3964  -50.7905 C.ar      23 UNK        -0.0193 
     10 C10         0.4461  -20.3281  -51.7079 C.ar      23 UNK        -0.1150 
     11 C11         1.1866  -21.4681  -52.0319 C.ar      23 UNK        -0.0193 
     12 C12         2.4278  -21.6734  -51.4248 C.ar      23 UNK        -0.1150 
     13 C13         2.9378  -20.7490  -50.5086 C.ar      23 UNK        -0.0193 
     14 C14         2.1850  -19.6136  -50.1896 C.ar      23 UNK        -0.1150 
     15 C15         4.3199  -20.9679  -49.9025 C.3       23 UNK        -0.0205 
     16 S16         4.2653  -21.5559  -48.1786 S.3       23 UNK        -0.2404 
     17 C17         3.1636  -23.0046  -48.3042 C.3       23 UNK        -0.0398 
     18 CA          3.5240  -24.1874  -47.3668 C.3       11 UNK         0.1400 
     19 N           3.7693  -23.7587  -45.9847 N.am      11 UNK        -0.5000 
     20 C           4.4811  -24.4431  -45.0782 C.2       10 UNK         0.5000 
     21 O           5.0864  -25.4847  -45.3317 O.2       10 UNK        -0.5000 
     22 CA          4.4878  -23.8920  -43.6377 C.3       10 UNK         0.1400 
     23 CB          5.7374  -23.0327  -43.3965 C.3       10 UNK        -0.1800 
     24 N           3.2896  -23.1073  -43.3242 N.am      10 UNK        -0.5000 
     25 C           2.0578  -23.6246  -43.1855 C.2       9 UNK         0.5000 
     26 O           1.8160  -24.8290  -43.2502 O.2       9 UNK        -0.5000 
     27 CA          0.8885  -22.6323  -43.0272 C.3       9 UNK         0.1400 
     28 CB          0.6057  -22.3575  -41.5440 C.3       9 UNK        -0.1800 
     29 N           1.1336  -21.3697  -43.7249 N.am      9 UNK        -0.5000 
     30 C           1.2848  -21.2500  -45.0497 C.2       8 UNK         0.5000 
     31 O           1.0587  -22.1780  -45.8301 O.2       8 UNK        -0.5000 
     32 CA          1.8225  -19.9117  -45.5932 C.3       8 UNK         0.1400 
     33 CB          0.8141  -19.2182  -46.5050 C.3       8 UNK        -0.1800 
     34 N           2.2636  -18.9660  -44.5665 N.am      8 UNK        -0.5000 
     35 C           3.3924  -19.0895  -43.8568 C.2       7 UNK         0.5000 
     36 O           4.1611  -20.0454  -43.9559 O.2       7 UNK        -0.5000 
     37 CA          3.6676  -17.9825  -42.8278 C.3       7 UNK         0.1400 
     38 CB          4.1047  -16.6804  -43.5176 C.3       7 UNK        -0.1800 
     39 N           2.4834  -17.7324  -42.0075 N.am      7 UNK        -0.5000 
     40 C           2.0834  -18.5305  -41.0075 C.2       6 UNK         0.5000 
     41 O           2.7117  -19.5198  -40.6319 O.2       6 UNK        -0.5000 
     42 CA          0.7519  -18.1778  -40.3190 C.3       6 UNK         0.1400 
     43 CB          0.9996  -17.2836  -39.0949 C.3       6 UNK        -0.1800 
     44 N          -0.2010  -17.5149  -41.2104 N.am      6 UNK        -0.5000 
     45 C          -0.8233  -18.1076  -42.2391 C.2       5 UNK         0.5000 
     46 O          -0.6633  -19.2853  -42.5507 O.2       5 UNK        -0.5000 
     47 CA         -1.7695  -17.2267  -43.0717 C.3       5 UNK         0.1400 
     48 CB         -3.1739  -17.2418  -42.4516 C.3       5 UNK        -0.1800 
     49 N          -1.3147  -15.8421  -43.1956 N.am      5 UNK        -0.5000 
     50 C          -0.1732  -15.4493  -43.7764 C.2       4 UNK         0.5000 
     51 O           0.6261  -16.2344  -44.2960 O.2       4 UNK        -0.5000 
     52 CA          0.1029  -13.9326  -43.7610 C.3       4 UNK         0.1400 
     53 CB          1.2231  -13.5110  -44.7254 C.3       4 UNK        -0.1800 
     54 N          -1.1098  -13.1777  -44.0824 N.am      4 UNK        -0.5000 
     55 C          -1.9297  -12.6058  -43.1897 C.2       3 UNK         0.5000 
     56 O          -1.7450  -12.6537  -41.9735 O.2       3 UNK        -0.5000 
     57 CA         -3.1773  -11.8784  -43.7327 C.3       3 UNK         0.1400 
     58 CB         -2.9095  -10.3702  -43.8484 C.3       3 UNK        -0.1800 
     59 N          -3.6274  -12.3811  -45.0318 N.am      3 UNK        -0.5000 
     60 C          -4.1829  -13.5825  -45.2373 C.2       2 UNK         0.5000 
     61 O          -4.4256  -14.3843  -44.3350 O.2       2 UNK        -0.5000 
     62 CA         -4.4846  -13.9836  -46.6962 C.3       2 UNK         0.1400 
     63 CB         -4.5098  -12.8020  -47.6916 C.3       2 UNK        -0.1800 
     64 N          -3.5635  -15.0283  -47.1517 N.am      2 UNK        -0.5000 
     65 C          -2.2239  -14.9596  -47.1850 C.2       1 UNK         0.5000 
     66 O          -1.5953  -13.9406  -46.8838 O.2       1 UNK        -0.5000 
     67 C           2.3911  -25.2368  -47.4452 C.2       11 UNK         0.5000 
     68 O           2.2015  -25.8360  -48.5037 O.2       11 UNK        -0.5000 
     69 N           1.6242  -25.3838  -46.3515 N.am      12 UNK        -0.5000 
     70 CA          0.3529  -26.1045  -46.2237 C.3       12 UNK         0.1400 
     71 CB          0.5146  -27.6056  -46.5415 C.3       12 UNK        -0.1800 
     72 C          -0.8027  -25.4416  -47.0077 C.2       12 UNK         0.5000 
     73 O          -1.8220  -26.0890  -47.2518 O.2       12 UNK        -0.5000 
     74 N          -0.6386  -24.1612  -47.3705 N.am      13 UNK        -0.5000 
     75 CA         -1.6472  -23.3511  -48.0539 C.3       13 UNK         0.1400 
     76 CB         -0.9425  -22.3644  -48.9980 C.3       13 UNK        -0.1800 
     77 C          -2.5457  -22.6049  -47.0518 C.2       13 UNK         0.5000 
     78 O          -3.7226  -22.3851  -47.3432 O.2       13 UNK        -0.5000 
     79 N          -1.9780  -22.2516  -45.8869 N.am      14 UNK        -0.5000 
     80 CA         -2.5937  -21.4831  -44.8011 C.3       14 UNK         0.1400 
     81 CB         -3.6813  -22.3173  -44.0898 C.3       14 UNK        -0.1800 
     82 C          -3.0679  -20.1008  -45.2952 C.2       14 UNK         0.5000 
     83 O          -2.3082  -19.4223  -45.9817 O.2       14 UNK        -0.5000 
     84 N          -4.2955  -19.6881  -44.9551 N.am      15 UNK        -0.5000 
     85 CA         -4.8727  -18.4190  -45.4060 C.3       15 UNK         0.1400 
     86 CB         -6.1362  -18.1183  -44.5861 C.3       15 UNK        -0.1800 
     87 C          -5.2015  -18.3914  -46.9103 C.2       15 UNK         0.5000 
     88 O          -5.2384  -17.3061  -47.4923 O.2       15 UNK        -0.5000 
     89 N          -5.4650  -19.5678  -47.4978 N.am      16 UNK        -0.5000 
     90 CA         -5.9318  -19.8389  -48.8646 C.3       16 UNK         0.1400 
     91 CB         -4.9349  -19.3360  -49.9261 C.3       16 UNK        -0.1800 
     92 C          -7.3609  -19.3315  -49.1476 C.2       16 UNK         0.5000 
     93 O          -8.1765  -20.0945  -49.6656 O.2       16 UNK        -0.5000 
     94 N          -7.6384  -18.0689  -48.7884 N.am      17 UNK        -0.5000 
     95 CA         -8.9174  -17.3512  -48.8884 C.3       17 UNK         0.1400 
     96 CB         -9.9665  -17.9855  -47.9520 C.3       17 UNK        -0.1800 
     97 C          -9.4383  -17.1791  -50.3335 C.2       17 UNK         0.5000 
     98 O         -10.6316  -16.9473  -50.5363 O.2       17 UNK        -0.5000 
     99 N          -8.5314  -17.2795  -51.3088 N.am      18 UNK        -0.5000 
    100 CA        -8.7565  -17.2114  -52.7466 C.3       18 UNK         0.1400 
    101 CB        -9.5302  -18.4576  -53.2253 C.3       18 UNK        -0.1800 
    102 C         -7.3821  -17.1253  -53.4279 C.2       18 UNK         0.5000 
    103 O         -6.3538  -17.2601  -52.7562 O.2       18 UNK        -0.5000 
    104 N         -7.3829  -16.9212  -54.7507 N.am      19 UNK        -0.5000 
    105 CA        -6.1920  -16.9819  -55.5970 C.3       19 UNK         0.1400 
    106 CB        -6.5288  -16.4141  -56.9860 C.3       19 UNK        -0.1800 
    107 C         -5.6765  -18.4313  -55.6839 C.2       19 UNK         0.5000 
    108 O         -6.2852  -19.2572  -56.3683 O.2       19 UNK        -0.5000 
    109 N         -4.6009  -18.7206  -54.9433 N.am      20 UNK        -0.5000 
    110 CA        -3.9682  -20.0353  -54.8611 C.3       20 UNK         0.1400 
    111 CB        -2.9550  -20.0203  -53.7052 C.3       20 UNK        -0.1800 
    112 C         -3.2732  -20.4344  -56.1758 C.2       20 UNK         0.5000 
    113 O         -2.8438  -19.5651  -56.9400 O.2       20 UNK        -0.5000 
    114 N         -3.1167  -21.7496  -56.3810 N.am      21 UNK        -0.5000 
    115 CA        -2.4695  -22.3596  -57.5503 C.3       21 UNK         0.1400 
    116 CB        -2.6015  -23.8872  -57.4500 C.3       21 UNK        -0.1800 
    117 C         -0.9913  -21.9595  -57.7421 C.2       21 UNK         0.5000 
    118 O         -0.4842  -22.0295  -58.8624 O.2       21 UNK        -0.5000 
    119 N         -0.3413  -21.5278  -56.6548 N.am      22 UNK        -0.5000 
    120 CA         1.0050  -20.9378  -56.6495 C.3       22 UNK         0.1400 
    121 C          1.0814  -19.5064  -57.2628 C.2       22 UNK         0.5000 
    122 N         -0.0270  -18.8181  -57.5156 N.am      22 UNK        -0.7600 
    123 O          2.1748  -19.0108  -57.5214 O.2       22 UNK        -0.5000 
    124 C124        1.6280  -20.9500  -55.2308 C.3       23 UNK        -0.0398 
    125 S125        1.7279  -22.6253  -54.5075 S.3       23 UNK        -0.2404 
    126 C126        0.6526  -22.4751  -53.0419 C.3       23 UNK        -0.0205 
    127 H127        2.9457  -16.0954  -48.1967 H         1 UNK         0.0600 
    128 H128        2.3770  -16.1043  -46.5258 H         1 UNK         0.0600 
    129 H129        2.7213  -14.5714  -47.3310 H         1 UNK         0.0600 
    130 H130        0.2495  -16.5806  -46.4137 H         1 UNK         0.3000 
    131 H131       -1.8420  -17.0043  -46.8424 H         1 UNK         0.0600 
    132 H132       -2.9195  -16.8355  -49.1039 H         1 UNK         0.0800 
    133 H133       -1.4898  -16.0950  -49.7523 H         1 UNK         0.0800 
    134 H134       -0.2861  -17.7392  -51.4049 H         1 UNK         0.0800 
    135 H135        0.8013  -17.3700  -50.0917 H         1 UNK         0.0800 
    136 H136       -0.5147  -20.1582  -52.1707 H         1 UNK         0.1150 
    137 H137        3.0051  -22.5499  -51.6837 H         1 UNK         0.1150 
    138 H138        2.5764  -18.8942  -49.4842 H         1 UNK         0.1150 
    139 H139        4.8898  -21.6811  -50.5001 H         1 UNK         0.0800 
    140 H140        4.8798  -20.0323  -49.9362 H         1 UNK         0.0800 
    141 H141        2.1483  -22.6481  -48.1262 H         1 UNK         0.0800 
    142 H142        3.1754  -23.3623  -49.3343 H         1 UNK         0.0800 
    143 H143        4.4335  -24.6554  -47.7493 H         1 UNK         0.0600 
    144 H144        3.3053  -22.9086  -45.6996 H         1 UNK         0.3000 
    145 H145        4.5237  -24.7444  -42.9560 H         1 UNK         0.0600 
    146 H146        5.7604  -22.6431  -42.3786 H         1 UNK         0.0600 
    147 H147        5.7823  -22.1859  -44.0822 H         1 UNK         0.0600 
    148 H148        6.6460  -23.6183  -43.5418 H         1 UNK         0.0600 
    149 H149        3.4086  -22.1022  -43.2845 H         1 UNK         0.3000 
    150 H150        0.0005  -23.0934  -43.4642 H         1 UNK         0.0600 
    151 H151        0.3944  -23.2844  -41.0094 H         1 UNK         0.0600 
    152 H152       -0.2609  -21.7084  -41.4198 H         1 UNK         0.0600 
    153 H153        1.4556  -21.8829  -41.0535 H         1 UNK         0.0600 
    154 H154        1.2428  -20.5445  -43.1517 H         1 UNK         0.3000 
    155 H155        2.6869  -20.1680  -46.2059 H         1 UNK         0.0600 
    156 H156        0.2703  -19.9293  -47.1255 H         1 UNK         0.0600 
    157 H157        1.3206  -18.5309  -47.1808 H         1 UNK         0.0600 
    158 H158        0.0830  -18.6538  -45.9287 H         1 UNK         0.0600 
    159 H159        1.6752  -18.1565  -44.4085 H         1 UNK         0.3000 
    160 H160        4.4845  -18.3136  -42.1827 H         1 UNK         0.0600 
    161 H161        3.3316  -16.2883  -44.1782 H         1 UNK         0.0600 
    162 H162        4.9989  -16.8416  -44.1209 H         1 UNK         0.0600 
    163 H163        4.3415  -15.9080  -42.7858 H         1 UNK         0.0600 
    164 H164        1.8932  -16.9600  -42.2800 H         1 UNK         0.3000 
    165 H165        0.3018  -19.1119  -39.9753 H         1 UNK         0.0600 
    166 H166        0.0732  -17.0898  -38.5539 H         1 UNK         0.0600 
    167 H167        1.6885  -17.7604  -38.3962 H         1 UNK         0.0600 
    168 H168        1.4316  -16.3229  -39.3780 H         1 UNK         0.0600 
    169 H169       -0.4000  -16.5433  -41.0233 H         1 UNK         0.3000 
    170 H170       -1.8214  -17.6461  -44.0767 H         1 UNK         0.0600 
    171 H171       -3.5656  -18.2583  -42.3971 H         1 UNK         0.0600 
    172 H172       -3.1721  -16.8363  -41.4391 H         1 UNK         0.0600 
    173 H173       -3.8751  -16.6530  -43.0410 H         1 UNK         0.0600 
    174 H174       -1.9215  -15.1316  -42.8113 H         1 UNK         0.3000 
    175 H175        0.4397  -13.6920  -42.7508 H         1 UNK         0.0600 
    176 H176        0.9296  -13.6550  -45.7636 H         1 UNK         0.0600 
    177 H177        1.4695  -12.4570  -44.5975 H         1 UNK         0.0600 
    178 H178        2.1378  -14.0788  -44.5518 H         1 UNK         0.0600 
    179 H179       -1.3681  -13.1651  -45.0654 H         1 UNK         0.3000 
    180 H180       -3.9841  -12.0276  -43.0120 H         1 UNK         0.0600 
    181 H181       -3.8055   -9.8328  -44.1595 H         1 UNK         0.0600 
    182 H182       -2.1203  -10.1559  -44.5702 H         1 UNK         0.0600 
    183 H183       -2.5991   -9.9536  -42.8891 H         1 UNK         0.0600 
    184 H184       -3.4325  -11.8004  -45.8345 H         1 UNK         0.3000 
    185 H185       -5.4802  -14.4301  -46.6904 H         1 UNK         0.0600 
    186 H186       -4.8225  -13.1384  -48.6802 H         1 UNK         0.0600 
    187 H187       -5.2202  -12.0375  -47.3748 H         1 UNK         0.0600 
    188 H188       -3.5353  -12.3259  -47.8027 H         1 UNK         0.0600 
    189 H189       -4.0215  -15.9090  -47.3752 H         1 UNK         0.3000 
    190 H190        1.8942  -24.8643  -45.5269 H         1 UNK         0.3000 
    191 H191        0.0764  -26.0259  -45.1714 H         1 UNK         0.0600 
    192 H192       -0.3804  -28.1615  -46.2603 H         1 UNK         0.0600 
    193 H193        1.3497  -28.0378  -45.9902 H         1 UNK         0.0600 
    194 H194        0.6839  -27.7823  -47.6037 H         1 UNK         0.0600 
    195 H195        0.2041  -23.6813  -47.0798 H         1 UNK         0.3000 
    196 H196       -2.2883  -23.9939  -48.6609 H         1 UNK         0.0600 
    197 H197       -1.6637  -21.7255  -49.5095 H         1 UNK         0.0600 
    198 H198       -0.3737  -22.8911  -49.7644 H         1 UNK         0.0600 
    199 H199       -0.2518  -21.7131  -48.4637 H         1 UNK         0.0600 
    200 H200       -0.9843  -22.4201  -45.7896 H         1 UNK         0.3000 
    201 H201       -1.8032  -21.2865  -44.0764 H         1 UNK         0.0600 
    202 H202       -4.5354  -22.5183  -44.7373 H         1 UNK         0.0600 
    203 H203       -4.0478  -21.8100  -43.1967 H         1 UNK         0.0600 
    204 H204       -3.2812  -23.2782  -43.7660 H         1 UNK         0.0600 
    205 H205       -4.8802  -20.2876  -44.3911 H         1 UNK         0.3000 
    206 H206       -4.1479  -17.6237  -45.2217 H         1 UNK         0.0600 
    207 H207       -5.9204  -18.0861  -43.5183 H         1 UNK         0.0600 
    208 H208       -6.5553  -17.1487  -44.8594 H         1 UNK         0.0600 
    209 H209       -6.9108  -18.8688  -44.7490 H         1 UNK         0.0600 
    210 H210       -5.3641  -20.3938  -46.9239 H         1 UNK         0.3000 
    211 H211       -5.9649  -20.9266  -48.9466 H         1 UNK         0.0600 
    212 H212       -4.8417  -18.2502  -49.9257 H         1 UNK         0.0600 
    213 H213       -5.2538  -19.6301  -50.9268 H         1 UNK         0.0600 
    214 H214       -3.9439  -19.7595  -49.7631 H         1 UNK         0.0600 
    215 H215       -6.8700  -17.5439  -48.3778 H         1 UNK         0.3000 
    216 H216       -8.7214  -16.3424  -48.5228 H         1 UNK         0.0600 
    217 H217       -9.5818  -18.0806  -46.9365 H         1 UNK         0.0600 
    218 H218      -10.2650  -18.9774  -48.2925 H         1 UNK         0.0600 
    219 H219      -10.8677  -17.3736  -47.8994 H         1 UNK         0.0600 
    220 H220       -7.5594  -17.4291  -51.0650 H         1 UNK         0.3000 
    221 H221       -9.3198  -16.3057  -52.9792 H         1 UNK         0.0600 
    222 H222       -9.6902  -18.4380  -54.3037 H         1 UNK         0.0600 
    223 H223       -8.9906  -19.3759  -52.9896 H         1 UNK         0.0600 
    224 H224      -10.5141  -18.5224  -52.7612 H         1 UNK         0.0600 
    225 H225       -8.2667  -16.8422  -55.2323 H         1 UNK         0.3000 
    226 H226       -5.4156  -16.3525  -55.1565 H         1 UNK         0.0600 
    227 H227       -6.8361  -15.3702  -56.9207 H         1 UNK         0.0600 
    228 H228       -5.6596  -16.4566  -57.6437 H         1 UNK         0.0600 
    229 H229       -7.3332  -16.9705  -57.4688 H         1 UNK         0.0600 
    230 H230       -4.1829  -17.9874  -54.3896 H         1 UNK         0.3000 
    231 H231       -4.7440  -20.7710  -54.6384 H         1 UNK         0.0600 
    232 H232       -2.5120  -21.0057  -53.5596 H         1 UNK         0.0600 
    233 H233       -3.4301  -19.7404  -52.7646 H         1 UNK         0.0600 
    234 H234       -2.1426  -19.3164  -53.8919 H         1 UNK         0.0600 
    235 H235       -3.4853  -22.3940  -55.6962 H         1 UNK         0.3000 
    236 H236       -3.0113  -22.0259  -58.4375 H         1 UNK         0.0600 
    237 H237       -2.0996  -24.2764  -56.5632 H         1 UNK         0.0600 
    238 H238       -3.6473  -24.1921  -57.4070 H         1 UNK         0.0600 
    239 H239       -2.1584  -24.3762  -58.3187 H         1 UNK         0.0600 
    240 H240       -0.8365  -21.5176  -55.7775 H         1 UNK         0.3000 
    241 H241        1.6332  -21.5653  -57.2847 H         1 UNK         0.0600 
    242 H242        0.0490  -17.8971  -57.9169 H         1 UNK         0.3800 
    243 H243       -0.9473  -19.1974  -57.3155 H         1 UNK         0.3800 
    244 H244        1.0649  -20.2898  -54.5699 H         1 UNK         0.0800 
    245 H245        2.6436  -20.5511  -55.2575 H         1 UNK         0.0800 
    246 H246       -0.3559  -22.2124  -53.3624 H         1 UNK         0.0800 
    247 H247        0.5762  -23.4503  -52.5592 H         1 UNK         0.0800 
@<TRIPOS>BOND
     1    1    2 1    
     2    1  127 1    
     3    1  128 1    
     4    1  129 1    
     5    2    3 2    
     6    2    4 am   BACKBONE|DICT|INTERRES
     7    4    5 1    
     8    4  130 1    
     9    5    6 1    
    10    5   65 1    
    11    5  131 1    
    12    6    7 1    
    13    6  132 1    
    14    6  133 1    
    15    7    8 1    
    16    8    9 1    
    17    8  134 1    
    18    8  135 1    
    19    9   10 ar   
    20    9   14 ar   
    21   10   11 ar   
    22   10  136 1    
    23   11   12 ar   
    24   11  126 1    
    25   12   13 ar   
    26   12  137 1    
    27   13   14 ar   
    28   13   15 1    
    29   14  138 1    
    30   15   16 1    
    31   15  139 1    
    32   15  140 1    
    33   16   17 1    
    34   17   18 1    
    35   17  141 1    
    36   17  142 1    
    37   18   19 1    
    38   18   67 1    
    39   18  143 1    
    40   19   20 am   BACKBONE|DICT|INTERRES
    41   19  144 1    
    42   20   21 2    
    43   20   22 1    
    44   22   23 1    
    45   22   24 1    
    46   22  145 1    
    47   23  146 1    
    48   23  147 1    
    49   23  148 1    
    50   24   25 am   BACKBONE|DICT|INTERRES
    51   24  149 1    
    52   25   26 2    
    53   25   27 1    
    54   27   28 1    
    55   27   29 1    
    56   27  150 1    
    57   28  151 1    
    58   28  152 1    
    59   28  153 1    
    60   29   30 am   BACKBONE|DICT|INTERRES
    61   29  154 1    
    62   30   31 2    
    63   30   32 1    
    64   32   33 1    
    65   32   34 1    
    66   32  155 1    
    67   33  156 1    
    68   33  157 1    
    69   33  158 1    
    70   34   35 am   BACKBONE|DICT|INTERRES
    71   34  159 1    
    72   35   36 2    
    73   35   37 1    
    74   37   38 1    
    75   37   39 1    
    76   37  160 1    
    77   38  161 1    
    78   38  162 1    
    79   38  163 1    
    80   39   40 am   BACKBONE|DICT|INTERRES
    81   39  164 1    
    82   40   41 2    
    83   40   42 1    
    84   42   43 1    
    85   42   44 1    
    86   42  165 1    
    87   43  166 1    
    88   43  167 1    
    89   43  168 1    
    90   44   45 am   BACKBONE|DICT|INTERRES
    91   44  169 1    
    92   45   46 2    
    93   45   47 1    
    94   47   48 1    
    95   47   49 1    
    96   47  170 1    
    97   48  171 1    
    98   48  172 1    
    99   48  173 1    
   100   49   50 am   BACKBONE|DICT|INTERRES
   101   49  174 1    
   102   50   51 2    
   103   50   52 1    
   104   52   53 1    
   105   52   54 1    
   106   52  175 1    
   107   53  176 1    
   108   53  177 1    
   109   53  178 1    
   110   54   55 am   BACKBONE|DICT|INTERRES
   111   54  179 1    
   112   55   56 2    
   113   55   57 1    
   114   57   58 1    
   115   57   59 1    
   116   57  180 1    
   117   58  181 1    
   118   58  182 1    
   119   58  183 1    
   120   59   60 am   BACKBONE|DICT|INTERRES
   121   59  184 1    
   122   60   61 2    
   123   60   62 1    
   124   62   63 1    
   125   62   64 1    
   126   62  185 1    
   127   63  186 1    
   128   63  187 1    
   129   63  188 1    
   130   64   65 am   BACKBONE|DICT|INTERRES
   131   64  189 1    
   132   65   66 2    
   133   67   68 2    
   134   67   69 am   BACKBONE|DICT|INTERRES
   135   69   70 1    
   136   69  190 1    
   137   70   71 1    
   138   70   72 1    
   139   70  191 1    
   140   71  192 1    
   141   71  193 1    
   142   71  194 1    
   143   72   73 2    
   144   72   74 am   BACKBONE|DICT|INTERRES
   145   74   75 1    
   146   74  195 1    
   147   75   76 1    
   148   75   77 1    
   149   75  196 1    
   150   76  197 1    
   151   76  198 1    
   152   76  199 1    
   153   77   78 2    
   154   77   79 am   BACKBONE|DICT|INTERRES
   155   79   80 1    
   156   79  200 1    
   157   80   81 1    
   158   80   82 1    
   159   80  201 1    
   160   81  202 1    
   161   81  203 1    
   162   81  204 1    
   163   82   83 2    
   164   82   84 am   BACKBONE|DICT|INTERRES
   165   84   85 1    
   166   84  205 1    
   167   85   86 1    
   168   85   87 1    
   169   85  206 1    
   170   86  207 1    
   171   86  208 1    
   172   86  209 1    
   173   87   88 2    
   174   87   89 am   BACKBONE|DICT|INTERRES
   175   89   90 1    
   176   89  210 1    
   177   90   91 1    
   178   90   92 1    
   179   90  211 1    
   180   91  212 1    
   181   91  213 1    
   182   91  214 1    
   183   92   93 2    
   184   92   94 am   BACKBONE|DICT|INTERRES
   185   94   95 1    
   186   94  215 1    
   187   95   96 1    
   188   95   97 1    
   189   95  216 1    
   190   96  217 1    
   191   96  218 1    
   192   96  219 1    
   193   97   98 2    
   194   97   99 am   BACKBONE|DICT|INTERRES
   195   99  100 1    
   196   99  220 1    
   197  100  101 1    
   198  100  102 1    
   199  100  221 1    
   200  101  222 1    
   201  101  223 1    
   202  101  224 1    
   203  102  103 2    
   204  102  104 am   BACKBONE|DICT|INTERRES
   205  104  105 1    
   206  104  225 1    
   207  105  106 1    
   208  105  107 1    
   209  105  226 1    
   210  106  227 1    
   211  106  228 1    
   212  106  229 1    
   213  107  108 2    
   214  107  109 am   BACKBONE|DICT|INTERRES
   215  109  110 1    
   216  109  230 1    
   217  110  111 1    
   218  110  112 1    
   219  110  231 1    
   220  111  232 1    
   221  111  233 1    
   222  111  234 1    
   223  112  113 2    
   224  112  114 am   BACKBONE|DICT|INTERRES
   225  114  115 1    
   226  114  235 1    
   227  115  116 1    
   228  115  117 1    
   229  115  236 1    
   230  116  237 1    
   231  116  238 1    
   232  116  239 1    
   233  117  118 2    
   234  117  119 am   BACKBONE|DICT|INTERRES
   235  119  120 1    
   236  119  240 1    
   237  120  121 1    
   238  120  124 1    
   239  120  241 1    
   240  121  122 am   BACKBONE|DICT|INTERRES
   241  121  123 2    
   242  122  242 1    
   243  122  243 1    
   244  124  125 1    
   245  124  244 1    
   246  124  245 1    
   247  125  126 1    
   248  126  246 1    
   249  126  247 1    
@<TRIPOS>SUBSTRUCTURE
     1 UNK         1 GROUP             0       ****    0 ROOT    
