@<TRIPOS>MOLECULE
3R540
247   249    1
SMALL
USER_CHARGES


@<TRIPOS>ATOM
      1 CA         -6.8190  -16.4091  -45.2002 C.3       0 UNK        -0.1800 
      2 C          -5.7606  -15.3883  -44.8083 C.2       0 UNK         0.5000 
      3 O          -5.8839  -14.7378  -43.7708 O.2       0 UNK        -0.5000 
      4 N          -4.7045  -15.2607  -45.6172 N.am      1 UNK        -0.5000 
      5 CA         -3.5988  -14.3127  -45.4494 C.3       1 UNK         0.1400 
      6 C6         -2.9784  -13.9278  -46.8155 C.3       23 UNK        -0.0398 
      7 S7         -4.1435  -13.3556  -48.0963 S.3       23 UNK        -0.2404 
      8 C8         -2.9804  -12.8102  -49.3957 C.3       23 UNK        -0.0205 
      9 C9         -2.0510  -13.9258  -49.8634 C.ar      23 UNK        -0.0193 
     10 C10        -2.4054  -14.7511  -50.9341 C.ar      23 UNK        -0.1150 
     11 C11        -1.5459  -15.7705  -51.3590 C.ar      23 UNK        -0.0193 
     12 C12        -0.3383  -15.9824  -50.6858 C.ar      23 UNK        -0.1150 
     13 C13         0.0233  -15.1681  -49.6087 C.ar      23 UNK        -0.0193 
     14 C14        -0.8240  -14.1264  -49.2252 C.ar      23 UNK        -0.1150 
     15 C15         1.3290  -15.3977  -48.8581 C.3       23 UNK        -0.0205 
     16 S16         1.3939  -17.0085  -48.0055 S.3       23 UNK        -0.2404 
     17 C17        -0.1302  -17.0218  -46.9938 C.3       23 UNK        -0.0398 
     18 CA         -1.1160  -18.1027  -47.4956 C.3       11 UNK         0.1400 
     19 N          -0.5343  -19.4434  -47.3933 N.am      11 UNK        -0.5000 
     20 C          -0.9944  -20.5273  -48.0275 C.2       10 UNK         0.5000 
     21 O          -1.9781  -20.5274  -48.7662 O.2       10 UNK        -0.5000 
     22 CA         -0.2690  -21.8459  -47.7241 C.3       10 UNK         0.1400 
     23 CB          1.0606  -21.9485  -48.4841 C.3       10 UNK        -0.1800 
     24 N          -0.0411  -22.0156  -46.2909 N.am      10 UNK        -0.5000 
     25 C          -1.0155  -22.2551  -45.4029 C.2       9 UNK         0.5000 
     26 O          -2.2039  -22.3662  -45.7065 O.2       9 UNK        -0.5000 
     27 CA         -0.5944  -22.3581  -43.9253 C.3       9 UNK         0.1400 
     28 CB         -0.1420  -23.7871  -43.5913 C.3       9 UNK        -0.1800 
     29 N           0.4667  -21.4164  -43.5607 N.am      9 UNK        -0.5000 
     30 C           0.3221  -20.0842  -43.5553 C.2       8 UNK         0.5000 
     31 O          -0.7097  -19.5068  -43.8849 O.2       8 UNK        -0.5000 
     32 CA          1.5510  -19.2525  -43.1644 C.3       8 UNK         0.1400 
     33 CB          1.7651  -19.2785  -41.6436 C.3       8 UNK        -0.1800 
     34 N           2.7858  -19.6636  -43.8294 N.am      8 UNK        -0.5000 
     35 C           2.9822  -19.7846  -45.1487 C.2       7 UNK         0.5000 
     36 O           2.0777  -19.7262  -45.9836 O.2       7 UNK        -0.5000 
     37 CA          4.4503  -19.9647  -45.5944 C.3       7 UNK         0.1400 
     38 CB          4.6024  -19.9942  -47.1257 C.3       7 UNK        -0.1800 
     39 N           5.2960  -18.8938  -45.0592 N.am      7 UNK        -0.5000 
     40 C           5.7610  -18.8115  -43.8038 C.2       6 UNK         0.5000 
     41 O           5.6085  -19.7010  -42.9656 O.2       6 UNK        -0.5000 
     42 CA          6.4562  -17.4968  -43.3979 C.3       6 UNK         0.1400 
     43 CB          7.9795  -17.6250  -43.5479 C.3       6 UNK        -0.1800 
     44 N           5.9930  -16.3358  -44.1643 N.am      6 UNK        -0.5000 
     45 C           4.7574  -15.8187  -44.1093 C.2       5 UNK         0.5000 
     46 O           3.8653  -16.2343  -43.3654 O.2       5 UNK        -0.5000 
     47 CA          4.4752  -14.6651  -45.0801 C.3       5 UNK         0.1400 
     48 CB          4.4749  -15.1653  -46.5380 C.3       5 UNK        -0.1800 
     49 N           3.1871  -14.0533  -44.7650 N.am      5 UNK        -0.5000 
     50 C           2.8333  -12.8091  -45.1045 C.2       4 UNK         0.5000 
     51 O           3.5751  -12.0367  -45.7139 O.2       4 UNK        -0.5000 
     52 CA          1.4189  -12.3330  -44.7245 C.3       4 UNK         0.1400 
     53 CB          0.4919  -12.4034  -45.9442 C.3       4 UNK        -0.1800 
     54 N           0.8005  -13.0562  -43.6086 N.am      4 UNK        -0.5000 
     55 C           1.1494  -12.8829  -42.3248 C.2       3 UNK         0.5000 
     56 O           2.1134  -12.1978  -41.9793 O.2       3 UNK        -0.5000 
     57 CA          0.2693  -13.5274  -41.2336 C.3       3 UNK         0.1400 
     58 CB         -0.3139  -12.4483  -40.3051 C.3       3 UNK        -0.1800 
     59 N          -0.8442  -14.3110  -41.7722 N.am      3 UNK        -0.5000 
     60 C          -0.8353  -15.6404  -41.9231 C.2       2 UNK         0.5000 
     61 O           0.1287  -16.3513  -41.6435 O.2       2 UNK        -0.5000 
     62 CA         -2.1190  -16.2942  -42.4748 C.3       2 UNK         0.1400 
     63 CB         -2.9990  -16.7903  -41.3173 C.3       2 UNK        -0.1800 
     64 N          -2.9369  -15.4566  -43.3609 N.am      2 UNK        -0.5000 
     65 C          -2.5188  -14.8939  -44.5020 C.2       1 UNK         0.5000 
     66 O          -1.3319  -14.8618  -44.8283 O.2       1 UNK        -0.5000 
     67 C          -2.5009  -18.0192  -46.8107 C.2       11 UNK         0.5000 
     68 O          -3.3683  -17.2861  -47.2856 O.2       11 UNK        -0.5000 
     69 N          -2.7216  -18.8173  -45.7542 N.am      12 UNK        -0.5000 
     70 CA         -4.0222  -19.0273  -45.1086 C.3       12 UNK         0.1400 
     71 CB         -3.8202  -19.6991  -43.7413 C.3       12 UNK        -0.1800 
     72 C          -5.0120  -19.8613  -45.9483 C.2       12 UNK         0.5000 
     73 O          -6.1886  -19.9195  -45.5904 O.2       12 UNK        -0.5000 
     74 N          -4.5263  -20.4982  -47.0242 N.am      13 UNK        -0.5000 
     75 CA         -5.2522  -21.3820  -47.9378 C.3       13 UNK         0.1400 
     76 CB         -6.4056  -20.6343  -48.6420 C.3       13 UNK        -0.1800 
     77 C          -5.7143  -22.6957  -47.2756 C.2       13 UNK         0.5000 
     78 O          -6.7632  -23.2284  -47.6467 O.2       13 UNK        -0.5000 
     79 N          -4.9213  -23.2200  -46.3283 N.am      14 UNK        -0.5000 
     80 CA         -5.1620  -24.5043  -45.6670 C.3       14 UNK         0.1400 
     81 CB         -4.1251  -24.7160  -44.5538 C.3       14 UNK        -0.1800 
     82 C          -5.1126  -25.6523  -46.6901 C.2       14 UNK         0.5000 
     83 O          -4.1262  -25.7682  -47.4181 O.2       14 UNK        -0.5000 
     84 N          -6.2028  -26.4270  -46.7782 N.am      15 UNK        -0.5000 
     85 CA         -6.4440  -27.4780  -47.7784 C.3       15 UNK         0.1400 
     86 CB         -5.5000  -28.6767  -47.5461 C.3       15 UNK        -0.1800 
     87 C          -6.4065  -26.9595  -49.2372 C.2       15 UNK         0.5000 
     88 O          -6.0487  -27.7090  -50.1470 O.2       15 UNK        -0.5000 
     89 N          -6.7687  -25.6795  -49.4241 N.am      16 UNK        -0.5000 
     90 CA         -6.7697  -24.9195  -50.6785 C.3       16 UNK         0.1400 
     91 CB         -7.7497  -25.5271  -51.7040 C.3       16 UNK        -0.1800 
     92 C          -5.3628  -24.6765  -51.2670 C.2       16 UNK         0.5000 
     93 O          -5.2423  -24.4226  -52.4660 O.2       16 UNK        -0.5000 
     94 N          -4.3202  -24.7016  -50.4207 N.am      17 UNK        -0.5000 
     95 CA         -2.9112  -24.5141  -50.7964 C.3       17 UNK         0.1400 
     96 CB         -2.0279  -24.7730  -49.5703 C.3       17 UNK        -0.1800 
     97 C          -2.5687  -23.1545  -51.4445 C.2       17 UNK         0.5000 
     98 O          -1.5253  -23.0380  -52.0901 O.2       17 UNK        -0.5000 
     99 N          -3.4700  -22.1682  -51.3385 N.am      18 UNK        -0.5000 
    100 CA        -3.3981  -20.9005  -52.0680 C.3       18 UNK         0.1400 
    101 CB        -4.4875  -19.9457  -51.5671 C.3       18 UNK        -0.1800 
    102 C         -3.4758  -21.0735  -53.5988 C.2       18 UNK         0.5000 
    103 O         -2.9543  -20.2275  -54.3253 O.2       18 UNK        -0.5000 
    104 N         -4.0575  -22.1878  -54.0699 N.am      19 UNK        -0.5000 
    105 CA        -4.0546  -22.5960  -55.4763 C.3       19 UNK         0.1400 
    106 CB        -5.0316  -23.7656  -55.6667 C.3       19 UNK        -0.1800 
    107 C         -2.6528  -22.9751  -55.9995 C.2       19 UNK         0.5000 
    108 O         -2.4325  -22.9120  -57.2092 O.2       19 UNK        -0.5000 
    109 N         -1.7344  -23.3440  -55.0945 N.am      20 UNK        -0.5000 
    110 CA        -0.3284  -23.5956  -55.4018 C.3       20 UNK         0.1400 
    111 CB         0.1843  -24.7661  -54.5473 C.3       20 UNK        -0.1800 
    112 C          0.5238  -22.3355  -55.1723 C.2       20 UNK         0.5000 
    113 O          1.3968  -22.0465  -55.9913 O.2       20 UNK        -0.5000 
    114 N          0.2685  -21.6130  -54.0691 N.am      21 UNK        -0.5000 
    115 CA         1.0199  -20.4136  -53.6820 C.3       21 UNK         0.1400 
    116 CB         0.6919  -20.0389  -52.2291 C.3       21 UNK        -0.1800 
    117 C          0.7868  -19.2141  -54.6202 C.2       21 UNK         0.5000 
    118 O          1.7482  -18.5316  -54.9772 O.2       21 UNK        -0.5000 
    119 N         -0.4739  -18.9958  -55.0077 N.am      22 UNK        -0.5000 
    120 CA        -0.9055  -17.9784  -55.9771 C.3       22 UNK         0.1400 
    121 C         -1.5251  -18.6448  -57.2310 C.2       22 UNK         0.5000 
    122 N         -2.4069  -19.6222  -57.0674 N.am      22 UNK        -0.7600 
    123 O         -1.2022  -18.2776  -58.3573 O.2       22 UNK        -0.5000 
    124 C124       -1.9141  -16.9772  -55.3600 C.3       23 UNK        -0.0398 
    125 S125       -1.1697  -15.9281  -54.0701 S.3       23 UNK        -0.2404 
    126 C126       -1.9099  -16.6239  -52.5619 C.3       23 UNK        -0.0205 
    127 H127       -7.7866  -15.9210  -45.3153 H         1 UNK         0.0600 
    128 H128       -6.9104  -17.1729  -44.4280 H         1 UNK         0.0600 
    129 H129       -6.5744  -16.9041  -46.1407 H         1 UNK         0.0600 
    130 H130       -4.6049  -15.8759  -46.4186 H         1 UNK         0.3000 
    131 H131       -3.9785  -13.3997  -44.9865 H         1 UNK         0.0600 
    132 H132       -2.4646  -14.7931  -47.2296 H         1 UNK         0.0800 
    133 H133       -2.2293  -13.1492  -46.6779 H         1 UNK         0.0800 
    134 H134       -2.3951  -11.9680  -49.0232 H         1 UNK         0.0800 
    135 H135       -3.5531  -12.4278  -50.2418 H         1 UNK         0.0800 
    136 H136       -3.3440  -14.5906  -51.4458 H         1 UNK         0.1150 
    137 H137        0.3238  -16.7758  -51.0034 H         1 UNK         0.1150 
    138 H138       -0.5407  -13.4797  -48.4090 H         1 UNK         0.1150 
    139 H139        2.1586  -15.3415  -49.5638 H         1 UNK         0.0800 
    140 H140        1.5014  -14.6093  -48.1242 H         1 UNK         0.0800 
    141 H141       -0.5839  -16.0336  -47.0256 H         1 UNK         0.0800 
    142 H142        0.1408  -17.2004  -45.9516 H         1 UNK         0.0800 
    143 H143       -1.2961  -17.9099  -48.5558 H         1 UNK         0.0600 
    144 H144        0.3041  -19.5292  -46.8244 H         1 UNK         0.3000 
    145 H145       -0.9069  -22.6615  -48.0575 H         1 UNK         0.0600 
    146 H146        1.6017  -22.8562  -48.2168 H         1 UNK         0.0600 
    147 H147        0.8834  -21.9851  -49.5582 H         1 UNK         0.0600 
    148 H148        1.7111  -21.0965  -48.2860 H         1 UNK         0.0600 
    149 H149        0.8973  -21.8535  -45.9547 H         1 UNK         0.3000 
    150 H150       -1.4708  -22.1296  -43.3157 H         1 UNK         0.0600 
    151 H151       -0.9218  -24.5107  -43.8315 H         1 UNK         0.0600 
    152 H152        0.0796  -23.8922  -42.5291 H         1 UNK         0.0600 
    153 H153        0.7508  -24.0690  -44.1508 H         1 UNK         0.0600 
    154 H154        1.3590  -21.8071  -43.2957 H         1 UNK         0.3000 
    155 H155        1.3545  -18.2201  -43.4618 H         1 UNK         0.0600 
    156 H156        2.0555  -20.2689  -41.2915 H         1 UNK         0.0600 
    157 H157        0.8540  -18.9945  -41.1151 H         1 UNK         0.0600 
    158 H158        2.5424  -18.5737  -41.3470 H         1 UNK         0.0600 
    159 H159        3.6089  -19.7279  -43.2404 H         1 UNK         0.3000 
    160 H160        4.7972  -20.9232  -45.2031 H         1 UNK         0.0600 
    161 H161        4.2362  -19.0747  -47.5851 H         1 UNK         0.0600 
    162 H162        4.0420  -20.8239  -47.5575 H         1 UNK         0.0600 
    163 H163        5.6449  -20.1235  -47.4169 H         1 UNK         0.0600 
    164 H164        5.4409  -18.1005  -45.6652 H         1 UNK         0.3000 
    165 H165        6.2291  -17.3176  -42.3448 H         1 UNK         0.0600 
    166 H166        8.4883  -16.7296  -43.1903 H         1 UNK         0.0600 
    167 H167        8.3597  -18.4665  -42.9670 H         1 UNK         0.0600 
    168 H168        8.2703  -17.7856  -44.5869 H         1 UNK         0.0600 
    169 H169        6.6643  -15.9258  -44.7978 H         1 UNK         0.3000 
    170 H170        5.2644  -13.9215  -44.9496 H         1 UNK         0.0600 
    171 H171        5.4552  -15.5439  -46.8285 H         1 UNK         0.0600 
    172 H172        3.7583  -15.9739  -46.6775 H         1 UNK         0.0600 
    173 H173        4.2208  -14.3691  -47.2378 H         1 UNK         0.0600 
    174 H174        2.5626  -14.6265  -44.2117 H         1 UNK         0.3000 
    175 H175        1.5046  -11.2825  -44.4379 H         1 UNK         0.0600 
    176 H176        0.3377  -13.4342  -46.2619 H         1 UNK         0.0600 
    177 H177       -0.4788  -11.9623  -45.7204 H         1 UNK         0.0600 
    178 H178        0.9092  -11.8565  -46.7908 H         1 UNK         0.0600 
    179 H179        0.0280  -13.6728  -43.8376 H         1 UNK         0.3000 
    180 H180        0.9215  -14.1656  -40.6338 H         1 UNK         0.0600 
    181 H181       -0.9056  -12.8947  -39.5057 H         1 UNK         0.0600 
    182 H182       -0.9546  -11.7528  -40.8488 H         1 UNK         0.0600 
    183 H183        0.4770  -11.8650  -39.8318 H         1 UNK         0.0600 
    184 H184       -1.6747  -13.8020  -42.0374 H         1 UNK         0.3000 
    185 H185       -1.8031  -17.1582  -43.0618 H         1 UNK         0.0600 
    186 H186       -2.4519  -17.4891  -40.6828 H         1 UNK         0.0600 
    187 H187       -3.3331  -15.9652  -40.6871 H         1 UNK         0.0600 
    188 H188       -3.8851  -17.3092  -41.6827 H         1 UNK         0.0600 
    189 H189       -3.9273  -15.4059  -43.1542 H         1 UNK         0.3000 
    190 H190       -1.9392  -19.3247  -45.3505 H         1 UNK         0.3000 
    191 H191       -4.4740  -18.0514  -44.9370 H         1 UNK         0.0600 
    192 H192       -4.7684  -19.8096  -43.2139 H         1 UNK         0.0600 
    193 H193       -3.1656  -19.1141  -43.0992 H         1 UNK         0.0600 
    194 H194       -3.3866  -20.6935  -43.8442 H         1 UNK         0.0600 
    195 H195       -3.5404  -20.3916  -47.2300 H         1 UNK         0.3000 
    196 H196       -4.5294  -21.6688  -48.7013 H         1 UNK         0.0600 
    197 H197       -7.2492  -20.4681  -47.9714 H         1 UNK         0.0600 
    198 H198       -6.0860  -19.6610  -49.0128 H         1 UNK         0.0600 
    199 H199       -6.7776  -21.2050  -49.4934 H         1 UNK         0.0600 
    200 H200       -4.0367  -22.7660  -46.1147 H         1 UNK         0.3000 
    201 H201       -6.1531  -24.4656  -45.2105 H         1 UNK         0.0600 
    202 H202       -3.1175  -24.8133  -44.9590 H         1 UNK         0.0600 
    203 H203       -4.3395  -25.6246  -43.9903 H         1 UNK         0.0600 
    204 H204       -4.1243  -23.8848  -43.8484 H         1 UNK         0.0600 
    205 H205       -6.9761  -26.2386  -46.1551 H         1 UNK         0.3000 
    206 H206       -7.4639  -27.8275  -47.6126 H         1 UNK         0.0600 
    207 H207       -5.5503  -29.0241  -46.5142 H         1 UNK         0.0600 
    208 H208       -5.7718  -29.5188  -48.1834 H         1 UNK         0.0600 
    209 H209       -4.4620  -28.4240  -47.7649 H         1 UNK         0.0600 
    210 H210       -7.0081  -25.1328  -48.6038 H         1 UNK         0.3000 
    211 H211       -7.1504  -23.9306  -50.4198 H         1 UNK         0.0600 
    212 H212       -7.8799  -24.8645  -52.5605 H         1 UNK         0.0600 
    213 H213       -8.7349  -25.6829  -51.2647 H         1 UNK         0.0600 
    214 H214       -7.3964  -26.4847  -52.0870 H         1 UNK         0.0600 
    215 H215       -4.4881  -24.9576  -49.4548 H         1 UNK         0.3000 
    216 H216       -2.6725  -25.2729  -51.5442 H         1 UNK         0.0600 
    217 H217       -2.3580  -24.1814  -48.7169 H         1 UNK         0.0600 
    218 H218       -0.9821  -24.5321  -49.7672 H         1 UNK         0.0600 
    219 H219       -2.0671  -25.8223  -49.2774 H         1 UNK         0.0600 
    220 H220       -4.3127  -22.3480  -50.8172 H         1 UNK         0.3000 
    221 H221       -2.4343  -20.4459  -51.8416 H         1 UNK         0.0600 
    222 H222       -4.3137  -19.6820  -50.5242 H         1 UNK         0.0600 
    223 H223       -5.4827  -20.3830  -51.6534 H         1 UNK         0.0600 
    224 H224       -4.4851  -19.0143  -52.1352 H         1 UNK         0.0600 
    225 H225       -4.4625  -22.8514  -53.4160 H         1 UNK         0.3000 
    226 H226       -4.4137  -21.7543  -56.0718 H         1 UNK         0.0600 
    227 H227       -4.7067  -24.6529  -55.1221 H         1 UNK         0.0600 
    228 H228       -6.0321  -23.5067  -55.3195 H         1 UNK         0.0600 
    229 H229       -5.1126  -24.0391  -56.7194 H         1 UNK         0.0600 
    230 H230       -1.9855  -23.3497  -54.1141 H         1 UNK         0.3000 
    231 H231       -0.2231  -23.8842  -56.4499 H         1 UNK         0.0600 
    232 H232        0.1431  -24.5446  -53.4808 H         1 UNK         0.0600 
    233 H233        1.2213  -24.9992  -54.7917 H         1 UNK         0.0600 
    234 H234       -0.4016  -25.6681  -54.7243 H         1 UNK         0.0600 
    235 H235       -0.4245  -21.9545  -53.4126 H         1 UNK         0.3000 
    236 H236        2.0821  -20.6635  -53.7258 H         1 UNK         0.0600 
    237 H237        0.8681  -20.8785  -51.5592 H         1 UNK         0.0600 
    238 H238        1.3179  -19.2129  -51.8890 H         1 UNK         0.0600 
    239 H239       -0.3441  -19.7277  -52.1140 H         1 UNK         0.0600 
    240 H240       -1.2070  -19.6147  -54.6776 H         1 UNK         0.3000 
    241 H241       -0.0430  -17.4068  -56.3253 H         1 UNK         0.0600 
    242 H242       -2.7982  -20.0796  -57.8753 H         1 UNK         0.3800 
    243 H243       -2.6954  -19.8985  -56.1341 H         1 UNK         0.3800 
    244 H244       -2.7833  -17.5009  -54.9585 H         1 UNK         0.0800 
    245 H245       -2.2984  -16.3048  -56.1293 H         1 UNK         0.0800 
    246 H246       -1.5624  -17.6479  -52.4209 H         1 UNK         0.0800 
    247 H247       -2.9943  -16.6746  -52.6714 H         1 UNK         0.0800 
@<TRIPOS>BOND
     1    1    2 1    
     2    1  127 1    
     3    1  128 1    
     4    1  129 1    
     5    2    3 2    
     6    2    4 am   BACKBONE|DICT|INTERRES
     7    4    5 1    
     8    4  130 1    
     9    5    6 1    
    10    5   65 1    
    11    5  131 1    
    12    6    7 1    
    13    6  132 1    
    14    6  133 1    
    15    7    8 1    
    16    8    9 1    
    17    8  134 1    
    18    8  135 1    
    19    9   10 ar   
    20    9   14 ar   
    21   10   11 ar   
    22   10  136 1    
    23   11   12 ar   
    24   11  126 1    
    25   12   13 ar   
    26   12  137 1    
    27   13   14 ar   
    28   13   15 1    
    29   14  138 1    
    30   15   16 1    
    31   15  139 1    
    32   15  140 1    
    33   16   17 1    
    34   17   18 1    
    35   17  141 1    
    36   17  142 1    
    37   18   19 1    
    38   18   67 1    
    39   18  143 1    
    40   19   20 am   BACKBONE|DICT|INTERRES
    41   19  144 1    
    42   20   21 2    
    43   20   22 1    
    44   22   23 1    
    45   22   24 1    
    46   22  145 1    
    47   23  146 1    
    48   23  147 1    
    49   23  148 1    
    50   24   25 am   BACKBONE|DICT|INTERRES
    51   24  149 1    
    52   25   26 2    
    53   25   27 1    
    54   27   28 1    
    55   27   29 1    
    56   27  150 1    
    57   28  151 1    
    58   28  152 1    
    59   28  153 1    
    60   29   30 am   BACKBONE|DICT|INTERRES
    61   29  154 1    
    62   30   31 2    
    63   30   32 1    
    64   32   33 1    
    65   32   34 1    
    66   32  155 1    
    67   33  156 1    
    68   33  157 1    
    69   33  158 1    
    70   34   35 am   BACKBONE|DICT|INTERRES
    71   34  159 1    
    72   35   36 2    
    73   35   37 1    
    74   37   38 1    
    75   37   39 1    
    76   37  160 1    
    77   38  161 1    
    78   38  162 1    
    79   38  163 1    
    80   39   40 am   BACKBONE|DICT|INTERRES
    81   39  164 1    
    82   40   41 2    
    83   40   42 1    
    84   42   43 1    
    85   42   44 1    
    86   42  165 1    
    87   43  166 1    
    88   43  167 1    
    89   43  168 1    
    90   44   45 am   BACKBONE|DICT|INTERRES
    91   44  169 1    
    92   45   46 2    
    93   45   47 1    
    94   47   48 1    
    95   47   49 1    
    96   47  170 1    
    97   48  171 1    
    98   48  172 1    
    99   48  173 1    
   100   49   50 am   BACKBONE|DICT|INTERRES
   101   49  174 1    
   102   50   51 2    
   103   50   52 1    
   104   52   53 1    
   105   52   54 1    
   106   52  175 1    
   107   53  176 1    
   108   53  177 1    
   109   53  178 1    
   110   54   55 am   BACKBONE|DICT|INTERRES
   111   54  179 1    
   112   55   56 2    
   113   55   57 1    
   114   57   58 1    
   115   57   59 1    
   116   57  180 1    
   117   58  181 1    
   118   58  182 1    
   119   58  183 1    
   120   59   60 am   BACKBONE|DICT|INTERRES
   121   59  184 1    
   122   60   61 2    
   123   60   62 1    
   124   62   63 1    
   125   62   64 1    
   126   62  185 1    
   127   63  186 1    
   128   63  187 1    
   129   63  188 1    
   130   64   65 am   BACKBONE|DICT|INTERRES
   131   64  189 1    
   132   65   66 2    
   133   67   68 2    
   134   67   69 am   BACKBONE|DICT|INTERRES
   135   69   70 1    
   136   69  190 1    
   137   70   71 1    
   138   70   72 1    
   139   70  191 1    
   140   71  192 1    
   141   71  193 1    
   142   71  194 1    
   143   72   73 2    
   144   72   74 am   BACKBONE|DICT|INTERRES
   145   74   75 1    
   146   74  195 1    
   147   75   76 1    
   148   75   77 1    
   149   75  196 1    
   150   76  197 1    
   151   76  198 1    
   152   76  199 1    
   153   77   78 2    
   154   77   79 am   BACKBONE|DICT|INTERRES
   155   79   80 1    
   156   79  200 1    
   157   80   81 1    
   158   80   82 1    
   159   80  201 1    
   160   81  202 1    
   161   81  203 1    
   162   81  204 1    
   163   82   83 2    
   164   82   84 am   BACKBONE|DICT|INTERRES
   165   84   85 1    
   166   84  205 1    
   167   85   86 1    
   168   85   87 1    
   169   85  206 1    
   170   86  207 1    
   171   86  208 1    
   172   86  209 1    
   173   87   88 2    
   174   87   89 am   BACKBONE|DICT|INTERRES
   175   89   90 1    
   176   89  210 1    
   177   90   91 1    
   178   90   92 1    
   179   90  211 1    
   180   91  212 1    
   181   91  213 1    
   182   91  214 1    
   183   92   93 2    
   184   92   94 am   BACKBONE|DICT|INTERRES
   185   94   95 1    
   186   94  215 1    
   187   95   96 1    
   188   95   97 1    
   189   95  216 1    
   190   96  217 1    
   191   96  218 1    
   192   96  219 1    
   193   97   98 2    
   194   97   99 am   BACKBONE|DICT|INTERRES
   195   99  100 1    
   196   99  220 1    
   197  100  101 1    
   198  100  102 1    
   199  100  221 1    
   200  101  222 1    
   201  101  223 1    
   202  101  224 1    
   203  102  103 2    
   204  102  104 am   BACKBONE|DICT|INTERRES
   205  104  105 1    
   206  104  225 1    
   207  105  106 1    
   208  105  107 1    
   209  105  226 1    
   210  106  227 1    
   211  106  228 1    
   212  106  229 1    
   213  107  108 2    
   214  107  109 am   BACKBONE|DICT|INTERRES
   215  109  110 1    
   216  109  230 1    
   217  110  111 1    
   218  110  112 1    
   219  110  231 1    
   220  111  232 1    
   221  111  233 1    
   222  111  234 1    
   223  112  113 2    
   224  112  114 am   BACKBONE|DICT|INTERRES
   225  114  115 1    
   226  114  235 1    
   227  115  116 1    
   228  115  117 1    
   229  115  236 1    
   230  116  237 1    
   231  116  238 1    
   232  116  239 1    
   233  117  118 2    
   234  117  119 am   BACKBONE|DICT|INTERRES
   235  119  120 1    
   236  119  240 1    
   237  120  121 1    
   238  120  124 1    
   239  120  241 1    
   240  121  122 am   BACKBONE|DICT|INTERRES
   241  121  123 2    
   242  122  242 1    
   243  122  243 1    
   244  124  125 1    
   245  124  244 1    
   246  124  245 1    
   247  125  126 1    
   248  126  246 1    
   249  126  247 1    
@<TRIPOS>SUBSTRUCTURE
     1 UNK         1 GROUP             0       ****    0 ROOT    
