@<TRIPOS>MOLECULE
3R540
247   249    1
SMALL
USER_CHARGES


@<TRIPOS>ATOM
      1 CA          2.7753   -9.9261  -47.9483 C.3       0 UNK        -0.1800 
      2 C           2.7157  -11.1692  -47.0741 C.2       0 UNK         0.5000 
      3 O           2.9675  -11.0832  -45.8722 O.2       0 UNK        -0.5000 
      4 N           2.3567  -12.3184  -47.6618 N.am      1 UNK        -0.5000 
      5 CA          2.3116  -13.6425  -47.0196 C.3       1 UNK         0.1400 
      6 C6          1.9629  -14.7634  -48.0301 C.3       23 UNK        -0.0398 
      7 S7          3.1028  -14.8596  -49.4478 S.3       23 UNK        -0.2404 
      8 C8          1.9348  -15.1396  -50.8215 C.3       23 UNK        -0.0205 
      9 C9          1.2083  -16.4756  -50.7105 C.ar      23 UNK        -0.0193 
     10 C10        -0.1761  -16.5223  -50.5117 C.ar      23 UNK        -0.1150 
     11 C11        -0.8391  -17.7516  -50.4413 C.ar      23 UNK        -0.0193 
     12 C12        -0.1098  -18.9348  -50.5735 C.ar      23 UNK        -0.1150 
     13 C13         1.2799  -18.9085  -50.7426 C.ar      23 UNK        -0.0193 
     14 C14         1.9247  -17.6708  -50.8234 C.ar      23 UNK        -0.1150 
     15 C15         2.1251  -20.1797  -50.8522 C.3       23 UNK        -0.0205 
     16 S16         1.3659  -21.7100  -50.2031 S.3       23 UNK        -0.2404 
     17 C17         1.0856  -21.2743  -48.4503 C.3       23 UNK        -0.0398 
     18 CA          0.3778  -22.3795  -47.6319 C.3       11 UNK         0.1400 
     19 N           0.2948  -22.0217  -46.2168 N.am      11 UNK        -0.5000 
     20 C          -0.0661  -22.8563  -45.2330 C.2       10 UNK         0.5000 
     21 O          -0.3494  -24.0422  -45.4080 O.2       10 UNK        -0.5000 
     22 CA         -0.1764  -22.2444  -43.8246 C.3       10 UNK         0.1400 
     23 CB          1.2132  -21.9951  -43.2193 C.3       10 UNK        -0.1800 
     24 N          -0.9408  -20.9971  -43.8185 N.am      10 UNK        -0.5000 
     25 C          -2.2310  -20.8963  -44.1686 C.2       9 UNK         0.5000 
     26 O          -2.9308  -21.8516  -44.5052 O.2       9 UNK        -0.5000 
     27 CA         -2.8254  -19.4792  -44.1907 C.3       9 UNK         0.1400 
     28 CB         -3.2032  -19.0163  -42.7753 C.3       9 UNK        -0.1800 
     29 N          -1.9178  -18.5082  -44.8005 N.am      9 UNK        -0.5000 
     30 C          -1.5651  -18.5120  -46.0933 C.2       8 UNK         0.5000 
     31 O          -1.9503  -19.3443  -46.9090 O.2       8 UNK        -0.5000 
     32 CA         -0.5898  -17.4158  -46.5435 C.3       8 UNK         0.1400 
     33 CB         -1.3343  -16.0757  -46.6348 C.3       8 UNK        -0.1800 
     34 N           0.5663  -17.2974  -45.6538 N.am      8 UNK        -0.5000 
     35 C           1.4339  -18.2886  -45.3999 C.2       7 UNK         0.5000 
     36 O           1.3907  -19.3958  -45.9335 O.2       7 UNK        -0.5000 
     37 CA          2.4964  -18.0230  -44.3225 C.3       7 UNK         0.1400 
     38 CB          3.7402  -17.3600  -44.9335 C.3       7 UNK        -0.1800 
     39 N           2.0022  -17.2106  -43.2106 N.am      7 UNK        -0.5000 
     40 C           0.9914  -17.5354  -42.3900 C.2       6 UNK         0.5000 
     41 O           0.3229  -18.5634  -42.5184 O.2       6 UNK        -0.5000 
     42 CA          0.6922  -16.5602  -41.2290 C.3       6 UNK         0.1400 
     43 CB          0.2112  -17.3034  -39.9703 C.3       6 UNK        -0.1800 
     44 N           1.8760  -15.7655  -40.8864 N.am      6 UNK        -0.5000 
     45 C           2.1359  -14.5344  -41.3408 C.2       5 UNK         0.5000 
     46 O           1.3299  -13.8583  -41.9829 O.2       5 UNK        -0.5000 
     47 CA          3.5503  -13.9923  -41.0719 C.3       5 UNK         0.1400 
     48 CB          4.6405  -14.9953  -41.5125 C.3       5 UNK        -0.1800 
     49 N           3.7071  -12.7408  -41.8026 N.am      5 UNK        -0.5000 
     50 C           4.6705  -11.8302  -41.6329 C.2       4 UNK         0.5000 
     51 O           5.5566  -11.9205  -40.7819 O.2       4 UNK        -0.5000 
     52 CA          4.6526  -10.6168  -42.5811 C.3       4 UNK         0.1400 
     53 CB          5.6546  -10.8223  -43.7280 C.3       4 UNK        -0.1800 
     54 N           3.3325  -10.3542  -43.1561 N.am      4 UNK        -0.5000 
     55 C           2.3234   -9.7637  -42.5021 C.2       3 UNK         0.5000 
     56 O           2.3920   -9.3940  -41.3294 O.2       3 UNK        -0.5000 
     57 CA          1.0217   -9.5519  -43.2881 C.3       3 UNK         0.1400 
     58 CB          1.1645   -8.3678  -44.2584 C.3       3 UNK        -0.1800 
     59 N           0.6590  -10.7500  -44.0449 N.am      3 UNK        -0.5000 
     60 C          -0.3513  -11.5739  -43.7330 C.2       2 UNK         0.5000 
     61 O          -1.0737  -11.4184  -42.7471 O.2       2 UNK        -0.5000 
     62 CA         -0.6459  -12.7444  -44.6941 C.3       2 UNK         0.1400 
     63 CB         -2.0356  -12.5664  -45.3302 C.3       2 UNK        -0.1800 
     64 N           0.3395  -12.8489  -45.7722 N.am      2 UNK        -0.5000 
     65 C           1.3485  -13.7285  -45.8132 C.2       1 UNK         0.5000 
     66 O           1.5247  -14.6067  -44.9693 O.2       1 UNK        -0.5000 
     67 C          -1.0061  -22.7557  -48.2023 C.2       11 UNK         0.5000 
     68 O          -1.1116  -23.7744  -48.8817 O.2       11 UNK        -0.5000 
     69 N          -2.0500  -21.9741  -47.8893 N.am      12 UNK        -0.5000 
     70 CA         -3.4187  -22.2265  -48.3404 C.3       12 UNK         0.1400 
     71 CB         -4.3307  -21.0441  -47.9851 C.3       12 UNK        -0.1800 
     72 C          -4.0173  -23.5378  -47.8095 C.2       12 UNK         0.5000 
     73 O          -4.7466  -24.1973  -48.5503 O.2       12 UNK        -0.5000 
     74 N          -3.6907  -23.8905  -46.5586 N.am      13 UNK        -0.5000 
     75 CA         -4.0663  -25.1570  -45.9331 C.3       13 UNK         0.1400 
     76 CB         -3.8252  -25.0722  -44.4185 C.3       13 UNK        -0.1800 
     77 C          -3.3116  -26.3530  -46.5397 C.2       13 UNK         0.5000 
     78 O          -3.9174  -27.4039  -46.7533 O.2       13 UNK        -0.5000 
     79 N          -2.0123  -26.1716  -46.8234 N.am      14 UNK        -0.5000 
     80 CA         -1.1689  -27.1587  -47.5016 C.3       14 UNK         0.1400 
     81 CB          0.3005  -26.7143  -47.4473 C.3       14 UNK        -0.1800 
     82 C          -1.6216  -27.4046  -48.9527 C.2       14 UNK         0.5000 
     83 O          -1.7279  -28.5560  -49.3753 O.2       14 UNK        -0.5000 
     84 N          -1.9535  -26.3214  -49.6651 N.am      15 UNK        -0.5000 
     85 CA         -2.5277  -26.3094  -51.0100 C.3       15 UNK         0.1400 
     86 CB         -2.1177  -25.0004  -51.7063 C.3       15 UNK        -0.1800 
     87 C          -4.0588  -26.5099  -50.9930 C.2       15 UNK         0.5000 
     88 O          -4.7737  -25.8253  -51.7292 O.2       15 UNK        -0.5000 
     89 N          -4.5262  -27.4453  -50.1538 N.am      16 UNK        -0.5000 
     90 CA         -5.8991  -27.9100  -49.9312 C.3       16 UNK         0.1400 
     91 CB         -6.4472  -28.6171  -51.1866 C.3       16 UNK        -0.1800 
     92 C          -6.8756  -26.8322  -49.4222 C.2       16 UNK         0.5000 
     93 O          -7.4105  -26.9639  -48.3203 O.2       16 UNK        -0.5000 
     94 N          -7.1085  -25.8090  -50.2456 N.am      17 UNK        -0.5000 
     95 CA         -8.0189  -24.6973  -50.0140 C.3       17 UNK         0.1400 
     96 CB         -9.4795  -25.1494  -50.2205 C.3       17 UNK        -0.1800 
     97 C          -7.6085  -23.5335  -50.9292 C.2       17 UNK         0.5000 
     98 O          -8.3920  -23.1087  -51.7802 O.2       17 UNK        -0.5000 
     99 N          -6.3690  -23.0572  -50.7450 N.am      18 UNK        -0.5000 
    100 CA        -5.7593  -21.9162  -51.4420 C.3       18 UNK         0.1400 
    101 CB        -6.5252  -20.6102  -51.1384 C.3       18 UNK        -0.1800 
    102 C         -5.5380  -22.1455  -52.9518 C.2       18 UNK         0.5000 
    103 O         -5.6342  -21.2007  -53.7385 O.2       18 UNK        -0.5000 
    104 N         -5.1993  -23.3860  -53.3378 N.am      19 UNK        -0.5000 
    105 CA        -4.9038  -23.7608  -54.7261 C.3       19 UNK         0.1400 
    106 CB        -4.9030  -25.2915  -54.8596 C.3       19 UNK        -0.1800 
    107 C         -3.5845  -23.1661  -55.2631 C.2       19 UNK         0.5000 
    108 O         -3.3819  -23.1470  -56.4779 O.2       19 UNK        -0.5000 
    109 N         -2.7242  -22.6599  -54.3676 N.am      20 UNK        -0.5000 
    110 CA        -1.4635  -21.9691  -54.6526 C.3       20 UNK         0.1400 
    111 CB        -0.5925  -21.9975  -53.3827 C.3       20 UNK        -0.1800 
    112 C         -1.6756  -20.5339  -55.1887 C.2       20 UNK         0.5000 
    113 O         -1.0905  -19.5850  -54.6662 O.2       20 UNK        -0.5000 
    114 N         -2.5329  -20.4003  -56.2095 N.am      21 UNK        -0.5000 
    115 CA        -2.9263  -19.2018  -56.9641 C.3       21 UNK         0.1400 
    116 CB        -1.7102  -18.5885  -57.6845 C.3       21 UNK        -0.1800 
    117 C         -3.6977  -18.1195  -56.1771 C.2       21 UNK         0.5000 
    118 O         -4.4587  -17.3719  -56.7934 O.2       21 UNK        -0.5000 
    119 N         -3.4936  -18.0315  -54.8589 N.am      22 UNK        -0.5000 
    120 CA        -4.0897  -17.0228  -53.9716 C.3       22 UNK         0.1400 
    121 C         -5.6227  -17.1517  -53.7279 C.2       22 UNK         0.5000 
    122 N         -6.2472  -18.2992  -53.9611 N.am      22 UNK        -0.7600 
    123 O         -6.2624  -16.1787  -53.3372 O.2       22 UNK        -0.5000 
    124 C124       -3.2929  -16.8867  -52.6496 C.3       23 UNK        -0.0398 
    125 S125       -3.2543  -18.4099  -51.6439 S.3       23 UNK        -0.2404 
    126 C126       -2.3373  -17.8213  -50.1871 C.3       23 UNK        -0.0205 
    127 H127        3.7713   -9.4857  -47.9033 H         1 UNK         0.0600 
    128 H128        2.0577   -9.1855  -47.5957 H         1 UNK         0.0600 
    129 H129        2.5493  -10.1520  -48.9906 H         1 UNK         0.0600 
    130 H130        2.1693  -12.3193  -48.6544 H         1 UNK         0.3000 
    131 H131        3.3124  -13.8394  -46.6297 H         1 UNK         0.0600 
    132 H132        0.9526  -14.6144  -48.4114 H         1 UNK         0.0800 
    133 H133        1.9708  -15.7412  -47.5459 H         1 UNK         0.0800 
    134 H134        2.4884  -15.1177  -51.7612 H         1 UNK         0.0800 
    135 H135        1.2254  -14.3119  -50.8684 H         1 UNK         0.0800 
    136 H136       -0.7377  -15.6040  -50.4142 H         1 UNK         0.1150 
    137 H137       -0.6390  -19.8754  -50.5273 H         1 UNK         0.1150 
    138 H138        2.9953  -17.6334  -50.9700 H         1 UNK         0.1150 
    139 H139        2.3664  -20.3385  -51.9038 H         1 UNK         0.0800 
    140 H140        3.0748  -20.0299  -50.3362 H         1 UNK         0.0800 
    141 H141        0.5165  -20.3470  -48.3839 H         1 UNK         0.0800 
    142 H142        2.0588  -21.0591  -48.0070 H         1 UNK         0.0800 
    143 H143        1.0000  -23.2751  -47.6926 H         1 UNK         0.0600 
    144 H144        0.5292  -21.0586  -45.9879 H         1 UNK         0.3000 
    145 H145       -0.7019  -22.9610  -43.1900 H         1 UNK         0.0600 
    146 H146        1.1365  -21.6155  -42.2001 H         1 UNK         0.0600 
    147 H147        1.7834  -21.2713  -43.8020 H         1 UNK         0.0600 
    148 H148        1.7936  -22.9177  -43.1816 H         1 UNK         0.0600 
    149 H149       -0.4495  -20.1560  -43.5322 H         1 UNK         0.3000 
    150 H150       -3.7370  -19.5102  -44.7911 H         1 UNK         0.0600 
    151 H151       -3.9053  -19.7119  -42.3138 H         1 UNK         0.0600 
    152 H152       -3.6821  -18.0373  -42.7952 H         1 UNK         0.0600 
    153 H153       -2.3320  -18.9504  -42.1230 H         1 UNK         0.0600 
    154 H154       -1.4979  -17.8289  -44.1839 H         1 UNK         0.3000 
    155 H155       -0.2234  -17.6795  -47.5378 H         1 UNK         0.0600 
    156 H156       -2.2423  -16.1718  -47.2319 H         1 UNK         0.0600 
    157 H157       -0.7285  -15.3098  -47.1089 H         1 UNK         0.0600 
    158 H158       -1.6263  -15.7111  -45.6495 H         1 UNK         0.0600 
    159 H159        0.7118  -16.4070  -45.1880 H         1 UNK         0.3000 
    160 H160        2.7952  -18.9897  -43.9129 H         1 UNK         0.0600 
    161 H161        3.5208  -16.3666  -45.3251 H         1 UNK         0.0600 
    162 H162        4.1345  -17.9562  -45.7575 H         1 UNK         0.0600 
    163 H163        4.5366  -17.2616  -44.1958 H         1 UNK         0.0600 
    164 H164        2.4466  -16.3144  -43.0799 H         1 UNK         0.3000 
    165 H165       -0.1167  -15.9071  -41.5624 H         1 UNK         0.0600 
    166 H166        0.0055  -16.6071  -39.1572 H         1 UNK         0.0600 
    167 H167       -0.7113  -17.8520  -40.1649 H         1 UNK         0.0600 
    168 H168        0.9532  -18.0211  -39.6187 H         1 UNK         0.0600 
    169 H169        2.5954  -16.2528  -40.3709 H         1 UNK         0.3000 
    170 H170        3.6381  -13.7948  -40.0019 H         1 UNK         0.0600 
    171 H171        4.5644  -15.2252  -42.5759 H         1 UNK         0.0600 
    172 H172        5.6412  -14.6034  -41.3317 H         1 UNK         0.0600 
    173 H173        4.5723  -15.9351  -40.9643 H         1 UNK         0.0600 
    174 H174        2.9707  -12.5633  -42.4750 H         1 UNK         0.3000 
    175 H175        4.9656   -9.7421  -42.0072 H         1 UNK         0.0600 
    176 H176        5.3897  -11.6840  -44.3424 H         1 UNK         0.0600 
    177 H177        5.6943   -9.9482  -44.3782 H         1 UNK         0.0600 
    178 H178        6.6618  -10.9886  -43.3439 H         1 UNK         0.0600 
    179 H179        3.2063  -10.6197  -44.1307 H         1 UNK         0.3000 
    180 H180        0.2390   -9.2988  -42.5700 H         1 UNK         0.0600 
    181 H181        0.2297   -8.1780  -44.7860 H         1 UNK         0.0600 
    182 H182        1.9395   -8.5444  -45.0051 H         1 UNK         0.0600 
    183 H183        1.4268   -7.4544  -43.7230 H         1 UNK         0.0600 
    184 H184        1.2533  -10.9811  -44.8321 H         1 UNK         0.3000 
    185 H185       -0.6557  -13.6601  -44.0992 H         1 UNK         0.0600 
    186 H186       -2.1062  -11.6300  -45.8851 H         1 UNK         0.0600 
    187 H187       -2.2675  -13.3779  -46.0188 H         1 UNK         0.0600 
    188 H188       -2.8168  -12.5564  -44.5691 H         1 UNK         0.0600 
    189 H189        0.2607  -12.1761  -46.5210 H         1 UNK         0.3000 
    190 H190       -1.9022  -21.1191  -47.3570 H         1 UNK         0.3000 
    191 H191       -3.3738  -22.3139  -49.4252 H         1 UNK         0.0600 
    192 H192       -4.0354  -20.1424  -48.5201 H         1 UNK         0.0600 
    193 H193       -4.3069  -20.8276  -46.9168 H         1 UNK         0.0600 
    194 H194       -5.3673  -21.2526  -48.2506 H         1 UNK         0.0600 
    195 H195       -3.1393  -23.2500  -45.9965 H         1 UNK         0.3000 
    196 H196       -5.1338  -25.3167  -46.1002 H         1 UNK         0.0600 
    197 H197       -4.4195  -24.2759  -43.9701 H         1 UNK         0.0600 
    198 H198       -2.7774  -24.8762  -44.1876 H         1 UNK         0.0600 
    199 H199       -4.1035  -26.0042  -43.9250 H         1 UNK         0.0600 
    200 H200       -1.5742  -25.2907  -46.5771 H         1 UNK         0.3000 
    201 H201       -1.2562  -28.1029  -46.9602 H         1 UNK         0.0600 
    202 H202        0.6372  -26.5931  -46.4176 H         1 UNK         0.0600 
    203 H203        0.4573  -25.7668  -47.9627 H         1 UNK         0.0600 
    204 H204        0.9490  -27.4544  -47.9174 H         1 UNK         0.0600 
    205 H205       -1.7987  -25.4055  -49.2465 H         1 UNK         0.3000 
    206 H206       -2.1024  -27.1364  -51.5817 H         1 UNK         0.0600 
    207 H207       -2.5878  -24.1327  -51.2419 H         1 UNK         0.0600 
    208 H208       -1.0381  -24.8571  -51.6634 H         1 UNK         0.0600 
    209 H209       -2.4000  -25.0120  -52.7583 H         1 UNK         0.0600 
    210 H210       -3.8319  -27.9120  -49.5840 H         1 UNK         0.3000 
    211 H211       -5.8282  -28.6601  -49.1418 H         1 UNK         0.0600 
    212 H212       -6.5023  -27.9473  -52.0452 H         1 UNK         0.0600 
    213 H213       -7.4518  -29.0029  -51.0089 H         1 UNK         0.0600 
    214 H214       -5.8193  -29.4634  -51.4651 H         1 UNK         0.0600 
    215 H215       -6.5265  -25.7479  -51.0774 H         1 UNK         0.3000 
    216 H216       -7.9020  -24.3528  -48.9843 H         1 UNK         0.0600 
    217 H217      -10.1703  -24.3182  -50.0740 H         1 UNK         0.0600 
    218 H218       -9.7597  -25.9284  -49.5116 H         1 UNK         0.0600 
    219 H219       -9.6394  -25.5395  -51.2263 H         1 UNK         0.0600 
    220 H220       -5.7919  -23.5153  -50.0431 H         1 UNK         0.3000 
    221 H221       -4.7609  -21.7990  -51.0278 H         1 UNK         0.0600 
    222 H222       -7.4967  -20.5844  -51.6324 H         1 UNK         0.0600 
    223 H223       -6.6909  -20.4815  -50.0696 H         1 UNK         0.0600 
    224 H224       -5.9651  -19.7409  -51.4824 H         1 UNK         0.0600 
    225 H225       -5.1318  -24.1289  -52.6477 H         1 UNK         0.3000 
    226 H226       -5.7093  -23.3728  -55.3531 H         1 UNK         0.0600 
    227 H227       -5.8313  -25.7226  -54.4842 H         1 UNK         0.0600 
    228 H228       -4.8050  -25.5906  -55.9038 H         1 UNK         0.0600 
    229 H229       -4.0767  -25.7459  -54.3135 H         1 UNK         0.0600 
    230 H230       -2.9974  -22.6950  -53.3980 H         1 UNK         0.3000 
    231 H231       -0.9348  -22.5227  -55.4310 H         1 UNK         0.0600 
    232 H232        0.3677  -21.5077  -53.5499 H         1 UNK         0.0600 
    233 H233       -0.3763  -23.0194  -53.0741 H         1 UNK         0.0600 
    234 H234       -1.0779  -21.4888  -52.5486 H         1 UNK         0.0600 
    235 H235       -2.9691  -21.2618  -56.5261 H         1 UNK         0.3000 
    236 H236       -3.6129  -19.5602  -57.7325 H         1 UNK         0.0600 
    237 H237       -0.9794  -18.1897  -56.9804 H         1 UNK         0.0600 
    238 H238       -1.2075  -19.3269  -58.3090 H         1 UNK         0.0600 
    239 H239       -2.0154  -17.7678  -58.3348 H         1 UNK         0.0600 
    240 H240       -2.8069  -18.6504  -54.4418 H         1 UNK         0.3000 
    241 H241       -3.9728  -16.0683  -54.4887 H         1 UNK         0.0600 
    242 H242       -7.2406  -18.3549  -53.8089 H         1 UNK         0.3800 
    243 H243       -5.7361  -19.1423  -54.1929 H         1 UNK         0.3800 
    244 H244       -3.6983  -16.0734  -52.0453 H         1 UNK         0.0800 
    245 H245       -2.2633  -16.6048  -52.8749 H         1 UNK         0.0800 
    246 H246       -2.5190  -18.5105  -49.3630 H         1 UNK         0.0800 
    247 H247       -2.7287  -16.8551  -49.8657 H         1 UNK         0.0800 
@<TRIPOS>BOND
     1    1    2 1    
     2    1  127 1    
     3    1  128 1    
     4    1  129 1    
     5    2    3 2    
     6    2    4 am   BACKBONE|DICT|INTERRES
     7    4    5 1    
     8    4  130 1    
     9    5    6 1    
    10    5   65 1    
    11    5  131 1    
    12    6    7 1    
    13    6  132 1    
    14    6  133 1    
    15    7    8 1    
    16    8    9 1    
    17    8  134 1    
    18    8  135 1    
    19    9   10 ar   
    20    9   14 ar   
    21   10   11 ar   
    22   10  136 1    
    23   11   12 ar   
    24   11  126 1    
    25   12   13 ar   
    26   12  137 1    
    27   13   14 ar   
    28   13   15 1    
    29   14  138 1    
    30   15   16 1    
    31   15  139 1    
    32   15  140 1    
    33   16   17 1    
    34   17   18 1    
    35   17  141 1    
    36   17  142 1    
    37   18   19 1    
    38   18   67 1    
    39   18  143 1    
    40   19   20 am   BACKBONE|DICT|INTERRES
    41   19  144 1    
    42   20   21 2    
    43   20   22 1    
    44   22   23 1    
    45   22   24 1    
    46   22  145 1    
    47   23  146 1    
    48   23  147 1    
    49   23  148 1    
    50   24   25 am   BACKBONE|DICT|INTERRES
    51   24  149 1    
    52   25   26 2    
    53   25   27 1    
    54   27   28 1    
    55   27   29 1    
    56   27  150 1    
    57   28  151 1    
    58   28  152 1    
    59   28  153 1    
    60   29   30 am   BACKBONE|DICT|INTERRES
    61   29  154 1    
    62   30   31 2    
    63   30   32 1    
    64   32   33 1    
    65   32   34 1    
    66   32  155 1    
    67   33  156 1    
    68   33  157 1    
    69   33  158 1    
    70   34   35 am   BACKBONE|DICT|INTERRES
    71   34  159 1    
    72   35   36 2    
    73   35   37 1    
    74   37   38 1    
    75   37   39 1    
    76   37  160 1    
    77   38  161 1    
    78   38  162 1    
    79   38  163 1    
    80   39   40 am   BACKBONE|DICT|INTERRES
    81   39  164 1    
    82   40   41 2    
    83   40   42 1    
    84   42   43 1    
    85   42   44 1    
    86   42  165 1    
    87   43  166 1    
    88   43  167 1    
    89   43  168 1    
    90   44   45 am   BACKBONE|DICT|INTERRES
    91   44  169 1    
    92   45   46 2    
    93   45   47 1    
    94   47   48 1    
    95   47   49 1    
    96   47  170 1    
    97   48  171 1    
    98   48  172 1    
    99   48  173 1    
   100   49   50 am   BACKBONE|DICT|INTERRES
   101   49  174 1    
   102   50   51 2    
   103   50   52 1    
   104   52   53 1    
   105   52   54 1    
   106   52  175 1    
   107   53  176 1    
   108   53  177 1    
   109   53  178 1    
   110   54   55 am   BACKBONE|DICT|INTERRES
   111   54  179 1    
   112   55   56 2    
   113   55   57 1    
   114   57   58 1    
   115   57   59 1    
   116   57  180 1    
   117   58  181 1    
   118   58  182 1    
   119   58  183 1    
   120   59   60 am   BACKBONE|DICT|INTERRES
   121   59  184 1    
   122   60   61 2    
   123   60   62 1    
   124   62   63 1    
   125   62   64 1    
   126   62  185 1    
   127   63  186 1    
   128   63  187 1    
   129   63  188 1    
   130   64   65 am   BACKBONE|DICT|INTERRES
   131   64  189 1    
   132   65   66 2    
   133   67   68 2    
   134   67   69 am   BACKBONE|DICT|INTERRES
   135   69   70 1    
   136   69  190 1    
   137   70   71 1    
   138   70   72 1    
   139   70  191 1    
   140   71  192 1    
   141   71  193 1    
   142   71  194 1    
   143   72   73 2    
   144   72   74 am   BACKBONE|DICT|INTERRES
   145   74   75 1    
   146   74  195 1    
   147   75   76 1    
   148   75   77 1    
   149   75  196 1    
   150   76  197 1    
   151   76  198 1    
   152   76  199 1    
   153   77   78 2    
   154   77   79 am   BACKBONE|DICT|INTERRES
   155   79   80 1    
   156   79  200 1    
   157   80   81 1    
   158   80   82 1    
   159   80  201 1    
   160   81  202 1    
   161   81  203 1    
   162   81  204 1    
   163   82   83 2    
   164   82   84 am   BACKBONE|DICT|INTERRES
   165   84   85 1    
   166   84  205 1    
   167   85   86 1    
   168   85   87 1    
   169   85  206 1    
   170   86  207 1    
   171   86  208 1    
   172   86  209 1    
   173   87   88 2    
   174   87   89 am   BACKBONE|DICT|INTERRES
   175   89   90 1    
   176   89  210 1    
   177   90   91 1    
   178   90   92 1    
   179   90  211 1    
   180   91  212 1    
   181   91  213 1    
   182   91  214 1    
   183   92   93 2    
   184   92   94 am   BACKBONE|DICT|INTERRES
   185   94   95 1    
   186   94  215 1    
   187   95   96 1    
   188   95   97 1    
   189   95  216 1    
   190   96  217 1    
   191   96  218 1    
   192   96  219 1    
   193   97   98 2    
   194   97   99 am   BACKBONE|DICT|INTERRES
   195   99  100 1    
   196   99  220 1    
   197  100  101 1    
   198  100  102 1    
   199  100  221 1    
   200  101  222 1    
   201  101  223 1    
   202  101  224 1    
   203  102  103 2    
   204  102  104 am   BACKBONE|DICT|INTERRES
   205  104  105 1    
   206  104  225 1    
   207  105  106 1    
   208  105  107 1    
   209  105  226 1    
   210  106  227 1    
   211  106  228 1    
   212  106  229 1    
   213  107  108 2    
   214  107  109 am   BACKBONE|DICT|INTERRES
   215  109  110 1    
   216  109  230 1    
   217  110  111 1    
   218  110  112 1    
   219  110  231 1    
   220  111  232 1    
   221  111  233 1    
   222  111  234 1    
   223  112  113 2    
   224  112  114 am   BACKBONE|DICT|INTERRES
   225  114  115 1    
   226  114  235 1    
   227  115  116 1    
   228  115  117 1    
   229  115  236 1    
   230  116  237 1    
   231  116  238 1    
   232  116  239 1    
   233  117  118 2    
   234  117  119 am   BACKBONE|DICT|INTERRES
   235  119  120 1    
   236  119  240 1    
   237  120  121 1    
   238  120  124 1    
   239  120  241 1    
   240  121  122 am   BACKBONE|DICT|INTERRES
   241  121  123 2    
   242  122  242 1    
   243  122  243 1    
   244  124  125 1    
   245  124  244 1    
   246  124  245 1    
   247  125  126 1    
   248  126  246 1    
   249  126  247 1    
@<TRIPOS>SUBSTRUCTURE
     1 UNK         1 GROUP             0       ****    0 ROOT    
