@<TRIPOS>MOLECULE
3R540
247   249    1
SMALL
USER_CHARGES


@<TRIPOS>ATOM
      1 CA          2.9733   -9.8463  -45.9934 C.3       0 UNK        -0.1800 
      2 C           3.7528  -11.0537  -46.4945 C.2       0 UNK         0.5000 
      3 O           4.9238  -10.9263  -46.8514 O.2       0 UNK        -0.5000 
      4 N           3.1035  -12.2234  -46.5221 N.am      1 UNK        -0.5000 
      5 CA          3.6996  -13.5096  -46.9022 C.3       1 UNK         0.1400 
      6 C6          2.6239  -14.5369  -47.3287 C.3       23 UNK        -0.0398 
      7 S7          1.7735  -14.0334  -48.8609 S.3       23 UNK        -0.2404 
      8 C8          2.9511  -14.5714  -50.1417 C.3       23 UNK        -0.0205 
      9 C9          2.8988  -16.0700  -50.3987 C.ar      23 UNK        -0.0193 
     10 C10         2.0288  -16.5846  -51.3648 C.ar      23 UNK        -0.1150 
     11 C11         2.0209  -17.9517  -51.6558 C.ar      23 UNK        -0.0193 
     12 C12         2.8840  -18.8050  -50.9651 C.ar      23 UNK        -0.1150 
     13 C13         3.7275  -18.3112  -49.9657 C.ar      23 UNK        -0.0193 
     14 C14         3.7443  -16.9392  -49.7019 C.ar      23 UNK        -0.1150 
     15 C15         4.6220  -19.2559  -49.1743 C.3       23 UNK        -0.0205 
     16 S16         3.7289  -20.0335  -47.7861 S.3       23 UNK        -0.2404 
     17 C17         2.6305  -21.1714  -48.6910 C.3       23 UNK        -0.0398 
     18 CA          2.1307  -22.3702  -47.8531 C.3       11 UNK         0.1400 
     19 N           1.2867  -21.9616  -46.7272 N.am      11 UNK        -0.5000 
     20 C           0.8992  -22.7727  -45.7322 C.2       10 UNK         0.5000 
     21 O           1.2934  -23.9321  -45.6026 O.2       10 UNK        -0.5000 
     22 CA         -0.1058  -22.2030  -44.7152 C.3       10 UNK         0.1400 
     23 CB          0.6204  -21.5633  -43.5214 C.3       10 UNK        -0.1800 
     24 N          -1.0034  -21.2237  -45.3275 N.am      10 UNK        -0.5000 
     25 C          -2.0836  -21.5481  -46.0528 C.2       9 UNK         0.5000 
     26 O          -2.4691  -22.7020  -46.2204 O.2       9 UNK        -0.5000 
     27 CA         -2.8720  -20.3975  -46.7031 C.3       9 UNK         0.1400 
     28 CB         -4.0097  -19.9551  -45.7715 C.3       9 UNK        -0.1800 
     29 N          -2.0403  -19.2412  -47.0336 N.am      9 UNK        -0.5000 
     30 C          -1.0667  -19.2482  -47.9578 C.2       8 UNK         0.5000 
     31 O          -0.7802  -20.2384  -48.6302 O.2       8 UNK        -0.5000 
     32 CA         -0.2236  -17.9607  -48.0900 C.3       8 UNK         0.1400 
     33 CB         -0.9042  -16.9833  -49.0585 C.3       8 UNK        -0.1800 
     34 N          -0.0074  -17.2802  -46.8086 N.am      8 UNK        -0.5000 
     35 C           0.5278  -17.8493  -45.7167 C.2       7 UNK         0.5000 
     36 O           1.0221  -18.9757  -45.7185 O.2       7 UNK        -0.5000 
     37 CA          0.4162  -17.0893  -44.3777 C.3       7 UNK         0.1400 
     38 CB          1.7724  -16.5282  -43.9346 C.3       7 UNK        -0.1800 
     39 N          -0.5775  -16.0127  -44.3713 N.am      7 UNK        -0.5000 
     40 C          -1.8976  -16.1817  -44.5454 C.2       6 UNK         0.5000 
     41 O          -2.4221  -17.2822  -44.7097 O.2       6 UNK        -0.5000 
     42 CA         -2.7782  -14.9173  -44.5924 C.3       6 UNK         0.1400 
     43 CB         -3.4850  -14.7091  -43.2447 C.3       6 UNK        -0.1800 
     44 N          -2.0543  -13.6923  -44.9398 N.am      6 UNK        -0.5000 
     45 C          -1.3812  -13.4709  -46.0789 C.2       5 UNK         0.5000 
     46 O          -1.2978  -14.2930  -46.9904 O.2       5 UNK        -0.5000 
     47 CA         -0.6411  -12.1227  -46.1941 C.3       5 UNK         0.1400 
     48 CB         -1.4561  -11.1284  -47.0330 C.3       5 UNK        -0.1800 
     49 N          -0.3386  -11.5175  -44.8907 N.am      5 UNK        -0.5000 
     50 C           0.5390  -12.0074  -44.0058 C.2       4 UNK         0.5000 
     51 O           1.2665  -12.9796  -44.2363 O.2       4 UNK        -0.5000 
     52 CA          0.5893  -11.3113  -42.6379 C.3       4 UNK         0.1400 
     53 CB         -0.6947  -11.5804  -41.8322 C.3       4 UNK        -0.1800 
     54 N           1.7390  -11.8166  -41.9004 N.am      4 UNK        -0.5000 
     55 C           2.4358  -11.1599  -40.9659 C.2       3 UNK         0.5000 
     56 O           2.1453  -10.0332  -40.5621 O.2       3 UNK        -0.5000 
     57 CA          3.6739  -11.8804  -40.3885 C.3       3 UNK         0.1400 
     58 CB          3.3415  -12.5121  -39.0279 C.3       3 UNK        -0.1800 
     59 N           4.2008  -12.9202  -41.2788 N.am      3 UNK        -0.5000 
     60 C           4.8102  -12.6803  -42.4472 C.2       2 UNK         0.5000 
     61 O           5.0776  -11.5481  -42.8530 O.2       2 UNK        -0.5000 
     62 CA          5.1120  -13.8848  -43.3509 C.3       2 UNK         0.1400 
     63 CB          4.8742  -15.2631  -42.7008 C.3       2 UNK        -0.1800 
     64 N           4.2702  -13.7234  -44.5290 N.am      2 UNK        -0.5000 
     65 C           4.5995  -14.0653  -45.7784 C.2       1 UNK         0.5000 
     66 O           5.5847  -14.7453  -46.0672 O.2       1 UNK        -0.5000 
     67 C           1.3974  -23.3622  -48.7793 C.2       11 UNK         0.5000 
     68 O           1.9978  -24.3488  -49.2086 O.2       11 UNK        -0.5000 
     69 N           0.1303  -23.0622  -49.0952 N.am      12 UNK        -0.5000 
     70 CA         -0.7056  -23.8348  -50.0095 C.3       12 UNK         0.1400 
     71 CB         -1.9900  -23.0477  -50.2878 C.3       12 UNK        -0.1800 
     72 C          -1.0429  -25.2404  -49.4821 C.2       12 UNK         0.5000 
     73 O          -1.3725  -25.3993  -48.3050 O.2       12 UNK        -0.5000 
     74 N          -1.0130  -26.2269  -50.3888 N.am      13 UNK        -0.5000 
     75 CA         -1.2834  -27.6432  -50.1159 C.3       13 UNK         0.1400 
     76 CB         -0.9573  -28.4586  -51.3768 C.3       13 UNK        -0.1800 
     77 C          -2.7227  -27.9376  -49.6470 C.2       13 UNK         0.5000 
     78 O          -2.9506  -28.9550  -48.9919 O.2       13 UNK        -0.5000 
     79 N          -3.6611  -27.0402  -49.9771 N.am      14 UNK        -0.5000 
     80 CA         -5.0561  -27.0871  -49.5400 C.3       14 UNK         0.1400 
     81 CB         -5.8750  -26.1183  -50.4046 C.3       14 UNK        -0.1800 
     82 C          -5.2507  -26.7452  -48.0498 C.2       14 UNK         0.5000 
     83 O          -6.3042  -27.0711  -47.5017 O.2       14 UNK        -0.5000 
     84 N          -4.2588  -26.0790  -47.4349 N.am      15 UNK        -0.5000 
     85 CA         -4.2685  -25.5559  -46.0638 C.3       15 UNK         0.1400 
     86 CB         -4.2982  -26.7066  -45.0355 C.3       15 UNK        -0.1800 
     87 C          -5.3800  -24.5049  -45.8316 C.2       15 UNK         0.5000 
     88 O          -5.9561  -24.4434  -44.7433 O.2       15 UNK        -0.5000 
     89 N          -5.6789  -23.7109  -46.8673 N.am      16 UNK        -0.5000 
     90 CA         -6.7397  -22.7115  -46.8969 C.3       16 UNK         0.1400 
     91 CB         -8.0636  -23.3800  -47.3055 C.3       16 UNK        -0.1800 
     92 C          -6.3584  -21.6023  -47.8845 C.2       16 UNK         0.5000 
     93 O          -5.5719  -21.8401  -48.8048 O.2       16 UNK        -0.5000 
     94 N          -6.9162  -20.4053  -47.6748 N.am      17 UNK        -0.5000 
     95 CA         -6.7211  -19.2479  -48.5449 C.3       17 UNK         0.1400 
     96 CB         -7.1332  -17.9736  -47.7917 C.3       17 UNK        -0.1800 
     97 C          -7.5324  -19.3944  -49.8441 C.2       17 UNK         0.5000 
     98 O          -8.6879  -19.8229  -49.7946 O.2       17 UNK        -0.5000 
     99 N          -6.9124  -19.0111  -50.9675 N.am      18 UNK        -0.5000 
    100 CA        -7.4483  -19.0407  -52.3339 C.3       18 UNK         0.1400 
    101 CB        -8.5797  -18.0035  -52.4940 C.3       18 UNK        -0.1800 
    102 C         -7.8509  -20.4546  -52.8134 C.2       18 UNK         0.5000 
    103 O         -8.8356  -20.6034  -53.5399 O.2       18 UNK        -0.5000 
    104 N         -7.0768  -21.4661  -52.4044 N.am      19 UNK        -0.5000 
    105 CA        -7.2594  -22.8713  -52.7553 C.3       19 UNK         0.1400 
    106 CB        -7.9299  -23.5937  -51.5780 C.3       19 UNK        -0.1800 
    107 C         -5.8914  -23.4864  -53.0829 C.2       19 UNK         0.5000 
    108 O         -4.8912  -23.1112  -52.4663 O.2       19 UNK        -0.5000 
    109 N         -5.8594  -24.4149  -54.0478 N.am      20 UNK        -0.5000 
    110 CA        -4.6490  -24.9993  -54.6374 C.3       20 UNK         0.1400 
    111 CB        -3.9229  -25.9261  -53.6327 C.3       20 UNK        -0.1800 
    112 C         -3.7535  -23.8974  -55.2449 C.2       20 UNK         0.5000 
    113 O         -4.1458  -23.2965  -56.2466 O.2       20 UNK        -0.5000 
    114 N         -2.5916  -23.6407  -54.6308 N.am      21 UNK        -0.5000 
    115 CA        -1.6582  -22.5891  -55.0285 C.3       21 UNK         0.1400 
    116 CB        -0.2996  -22.8350  -54.3510 C.3       21 UNK        -0.1800 
    117 C         -2.1749  -21.1754  -54.7023 C.2       21 UNK         0.5000 
    118 O         -2.1197  -20.2977  -55.5648 O.2       21 UNK        -0.5000 
    119 N         -2.6406  -20.9782  -53.4627 N.am      22 UNK        -0.5000 
    120 CA        -2.9637  -19.6617  -52.8830 C.3       22 UNK         0.1400 
    121 C         -3.7300  -19.7308  -51.5284 C.2       22 UNK         0.5000 
    122 N         -4.2113  -20.8853  -51.0866 N.am      22 UNK        -0.7600 
    123 O         -3.9523  -18.7088  -50.8846 O.2       22 UNK        -0.5000 
    124 C124       -1.7305  -18.7115  -52.8165 C.3       23 UNK        -0.0398 
    125 S125       -0.2845  -19.4370  -51.9643 S.3       23 UNK        -0.2404 
    126 C126        1.0895  -18.5121  -52.7188 C.3       23 UNK        -0.0205 
    127 H127        3.2334   -9.6381  -44.9554 H         1 UNK         0.0600 
    128 H128        1.8973  -10.0085  -46.0543 H         1 UNK         0.0600 
    129 H129        3.2130   -8.9664  -46.5905 H         1 UNK         0.0600 
    130 H130        2.1562  -12.2735  -46.1763 H         1 UNK         0.3000 
    131 H131        4.3570  -13.3353  -47.7561 H         1 UNK         0.0600 
    132 H132        3.0449  -15.5333  -47.4564 H         1 UNK         0.0800 
    133 H133        1.8634  -14.6334  -46.5539 H         1 UNK         0.0800 
    134 H134        2.7200  -14.0378  -51.0649 H         1 UNK         0.0800 
    135 H135        3.9637  -14.2698  -49.8727 H         1 UNK         0.0800 
    136 H136        1.3679  -15.9169  -51.8994 H         1 UNK         0.1150 
    137 H137        2.8780  -19.8601  -51.1965 H         1 UNK         0.1150 
    138 H138        4.4209  -16.5492  -48.9549 H         1 UNK         0.1150 
    139 H139        5.0346  -20.0235  -49.8306 H         1 UNK         0.0800 
    140 H140        5.4783  -18.7106  -48.7746 H         1 UNK         0.0800 
    141 H141        1.7881  -20.5977  -49.0793 H         1 UNK         0.0800 
    142 H142        3.1797  -21.5387  -49.5599 H         1 UNK         0.0800 
    143 H143        3.0031  -22.8860  -47.4462 H         1 UNK         0.0600 
    144 H144        0.9658  -21.0016  -46.7259 H         1 UNK         0.3000 
    145 H145       -0.7015  -23.0355  -44.3343 H         1 UNK         0.0600 
    146 H146       -0.0878  -21.1599  -42.7977 H         1 UNK         0.0600 
    147 H147        1.2320  -22.3014  -43.0012 H         1 UNK         0.0600 
    148 H148        1.2826  -20.7550  -43.8309 H         1 UNK         0.0600 
    149 H149       -0.7148  -20.2556  -45.2829 H         1 UNK         0.3000 
    150 H150       -3.3067  -20.7726  -47.6319 H         1 UNK         0.0600 
    151 H151       -4.6847  -20.7841  -45.5587 H         1 UNK         0.0600 
    152 H152       -4.5986  -19.1546  -46.2173 H         1 UNK         0.0600 
    153 H153       -3.6303  -19.6002  -44.8132 H         1 UNK         0.0600 
    154 H154       -2.1797  -18.4115  -46.4680 H         1 UNK         0.3000 
    155 H155        0.7517  -18.2355  -48.4976 H         1 UNK         0.0600 
    156 H156       -0.2707  -16.1206  -49.2591 H         1 UNK         0.0600 
    157 H157       -1.8525  -16.6184  -48.6623 H         1 UNK         0.0600 
    158 H158       -1.1142  -17.4587  -50.0152 H         1 UNK         0.0600 
    159 H159       -0.3995  -16.3497  -46.7287 H         1 UNK         0.3000 
    160 H160        0.1029  -17.8229  -43.6319 H         1 UNK         0.0600 
    161 H161        2.1254  -15.7411  -44.5973 H         1 UNK         0.0600 
    162 H162        2.5346  -17.3084  -43.9144 H         1 UNK         0.0600 
    163 H163        1.7047  -16.1122  -42.9298 H         1 UNK         0.0600 
    164 H164       -0.2233  -15.0730  -44.2599 H         1 UNK         0.3000 
    165 H165       -3.5382  -15.0812  -45.3591 H         1 UNK         0.0600 
    166 H166       -2.7720  -14.5126  -42.4428 H         1 UNK         0.0600 
    167 H167       -4.1817  -13.8718  -43.2885 H         1 UNK         0.0600 
    168 H168       -4.0597  -15.5929  -42.9637 H         1 UNK         0.0600 
    169 H169       -2.0705  -12.9552  -44.2517 H         1 UNK         0.3000 
    170 H170        0.2972  -12.3125  -46.7161 H         1 UNK         0.0600 
    171 H171       -1.6742  -11.5385  -48.0202 H         1 UNK         0.0600 
    172 H172       -2.4084  -10.8865  -46.5596 H         1 UNK         0.0600 
    173 H173       -0.9083  -10.1980  -47.1836 H         1 UNK         0.0600 
    174 H174       -0.8883  -10.7083  -44.6376 H         1 UNK         0.3000 
    175 H175        0.7050  -10.2387  -42.8074 H         1 UNK         0.0600 
    176 H176       -0.6544  -11.0988  -40.8550 H         1 UNK         0.0600 
    177 H177       -1.5757  -11.1914  -42.3436 H         1 UNK         0.0600 
    178 H178       -0.8504  -12.6478  -41.6700 H         1 UNK         0.0600 
    179 H179        2.0613  -12.7236  -42.2095 H         1 UNK         0.3000 
    180 H180        4.4520  -11.1292  -40.2370 H         1 UNK         0.0600 
    181 H181        4.2236  -12.9685  -38.5784 H         1 UNK         0.0600 
    182 H182        2.9736  -11.7608  -38.3278 H         1 UNK         0.0600 
    183 H183        2.5729  -13.2809  -39.1178 H         1 UNK         0.0600 
    184 H184        4.0205  -13.8775  -41.0129 H         1 UNK         0.3000 
    185 H185        6.1628  -13.8102  -43.6389 H         1 UNK         0.0600 
    186 H186        5.0843  -16.0682  -43.4051 H         1 UNK         0.0600 
    187 H187        5.5317  -15.4087  -41.8429 H         1 UNK         0.0600 
    188 H188        3.8478  -15.3852  -42.3587 H         1 UNK         0.0600 
    189 H189        3.4385  -13.1600  -44.3982 H         1 UNK         0.3000 
    190 H190       -0.2770  -22.2088  -48.7260 H         1 UNK         0.3000 
    191 H191       -0.1567  -23.9343  -50.9481 H         1 UNK         0.0600 
    192 H192       -1.7555  -22.0721  -50.7131 H         1 UNK         0.0600 
    193 H193       -2.5682  -22.8824  -49.3770 H         1 UNK         0.0600 
    194 H194       -2.6314  -23.5729  -50.9956 H         1 UNK         0.0600 
    195 H195       -0.7319  -26.0094  -51.3336 H         1 UNK         0.3000 
    196 H196       -0.6108  -27.9615  -49.3168 H         1 UNK         0.0600 
    197 H197       -1.1166  -29.5242  -51.2061 H         1 UNK         0.0600 
    198 H198        0.0846  -28.3318  -51.6716 H         1 UNK         0.0600 
    199 H199       -1.5845  -28.1643  -52.2195 H         1 UNK         0.0600 
    200 H200       -3.3826  -26.2381  -50.5205 H         1 UNK         0.3000 
    201 H201       -5.4377  -28.0979  -49.6983 H         1 UNK         0.0600 
    202 H202       -5.8795  -26.4246  -51.4493 H         1 UNK         0.0600 
    203 H203       -5.4810  -25.1025  -50.3501 H         1 UNK         0.0600 
    204 H204       -6.9151  -26.0860  -50.0775 H         1 UNK         0.0600 
    205 H205       -3.4150  -25.8760  -47.9593 H         1 UNK         0.3000 
    206 H206       -3.3175  -25.0426  -45.9336 H         1 UNK         0.0600 
    207 H207       -3.5078  -27.4310  -45.2326 H         1 UNK         0.0600 
    208 H208       -4.1454  -26.3286  -44.0241 H         1 UNK         0.0600 
    209 H209       -5.2505  -27.2372  -45.0444 H         1 UNK         0.0600 
    210 H210       -5.1231  -23.7585  -47.7113 H         1 UNK         0.3000 
    211 H211       -6.8461  -22.2642  -45.9064 H         1 UNK         0.0600 
    212 H212       -7.9832  -23.8639  -48.2796 H         1 UNK         0.0600 
    213 H213       -8.8721  -22.6504  -47.3657 H         1 UNK         0.0600 
    214 H214       -8.3628  -24.1381  -46.5816 H         1 UNK         0.0600 
    215 H215       -7.5887  -20.2960  -46.9301 H         1 UNK         0.3000 
    216 H216       -5.6589  -19.1712  -48.7872 H         1 UNK         0.0600 
    217 H217       -6.9704  -17.0887  -48.4082 H         1 UNK         0.0600 
    218 H218       -6.5506  -17.8442  -46.8798 H         1 UNK         0.0600 
    219 H219       -8.1884  -17.9918  -47.5161 H         1 UNK         0.0600 
    220 H220       -5.9431  -18.7135  -50.8924 H         1 UNK         0.3000 
    221 H221       -6.6289  -18.7303  -52.9836 H         1 UNK         0.0600 
    222 H222       -9.4628  -18.2750  -51.9148 H         1 UNK         0.0600 
    223 H223       -8.2565  -17.0146  -52.1691 H         1 UNK         0.0600 
    224 H224       -8.8869  -17.9160  -53.5368 H         1 UNK         0.0600 
    225 H225       -6.2617  -21.2668  -51.8384 H         1 UNK         0.3000 
    226 H226       -7.8945  -22.9621  -53.6388 H         1 UNK         0.0600 
    227 H227       -8.9106  -23.1687  -51.3643 H         1 UNK         0.0600 
    228 H228       -8.0740  -24.6520  -51.7970 H         1 UNK         0.0600 
    229 H229       -7.3309  -23.5152  -50.6701 H         1 UNK         0.0600 
    230 H230       -6.7239  -24.6570  -54.5110 H         1 UNK         0.3000 
    231 H231       -4.9757  -25.6189  -55.4738 H         1 UNK         0.0600 
    232 H232       -3.0214  -26.3539  -54.0731 H         1 UNK         0.0600 
    233 H233       -4.5605  -26.7641  -53.3531 H         1 UNK         0.0600 
    234 H234       -3.6338  -25.4109  -52.7171 H         1 UNK         0.0600 
    235 H235       -2.3612  -24.1704  -53.8048 H         1 UNK         0.3000 
    236 H236       -1.5116  -22.6510  -56.1090 H         1 UNK         0.0600 
    237 H237       -0.3768  -22.8082  -53.2634 H         1 UNK         0.0600 
    238 H238        0.1146  -23.8023  -54.6354 H         1 UNK         0.0600 
    239 H239        0.4243  -22.0731  -54.6437 H         1 UNK         0.0600 
    240 H240       -2.6790  -21.7577  -52.8246 H         1 UNK         0.3000 
    241 H241       -3.6838  -19.2020  -53.5618 H         1 UNK         0.0600 
    242 H242       -4.6444  -20.9524  -50.1707 H         1 UNK         0.3800 
    243 H243       -4.1879  -21.7353  -51.6457 H         1 UNK         0.3800 
    244 H244       -1.4355  -18.4412  -53.8302 H         1 UNK         0.0800 
    245 H245       -1.9845  -17.7660  -52.3350 H         1 UNK         0.0800 
    246 H246        0.7107  -17.7041  -53.3458 H         1 UNK         0.0800 
    247 H247        1.6446  -19.1777  -53.3811 H         1 UNK         0.0800 
@<TRIPOS>BOND
     1    1    2 1    
     2    1  127 1    
     3    1  128 1    
     4    1  129 1    
     5    2    3 2    
     6    2    4 am   BACKBONE|DICT|INTERRES
     7    4    5 1    
     8    4  130 1    
     9    5    6 1    
    10    5   65 1    
    11    5  131 1    
    12    6    7 1    
    13    6  132 1    
    14    6  133 1    
    15    7    8 1    
    16    8    9 1    
    17    8  134 1    
    18    8  135 1    
    19    9   10 ar   
    20    9   14 ar   
    21   10   11 ar   
    22   10  136 1    
    23   11   12 ar   
    24   11  126 1    
    25   12   13 ar   
    26   12  137 1    
    27   13   14 ar   
    28   13   15 1    
    29   14  138 1    
    30   15   16 1    
    31   15  139 1    
    32   15  140 1    
    33   16   17 1    
    34   17   18 1    
    35   17  141 1    
    36   17  142 1    
    37   18   19 1    
    38   18   67 1    
    39   18  143 1    
    40   19   20 am   BACKBONE|DICT|INTERRES
    41   19  144 1    
    42   20   21 2    
    43   20   22 1    
    44   22   23 1    
    45   22   24 1    
    46   22  145 1    
    47   23  146 1    
    48   23  147 1    
    49   23  148 1    
    50   24   25 am   BACKBONE|DICT|INTERRES
    51   24  149 1    
    52   25   26 2    
    53   25   27 1    
    54   27   28 1    
    55   27   29 1    
    56   27  150 1    
    57   28  151 1    
    58   28  152 1    
    59   28  153 1    
    60   29   30 am   BACKBONE|DICT|INTERRES
    61   29  154 1    
    62   30   31 2    
    63   30   32 1    
    64   32   33 1    
    65   32   34 1    
    66   32  155 1    
    67   33  156 1    
    68   33  157 1    
    69   33  158 1    
    70   34   35 am   BACKBONE|DICT|INTERRES
    71   34  159 1    
    72   35   36 2    
    73   35   37 1    
    74   37   38 1    
    75   37   39 1    
    76   37  160 1    
    77   38  161 1    
    78   38  162 1    
    79   38  163 1    
    80   39   40 am   BACKBONE|DICT|INTERRES
    81   39  164 1    
    82   40   41 2    
    83   40   42 1    
    84   42   43 1    
    85   42   44 1    
    86   42  165 1    
    87   43  166 1    
    88   43  167 1    
    89   43  168 1    
    90   44   45 am   BACKBONE|DICT|INTERRES
    91   44  169 1    
    92   45   46 2    
    93   45   47 1    
    94   47   48 1    
    95   47   49 1    
    96   47  170 1    
    97   48  171 1    
    98   48  172 1    
    99   48  173 1    
   100   49   50 am   BACKBONE|DICT|INTERRES
   101   49  174 1    
   102   50   51 2    
   103   50   52 1    
   104   52   53 1    
   105   52   54 1    
   106   52  175 1    
   107   53  176 1    
   108   53  177 1    
   109   53  178 1    
   110   54   55 am   BACKBONE|DICT|INTERRES
   111   54  179 1    
   112   55   56 2    
   113   55   57 1    
   114   57   58 1    
   115   57   59 1    
   116   57  180 1    
   117   58  181 1    
   118   58  182 1    
   119   58  183 1    
   120   59   60 am   BACKBONE|DICT|INTERRES
   121   59  184 1    
   122   60   61 2    
   123   60   62 1    
   124   62   63 1    
   125   62   64 1    
   126   62  185 1    
   127   63  186 1    
   128   63  187 1    
   129   63  188 1    
   130   64   65 am   BACKBONE|DICT|INTERRES
   131   64  189 1    
   132   65   66 2    
   133   67   68 2    
   134   67   69 am   BACKBONE|DICT|INTERRES
   135   69   70 1    
   136   69  190 1    
   137   70   71 1    
   138   70   72 1    
   139   70  191 1    
   140   71  192 1    
   141   71  193 1    
   142   71  194 1    
   143   72   73 2    
   144   72   74 am   BACKBONE|DICT|INTERRES
   145   74   75 1    
   146   74  195 1    
   147   75   76 1    
   148   75   77 1    
   149   75  196 1    
   150   76  197 1    
   151   76  198 1    
   152   76  199 1    
   153   77   78 2    
   154   77   79 am   BACKBONE|DICT|INTERRES
   155   79   80 1    
   156   79  200 1    
   157   80   81 1    
   158   80   82 1    
   159   80  201 1    
   160   81  202 1    
   161   81  203 1    
   162   81  204 1    
   163   82   83 2    
   164   82   84 am   BACKBONE|DICT|INTERRES
   165   84   85 1    
   166   84  205 1    
   167   85   86 1    
   168   85   87 1    
   169   85  206 1    
   170   86  207 1    
   171   86  208 1    
   172   86  209 1    
   173   87   88 2    
   174   87   89 am   BACKBONE|DICT|INTERRES
   175   89   90 1    
   176   89  210 1    
   177   90   91 1    
   178   90   92 1    
   179   90  211 1    
   180   91  212 1    
   181   91  213 1    
   182   91  214 1    
   183   92   93 2    
   184   92   94 am   BACKBONE|DICT|INTERRES
   185   94   95 1    
   186   94  215 1    
   187   95   96 1    
   188   95   97 1    
   189   95  216 1    
   190   96  217 1    
   191   96  218 1    
   192   96  219 1    
   193   97   98 2    
   194   97   99 am   BACKBONE|DICT|INTERRES
   195   99  100 1    
   196   99  220 1    
   197  100  101 1    
   198  100  102 1    
   199  100  221 1    
   200  101  222 1    
   201  101  223 1    
   202  101  224 1    
   203  102  103 2    
   204  102  104 am   BACKBONE|DICT|INTERRES
   205  104  105 1    
   206  104  225 1    
   207  105  106 1    
   208  105  107 1    
   209  105  226 1    
   210  106  227 1    
   211  106  228 1    
   212  106  229 1    
   213  107  108 2    
   214  107  109 am   BACKBONE|DICT|INTERRES
   215  109  110 1    
   216  109  230 1    
   217  110  111 1    
   218  110  112 1    
   219  110  231 1    
   220  111  232 1    
   221  111  233 1    
   222  111  234 1    
   223  112  113 2    
   224  112  114 am   BACKBONE|DICT|INTERRES
   225  114  115 1    
   226  114  235 1    
   227  115  116 1    
   228  115  117 1    
   229  115  236 1    
   230  116  237 1    
   231  116  238 1    
   232  116  239 1    
   233  117  118 2    
   234  117  119 am   BACKBONE|DICT|INTERRES
   235  119  120 1    
   236  119  240 1    
   237  120  121 1    
   238  120  124 1    
   239  120  241 1    
   240  121  122 am   BACKBONE|DICT|INTERRES
   241  121  123 2    
   242  122  242 1    
   243  122  243 1    
   244  124  125 1    
   245  124  244 1    
   246  124  245 1    
   247  125  126 1    
   248  126  246 1    
   249  126  247 1    
@<TRIPOS>SUBSTRUCTURE
     1 UNK         1 GROUP             0       ****    0 ROOT    
