@<TRIPOS>MOLECULE
3R540
247   249    1
SMALL
USER_CHARGES


@<TRIPOS>ATOM
      1 CA          4.7531  -11.8922  -49.4872 C.3       0 UNK        -0.1800 
      2 C           3.4259  -11.9869  -50.2352 C.2       0 UNK         0.5000 
      3 O           3.3741  -11.6477  -51.4157 O.2       0 UNK        -0.5000 
      4 N           2.3285  -12.4264  -49.6057 N.am      1 UNK        -0.5000 
      5 CA          2.2055  -12.8513  -48.2040 C.3       1 UNK         0.1400 
      6 C6          1.9662  -14.3765  -48.0664 C.3       23 UNK        -0.0398 
      7 S7          3.3757  -15.3757  -48.6543 S.3       23 UNK        -0.2404 
      8 C8          2.7635  -15.9919  -50.2546 C.3       23 UNK        -0.0205 
      9 C9          1.7709  -17.1328  -50.0850 C.ar      23 UNK        -0.0193 
     10 C10         0.3989  -16.9089  -50.2327 C.ar      23 UNK        -0.1150 
     11 C11        -0.5124  -17.9586  -50.0841 C.ar      23 UNK        -0.0193 
     12 C12        -0.0423  -19.2410  -49.7862 C.ar      23 UNK        -0.1150 
     13 C13         1.3273  -19.4778  -49.6361 C.ar      23 UNK        -0.0193 
     14 C14         2.2288  -18.4209  -49.7924 C.ar      23 UNK        -0.1150 
     15 C15         1.8323  -20.8718  -49.2994 C.3       23 UNK        -0.0205 
     16 S16         2.2999  -20.9832  -47.5450 S.3       23 UNK        -0.2404 
     17 C17         2.3090  -22.7835  -47.2709 C.3       23 UNK        -0.0398 
     18 CA          1.0563  -23.3514  -46.5574 C.3       11 UNK         0.1400 
     19 N           0.9083  -22.9365  -45.1575 N.am      11 UNK        -0.5000 
     20 C           0.1317  -23.6047  -44.2884 C.2       10 UNK         0.5000 
     21 O          -0.5029  -24.6182  -44.5870 O.2       10 UNK        -0.5000 
     22 CA          0.0059  -23.0435  -42.8620 C.3       10 UNK         0.1400 
     23 CB          1.2733  -23.3289  -42.0425 C.3       10 UNK        -0.1800 
     24 N          -0.2997  -21.6145  -42.8350 N.am      10 UNK        -0.5000 
     25 C          -1.4209  -21.0658  -43.3248 C.2       9 UNK         0.5000 
     26 O          -2.3313  -21.7140  -43.8405 O.2       9 UNK        -0.5000 
     27 CA         -1.5256  -19.5300  -43.2686 C.3       9 UNK         0.1400 
     28 CB         -1.9710  -19.0563  -41.8774 C.3       9 UNK        -0.1800 
     29 N          -0.2728  -18.8704  -43.6330 N.am      9 UNK        -0.5000 
     30 C           0.3177  -18.9787  -44.8309 C.2       8 UNK         0.5000 
     31 O          -0.1662  -19.5997  -45.7746 O.2       8 UNK        -0.5000 
     32 CA          1.7033  -18.3299  -44.9753 C.3       8 UNK         0.1400 
     33 CB          1.5841  -16.8217  -45.2330 C.3       8 UNK        -0.1800 
     34 N           2.5438  -18.5806  -43.8047 N.am      8 UNK        -0.5000 
     35 C           3.0249  -19.7855  -43.4625 C.2       7 UNK         0.5000 
     36 O           2.8448  -20.8118  -44.1187 O.2       7 UNK        -0.5000 
     37 CA          3.8054  -19.8612  -42.1371 C.3       7 UNK         0.1400 
     38 CB          5.2683  -19.4413  -42.3439 C.3       7 UNK        -0.1800 
     39 N           3.2072  -19.0359  -41.0863 N.am      7 UNK        -0.5000 
     40 C           2.0137  -19.2756  -40.5246 C.2       6 UNK         0.5000 
     41 O           1.3116  -20.2467  -40.8021 O.2       6 UNK        -0.5000 
     42 CA          1.4946  -18.2251  -39.5239 C.3       6 UNK         0.1400 
     43 CB          2.0205  -18.5186  -38.1111 C.3       6 UNK        -0.1800 
     44 N           1.8353  -16.8475  -39.8952 N.am      6 UNK        -0.5000 
     45 C           1.4428  -16.2479  -41.0270 C.2       5 UNK         0.5000 
     46 O           0.7702  -16.8096  -41.8944 O.2       5 UNK        -0.5000 
     47 CA          1.9428  -14.8072  -41.2480 C.3       5 UNK         0.1400 
     48 CB          3.3931  -14.8238  -41.7578 C.3       5 UNK        -0.1800 
     49 N           1.1269  -14.0644  -42.2090 N.am      5 UNK        -0.5000 
     50 C          -0.1575  -13.7235  -42.0387 C.2       4 UNK         0.5000 
     51 O          -0.7992  -13.9560  -41.0117 O.2       4 UNK        -0.5000 
     52 CA         -0.8077  -12.9710  -43.2195 C.3       4 UNK         0.1400 
     53 CB         -2.2333  -12.4679  -42.9110 C.3       4 UNK        -0.1800 
     54 N           0.0287  -11.8751  -43.7246 N.am      4 UNK        -0.5000 
     55 C           0.4667  -10.8045  -43.0385 C.2       3 UNK         0.5000 
     56 O           0.2277  -10.6054  -41.8469 O.2       3 UNK        -0.5000 
     57 CA          1.3213   -9.7712  -43.8045 C.3       3 UNK         0.1400 
     58 CB          2.8115   -9.9750  -43.4881 C.3       3 UNK        -0.1800 
     59 N           1.1404   -9.8155  -45.2563 N.am      3 UNK        -0.5000 
     60 C           0.0150   -9.4922  -45.9089 C.2       2 UNK         0.5000 
     61 O          -0.9747   -9.0066  -45.3601 O.2       2 UNK        -0.5000 
     62 CA         -0.0259   -9.7817  -47.4251 C.3       2 UNK         0.1400 
     63 CB          0.1259   -8.4778  -48.2238 C.3       2 UNK        -0.1800 
     64 N           0.9747  -10.7452  -47.9039 N.am      2 UNK        -0.5000 
     65 C           1.1029  -12.0222  -47.5097 C.2       1 UNK         0.5000 
     66 O           0.4064  -12.5285  -46.6278 O.2       1 UNK        -0.5000 
     67 C          -0.2448  -23.1552  -47.3621 C.2       11 UNK         0.5000 
     68 O          -0.5643  -24.0124  -48.1833 O.2       11 UNK        -0.5000 
     69 N          -1.0013  -22.0802  -47.0883 N.am      12 UNK        -0.5000 
     70 CA         -2.3164  -21.8338  -47.6821 C.3       12 UNK         0.1400 
     71 CB         -2.8303  -20.4417  -47.2892 C.3       12 UNK        -0.1800 
     72 C          -3.3448  -22.9145  -47.3102 C.2       12 UNK         0.5000 
     73 O          -4.0924  -23.3526  -48.1826 O.2       12 UNK        -0.5000 
     74 N          -3.3456  -23.3567  -46.0458 N.am      13 UNK        -0.5000 
     75 CA         -4.1788  -24.4608  -45.5700 C.3       13 UNK         0.1400 
     76 CB         -4.0973  -24.5507  -44.0386 C.3       13 UNK        -0.1800 
     77 C          -3.8029  -25.8042  -46.2226 C.2       13 UNK         0.5000 
     78 O          -4.6937  -26.5461  -46.6378 O.2       13 UNK        -0.5000 
     79 N          -2.4950  -26.0796  -46.3231 N.am      14 UNK        -0.5000 
     80 CA         -1.9489  -27.2988  -46.9199 C.3       14 UNK         0.1400 
     81 CB         -0.4521  -27.4004  -46.5890 C.3       14 UNK        -0.1800 
     82 C          -2.1746  -27.3891  -48.4412 C.2       14 UNK         0.5000 
     83 O          -2.5564  -28.4503  -48.9358 O.2       14 UNK        -0.5000 
     84 N          -1.9332  -26.2814  -49.1540 N.am      15 UNK        -0.5000 
     85 CA         -1.9886  -26.1983  -50.6154 C.3       15 UNK         0.1400 
     86 CB         -0.9107  -25.2118  -51.0957 C.3       15 UNK        -0.1800 
     87 C          -3.3739  -25.8034  -51.1628 C.2       15 UNK         0.5000 
     88 O          -3.4931  -25.6001  -52.3714 O.2       15 UNK        -0.5000 
     89 N          -4.3830  -25.6739  -50.2882 N.am      16 UNK        -0.5000 
     90 CA         -5.7710  -25.3000  -50.5894 C.3       16 UNK         0.1400 
     91 CB         -6.4730  -26.4155  -51.3915 C.3       16 UNK        -0.1800 
     92 C          -5.8608  -23.9209  -51.2739 C.2       16 UNK         0.5000 
     93 O          -6.3219  -23.8096  -52.4120 O.2       16 UNK        -0.5000 
     94 N          -5.3506  -22.9016  -50.5699 N.am      17 UNK        -0.5000 
     95 CA         -5.2121  -21.5058  -50.9957 C.3       17 UNK         0.1400 
     96 CB         -6.5983  -20.8469  -51.1591 C.3       17 UNK        -0.1800 
     97 C          -4.3053  -21.3642  -52.2350 C.2       17 UNK         0.5000 
     98 O          -4.6000  -20.5715  -53.1296 O.2       17 UNK        -0.5000 
     99 N          -3.2324  -22.1710  -52.2663 N.am      18 UNK        -0.5000 
    100 CA        -2.2689  -22.3199  -53.3626 C.3       18 UNK         0.1400 
    101 CB        -1.4133  -21.0445  -53.5082 C.3       18 UNK        -0.1800 
    102 C         -2.9591  -22.7497  -54.6739 C.2       18 UNK         0.5000 
    103 O         -2.7919  -22.0997  -55.7053 O.2       18 UNK        -0.5000 
    104 N         -3.7670  -23.8169  -54.5841 N.am      19 UNK        -0.5000 
    105 CA        -4.6654  -24.3382  -55.6199 C.3       19 UNK         0.1400 
    106 CB        -3.8623  -24.9435  -56.7900 C.3       19 UNK        -0.1800 
    107 C         -5.7079  -23.2905  -56.0688 C.2       19 UNK         0.5000 
    108 O         -5.9295  -23.1027  -57.2666 O.2       19 UNK        -0.5000 
    109 N         -6.3116  -22.6173  -55.0785 N.am      20 UNK        -0.5000 
    110 CA        -7.3045  -21.5437  -55.1950 C.3       20 UNK         0.1400 
    111 CB        -8.6239  -22.0877  -55.7813 C.3       20 UNK        -0.1800 
    112 C         -6.8031  -20.2750  -55.9230 C.2       20 UNK         0.5000 
    113 O         -7.6179  -19.5215  -56.4598 O.2       20 UNK        -0.5000 
    114 N         -5.4835  -20.0427  -55.9245 N.am      21 UNK        -0.5000 
    115 CA        -4.8619  -18.8402  -56.4793 C.3       21 UNK         0.1400 
    116 CB        -3.4016  -19.1360  -56.8490 C.3       21 UNK        -0.1800 
    117 C         -4.9384  -17.6481  -55.5093 C.2       21 UNK         0.5000 
    118 O         -5.0944  -16.5128  -55.9620 O.2       21 UNK        -0.5000 
    119 N         -4.8237  -17.9180  -54.2031 N.am      22 UNK        -0.5000 
    120 CA        -4.9391  -16.9179  -53.1335 C.3       22 UNK         0.1400 
    121 C         -6.4171  -16.5059  -52.8930 C.2       22 UNK         0.5000 
    122 N         -6.6782  -15.2317  -52.6344 N.am      22 UNK        -0.7600 
    123 O         -7.3240  -17.3354  -52.8950 O.2       22 UNK        -0.5000 
    124 C124       -4.2911  -17.4047  -51.8134 C.3       23 UNK        -0.0398 
    125 S125       -2.5068  -17.7411  -51.9814 S.3       23 UNK        -0.2404 
    126 C126       -2.0029  -17.7011  -50.2360 C.3       23 UNK        -0.0205 
    127 H127        5.5519  -11.5850  -50.1624 H         1 UNK         0.0600 
    128 H128        5.0322  -12.8561  -49.0624 H         1 UNK         0.0600 
    129 H129        4.6923  -11.1560  -48.6858 H         1 UNK         0.0600 
    130 H130        1.4645  -12.4587  -50.1288 H         1 UNK         0.3000 
    131 H131        3.1125  -12.6149  -47.6474 H         1 UNK         0.0600 
    132 H132        1.8228  -14.6352  -47.0179 H         1 UNK         0.0800 
    133 H133        1.0505  -14.6731  -48.5781 H         1 UNK         0.0800 
    134 H134        3.6134  -16.3416  -50.8424 H         1 UNK         0.0800 
    135 H135        2.3218  -15.1708  -50.8212 H         1 UNK         0.0800 
    136 H136        0.0366  -15.9180  -50.4677 H         1 UNK         0.1150 
    137 H137       -0.7430  -20.0546  -49.6683 H         1 UNK         0.1150 
    138 H138        3.2883  -18.5990  -49.6724 H         1 UNK         0.1150 
    139 H139        1.0653  -21.6126  -49.5291 H         1 UNK         0.0800 
    140 H140        2.6947  -21.1156  -49.9214 H         1 UNK         0.0800 
    141 H141        2.4567  -23.2903  -48.2261 H         1 UNK         0.0800 
    142 H142        3.1943  -23.0195  -46.6792 H         1 UNK         0.0800 
    143 H143        1.2187  -24.4312  -46.5303 H         1 UNK         0.0600 
    144 H144        1.4151  -22.1080  -44.8603 H         1 UNK         0.3000 
    145 H145       -0.8249  -23.5629  -42.3797 H         1 UNK         0.0600 
    146 H146        1.1461  -23.0260  -41.0032 H         1 UNK         0.0600 
    147 H147        2.1406  -22.8025  -42.4402 H         1 UNK         0.0600 
    148 H148        1.5070  -24.3942  -42.0435 H         1 UNK         0.0600 
    149 H149        0.3779  -21.0144  -42.3755 H         1 UNK         0.3000 
    150 H150       -2.2840  -19.2216  -43.9910 H         1 UNK         0.0600 
    151 H151       -2.9319  -19.4950  -41.6060 H         1 UNK         0.0600 
    152 H152       -2.0863  -17.9725  -41.8479 H         1 UNK         0.0600 
    153 H153       -1.2531  -19.3363  -41.1067 H         1 UNK         0.0600 
    154 H154        0.1696  -18.2922  -42.9233 H         1 UNK         0.3000 
    155 H155        2.1972  -18.7677  -45.8419 H         1 UNK         0.0600 
    156 H156        0.9924  -16.6399  -46.1309 H         1 UNK         0.0600 
    157 H157        2.5641  -16.3706  -45.3886 H         1 UNK         0.0600 
    158 H158        1.0968  -16.2978  -44.4117 H         1 UNK         0.0600 
    159 H159        2.6828  -17.8064  -43.1739 H         1 UNK         0.3000 
    160 H160        3.7930  -20.9005  -41.8017 H         1 UNK         0.0600 
    161 H161        5.3500  -18.3990  -42.6548 H         1 UNK         0.0600 
    162 H162        5.7434  -20.0517  -43.1132 H         1 UNK         0.0600 
    163 H163        5.8472  -19.5656  -41.4286 H         1 UNK         0.0600 
    164 H164        3.7207  -18.2167  -40.7973 H         1 UNK         0.3000 
    165 H165        0.4057  -18.3019  -39.5039 H         1 UNK         0.0600 
    166 H166        1.5859  -17.8378  -37.3789 H         1 UNK         0.0600 
    167 H167        1.7635  -19.5327  -37.8021 H         1 UNK         0.0600 
    168 H168        3.1057  -18.4238  -38.0564 H         1 UNK         0.0600 
    169 H169        2.3966  -16.3298  -39.2342 H         1 UNK         0.3000 
    170 H170        1.9069  -14.2785  -40.2934 H         1 UNK         0.0600 
    171 H171        3.4768  -15.3346  -42.7181 H         1 UNK         0.0600 
    172 H172        3.7780  -13.8114  -41.8828 H         1 UNK         0.0600 
    173 H173        4.0540  -15.3337  -41.0558 H         1 UNK         0.0600 
    174 H174        1.5674  -13.8317  -43.0859 H         1 UNK         0.3000 
    175 H175       -0.8862  -13.6940  -44.0329 H         1 UNK         0.0600 
    176 H176       -2.2450  -11.7643  -42.0781 H         1 UNK         0.0600 
    177 H177       -2.6697  -11.9693  -43.7765 H         1 UNK         0.0600 
    178 H178       -2.8914  -13.2970  -42.6482 H         1 UNK         0.0600 
    179 H179        0.2737  -11.9454  -44.7075 H         1 UNK         0.3000 
    180 H180        1.0275   -8.7788  -43.4564 H         1 UNK         0.0600 
    181 H181        3.1659  -10.9488  -43.8285 H         1 UNK         0.0600 
    182 H182        2.9947   -9.9168  -42.4143 H         1 UNK         0.0600 
    183 H183        3.4247   -9.2085  -43.9622 H         1 UNK         0.0600 
    184 H184        1.9066  -10.1897  -45.7952 H         1 UNK         0.3000 
    185 H185       -1.0105  -10.2013  -47.6407 H         1 UNK         0.0600 
    186 H186        1.1071   -8.0262  -48.0721 H         1 UNK         0.0600 
    187 H187       -0.0036   -8.6511  -49.2923 H         1 UNK         0.0600 
    188 H188       -0.6232   -7.7438  -47.9234 H         1 UNK         0.0600 
    189 H189        1.5914  -10.4158  -48.6328 H         1 UNK         0.3000 
    190 H190       -0.6533  -21.3751  -46.4435 H         1 UNK         0.3000 
    191 H191       -2.1965  -21.8548  -48.7671 H         1 UNK         0.0600 
    192 H192       -2.1386  -19.6613  -47.6042 H         1 UNK         0.0600 
    193 H193       -2.9619  -20.3519  -46.2107 H         1 UNK         0.0600 
    194 H194       -3.7930  -20.2323  -47.7570 H         1 UNK         0.0600 
    195 H195       -2.7428  -22.9083  -45.3621 H         1 UNK         0.3000 
    196 H196       -5.2137  -24.2395  -45.8394 H         1 UNK         0.0600 
    197 H197       -4.4470  -23.6296  -43.5721 H         1 UNK         0.0600 
    198 H198       -3.0776  -24.7302  -43.6972 H         1 UNK         0.0600 
    199 H199       -4.7190  -25.3633  -43.6608 H         1 UNK         0.0600 
    200 H200       -1.8279  -25.4291  -45.9205 H         1 UNK         0.3000 
    201 H201       -2.4530  -28.1509  -46.4590 H         1 UNK         0.0600 
    202 H202       -0.2855  -27.4042  -45.5116 H         1 UNK         0.0600 
    203 H203        0.1105  -26.5674  -47.0110 H         1 UNK         0.0600 
    204 H204       -0.0250  -28.3211  -46.9882 H         1 UNK         0.0600 
    205 H205       -1.5853  -25.4523  -48.6753 H         1 UNK         0.3000 
    206 H206       -1.7491  -27.1762  -51.0378 H         1 UNK         0.0600 
    207 H207        0.0675  -25.4662  -50.6872 H         1 UNK         0.0600 
    208 H208       -1.1399  -24.1878  -50.7992 H         1 UNK         0.0600 
    209 H209       -0.8185  -25.2311  -52.1820 H         1 UNK         0.0600 
    210 H210       -4.1686  -25.8101  -49.3097 H         1 UNK         0.3000 
    211 H211       -6.2842  -25.2083  -49.6309 H         1 UNK         0.0600 
    212 H212       -6.0255  -26.5554  -52.3760 H         1 UNK         0.0600 
    213 H213       -7.5269  -26.1798  -51.5437 H         1 UNK         0.0600 
    214 H214       -6.4257  -27.3682  -50.8640 H         1 UNK         0.0600 
    215 H215       -4.9547  -23.1165  -49.6532 H         1 UNK         0.3000 
    216 H216       -4.6951  -20.9846  -50.1889 H         1 UNK         0.0600 
    217 H217       -6.5180  -19.8026  -51.4592 H         1 UNK         0.0600 
    218 H218       -7.1514  -20.8693  -50.2203 H         1 UNK         0.0600 
    219 H219       -7.2045  -21.3519  -51.9090 H         1 UNK         0.0600 
    220 H220       -3.1182  -22.8124  -51.4961 H         1 UNK         0.3000 
    221 H221       -1.5987  -23.1340  -53.0881 H         1 UNK         0.0600 
    222 H222       -2.0124  -20.1864  -53.8125 H         1 UNK         0.0600 
    223 H223       -0.9217  -20.7895  -52.5692 H         1 UNK         0.0600 
    224 H224       -0.6335  -21.1806  -54.2581 H         1 UNK         0.0600 
    225 H225       -3.8079  -24.3132  -53.6961 H         1 UNK         0.3000 
    226 H226       -5.2282  -25.1477  -55.1526 H         1 UNK         0.0600 
    227 H227       -3.1515  -25.6894  -56.4346 H         1 UNK         0.0600 
    228 H228       -4.5241  -25.4390  -57.5011 H         1 UNK         0.0600 
    229 H229       -3.3054  -24.1830  -57.3380 H         1 UNK         0.0600 
    230 H230       -6.0868  -22.8901  -54.1251 H         1 UNK         0.3000 
    231 H231       -7.5138  -21.2240  -54.1750 H         1 UNK         0.0600 
    232 H232       -9.4175  -21.3421  -55.7221 H         1 UNK         0.0600 
    233 H233       -8.9660  -22.9653  -55.2326 H         1 UNK         0.0600 
    234 H234       -8.5159  -22.3674  -56.8296 H         1 UNK         0.0600 
    235 H235       -4.8781  -20.6835  -55.4264 H         1 UNK         0.3000 
    236 H236       -5.3867  -18.5623  -57.3959 H         1 UNK         0.0600 
    237 H237       -2.8073  -19.3854  -55.9697 H         1 UNK         0.0600 
    238 H238       -3.3322  -19.9692  -57.5487 H         1 UNK         0.0600 
    239 H239       -2.9367  -18.2711  -57.3234 H         1 UNK         0.0600 
    240 H240       -4.7260  -18.8848  -53.9011 H         1 UNK         0.3000 
    241 H241       -4.3936  -16.0283  -53.4554 H         1 UNK         0.0600 
    242 H242       -7.6320  -14.9540  -52.4616 H         1 UNK         0.3800 
    243 H243       -5.9514  -14.5326  -52.6227 H         1 UNK         0.3800 
    244 H244       -4.7796  -18.3076  -51.4495 H         1 UNK         0.0800 
    245 H245       -4.4228  -16.6509  -51.0350 H         1 UNK         0.0800 
    246 H246       -2.5756  -18.4450  -49.6809 H         1 UNK         0.0800 
    247 H247       -2.2533  -16.7309  -49.8041 H         1 UNK         0.0800 
@<TRIPOS>BOND
     1    1    2 1    
     2    1  127 1    
     3    1  128 1    
     4    1  129 1    
     5    2    3 2    
     6    2    4 am   BACKBONE|DICT|INTERRES
     7    4    5 1    
     8    4  130 1    
     9    5    6 1    
    10    5   65 1    
    11    5  131 1    
    12    6    7 1    
    13    6  132 1    
    14    6  133 1    
    15    7    8 1    
    16    8    9 1    
    17    8  134 1    
    18    8  135 1    
    19    9   10 ar   
    20    9   14 ar   
    21   10   11 ar   
    22   10  136 1    
    23   11   12 ar   
    24   11  126 1    
    25   12   13 ar   
    26   12  137 1    
    27   13   14 ar   
    28   13   15 1    
    29   14  138 1    
    30   15   16 1    
    31   15  139 1    
    32   15  140 1    
    33   16   17 1    
    34   17   18 1    
    35   17  141 1    
    36   17  142 1    
    37   18   19 1    
    38   18   67 1    
    39   18  143 1    
    40   19   20 am   BACKBONE|DICT|INTERRES
    41   19  144 1    
    42   20   21 2    
    43   20   22 1    
    44   22   23 1    
    45   22   24 1    
    46   22  145 1    
    47   23  146 1    
    48   23  147 1    
    49   23  148 1    
    50   24   25 am   BACKBONE|DICT|INTERRES
    51   24  149 1    
    52   25   26 2    
    53   25   27 1    
    54   27   28 1    
    55   27   29 1    
    56   27  150 1    
    57   28  151 1    
    58   28  152 1    
    59   28  153 1    
    60   29   30 am   BACKBONE|DICT|INTERRES
    61   29  154 1    
    62   30   31 2    
    63   30   32 1    
    64   32   33 1    
    65   32   34 1    
    66   32  155 1    
    67   33  156 1    
    68   33  157 1    
    69   33  158 1    
    70   34   35 am   BACKBONE|DICT|INTERRES
    71   34  159 1    
    72   35   36 2    
    73   35   37 1    
    74   37   38 1    
    75   37   39 1    
    76   37  160 1    
    77   38  161 1    
    78   38  162 1    
    79   38  163 1    
    80   39   40 am   BACKBONE|DICT|INTERRES
    81   39  164 1    
    82   40   41 2    
    83   40   42 1    
    84   42   43 1    
    85   42   44 1    
    86   42  165 1    
    87   43  166 1    
    88   43  167 1    
    89   43  168 1    
    90   44   45 am   BACKBONE|DICT|INTERRES
    91   44  169 1    
    92   45   46 2    
    93   45   47 1    
    94   47   48 1    
    95   47   49 1    
    96   47  170 1    
    97   48  171 1    
    98   48  172 1    
    99   48  173 1    
   100   49   50 am   BACKBONE|DICT|INTERRES
   101   49  174 1    
   102   50   51 2    
   103   50   52 1    
   104   52   53 1    
   105   52   54 1    
   106   52  175 1    
   107   53  176 1    
   108   53  177 1    
   109   53  178 1    
   110   54   55 am   BACKBONE|DICT|INTERRES
   111   54  179 1    
   112   55   56 2    
   113   55   57 1    
   114   57   58 1    
   115   57   59 1    
   116   57  180 1    
   117   58  181 1    
   118   58  182 1    
   119   58  183 1    
   120   59   60 am   BACKBONE|DICT|INTERRES
   121   59  184 1    
   122   60   61 2    
   123   60   62 1    
   124   62   63 1    
   125   62   64 1    
   126   62  185 1    
   127   63  186 1    
   128   63  187 1    
   129   63  188 1    
   130   64   65 am   BACKBONE|DICT|INTERRES
   131   64  189 1    
   132   65   66 2    
   133   67   68 2    
   134   67   69 am   BACKBONE|DICT|INTERRES
   135   69   70 1    
   136   69  190 1    
   137   70   71 1    
   138   70   72 1    
   139   70  191 1    
   140   71  192 1    
   141   71  193 1    
   142   71  194 1    
   143   72   73 2    
   144   72   74 am   BACKBONE|DICT|INTERRES
   145   74   75 1    
   146   74  195 1    
   147   75   76 1    
   148   75   77 1    
   149   75  196 1    
   150   76  197 1    
   151   76  198 1    
   152   76  199 1    
   153   77   78 2    
   154   77   79 am   BACKBONE|DICT|INTERRES
   155   79   80 1    
   156   79  200 1    
   157   80   81 1    
   158   80   82 1    
   159   80  201 1    
   160   81  202 1    
   161   81  203 1    
   162   81  204 1    
   163   82   83 2    
   164   82   84 am   BACKBONE|DICT|INTERRES
   165   84   85 1    
   166   84  205 1    
   167   85   86 1    
   168   85   87 1    
   169   85  206 1    
   170   86  207 1    
   171   86  208 1    
   172   86  209 1    
   173   87   88 2    
   174   87   89 am   BACKBONE|DICT|INTERRES
   175   89   90 1    
   176   89  210 1    
   177   90   91 1    
   178   90   92 1    
   179   90  211 1    
   180   91  212 1    
   181   91  213 1    
   182   91  214 1    
   183   92   93 2    
   184   92   94 am   BACKBONE|DICT|INTERRES
   185   94   95 1    
   186   94  215 1    
   187   95   96 1    
   188   95   97 1    
   189   95  216 1    
   190   96  217 1    
   191   96  218 1    
   192   96  219 1    
   193   97   98 2    
   194   97   99 am   BACKBONE|DICT|INTERRES
   195   99  100 1    
   196   99  220 1    
   197  100  101 1    
   198  100  102 1    
   199  100  221 1    
   200  101  222 1    
   201  101  223 1    
   202  101  224 1    
   203  102  103 2    
   204  102  104 am   BACKBONE|DICT|INTERRES
   205  104  105 1    
   206  104  225 1    
   207  105  106 1    
   208  105  107 1    
   209  105  226 1    
   210  106  227 1    
   211  106  228 1    
   212  106  229 1    
   213  107  108 2    
   214  107  109 am   BACKBONE|DICT|INTERRES
   215  109  110 1    
   216  109  230 1    
   217  110  111 1    
   218  110  112 1    
   219  110  231 1    
   220  111  232 1    
   221  111  233 1    
   222  111  234 1    
   223  112  113 2    
   224  112  114 am   BACKBONE|DICT|INTERRES
   225  114  115 1    
   226  114  235 1    
   227  115  116 1    
   228  115  117 1    
   229  115  236 1    
   230  116  237 1    
   231  116  238 1    
   232  116  239 1    
   233  117  118 2    
   234  117  119 am   BACKBONE|DICT|INTERRES
   235  119  120 1    
   236  119  240 1    
   237  120  121 1    
   238  120  124 1    
   239  120  241 1    
   240  121  122 am   BACKBONE|DICT|INTERRES
   241  121  123 2    
   242  122  242 1    
   243  122  243 1    
   244  124  125 1    
   245  124  244 1    
   246  124  245 1    
   247  125  126 1    
   248  126  246 1    
   249  126  247 1    
@<TRIPOS>SUBSTRUCTURE
     1 UNK         1 GROUP             0       ****    0 ROOT    
