@<TRIPOS>MOLECULE
3R540
247   249    1
SMALL
USER_CHARGES


@<TRIPOS>ATOM
      1 CA         -0.5516  -16.0681  -52.8648 C.3       0 UNK        -0.1800 
      2 C          -0.2341  -15.0825  -51.7542 C.2       0 UNK         0.5000 
      3 O           0.6211  -14.2148  -51.9325 O.2       0 UNK        -0.5000 
      4 N          -0.9057  -15.2216  -50.6091 N.am      1 UNK        -0.5000 
      5 CA         -0.6795  -14.4128  -49.4163 C.3       1 UNK         0.1400 
      6 C6          0.5584  -14.8501  -48.5815 C.3       23 UNK        -0.0398 
      7 S7          0.7595  -16.6577  -48.3833 S.3       23 UNK        -0.2404 
      8 C8          2.2501  -16.9249  -49.3952 C.3       23 UNK        -0.0205 
      9 C9          2.5195  -18.3958  -49.6803 C.ar      23 UNK        -0.0193 
     10 C10         2.0438  -18.9772  -50.8601 C.ar      23 UNK        -0.1150 
     11 C11         2.3453  -20.3063  -51.1712 C.ar      23 UNK        -0.0193 
     12 C12         3.1350  -21.0538  -50.2895 C.ar      23 UNK        -0.1150 
     13 C13         3.6304  -20.4826  -49.1118 C.ar      23 UNK        -0.0193 
     14 C14         3.3031  -19.1566  -48.8060 C.ar      23 UNK        -0.1150 
     15 C15         4.6142  -21.2529  -48.2336 C.3       23 UNK        -0.0205 
     16 S16         3.9578  -22.8140  -47.5567 S.3       23 UNK        -0.2404 
     17 C17         2.8994  -22.2090  -46.1972 C.3       23 UNK        -0.0398 
     18 CA          1.5325  -22.9286  -46.0702 C.3       11 UNK         0.1400 
     19 N           0.7520  -22.4068  -44.9445 N.am      11 UNK        -0.5000 
     20 C          -0.4303  -22.8864  -44.5304 C.2       10 UNK         0.5000 
     21 O          -0.9726  -23.8820  -45.0076 O.2       10 UNK        -0.5000 
     22 CA         -1.1550  -22.0981  -43.4263 C.3       10 UNK         0.1400 
     23 CB         -0.5971  -22.4656  -42.0436 C.3       10 UNK        -0.1800 
     24 N          -1.0833  -20.6499  -43.6234 N.am      10 UNK        -0.5000 
     25 C          -1.6143  -19.9929  -44.6657 C.2       9 UNK         0.5000 
     26 O          -2.2631  -20.5349  -45.5599 O.2       9 UNK        -0.5000 
     27 CA         -1.3229  -18.4831  -44.7542 C.3       9 UNK         0.1400 
     28 CB         -2.2049  -17.6917  -43.7774 C.3       9 UNK        -0.1800 
     29 N           0.0836  -18.1673  -44.5070 N.am      9 UNK        -0.5000 
     30 C           1.1043  -18.6309  -45.2419 C.2       8 UNK         0.5000 
     31 O           0.9658  -19.3523  -46.2280 O.2       8 UNK        -0.5000 
     32 CA          2.5185  -18.2885  -44.7467 C.3       8 UNK         0.1400 
     33 CB          2.9143  -16.8531  -45.1272 C.3       8 UNK        -0.1800 
     34 N           2.6349  -18.4728  -43.2999 N.am      8 UNK        -0.5000 
     35 C           2.6140  -19.6664  -42.6889 C.2       7 UNK         0.5000 
     36 O           2.5365  -20.7386  -43.2878 O.2       7 UNK        -0.5000 
     37 CA          2.6479  -19.6605  -41.1497 C.3       7 UNK         0.1400 
     38 CB          4.0919  -19.5397  -40.6405 C.3       7 UNK        -0.1800 
     39 N           1.8385  -18.5876  -40.5714 N.am      7 UNK        -0.5000 
     40 C           0.5028  -18.5126  -40.6606 C.2       6 UNK         0.5000 
     41 O          -0.1949  -19.3648  -41.2072 O.2       6 UNK        -0.5000 
     42 CA         -0.1596  -17.2453  -40.0896 C.3       6 UNK         0.1400 
     43 CB         -0.4678  -17.4231  -38.5957 C.3       6 UNK        -0.1800 
     44 N           0.6431  -16.0339  -40.2815 N.am      6 UNK        -0.5000 
     45 C           1.0072  -15.5455  -41.4742 C.2       5 UNK         0.5000 
     46 O           0.7338  -16.0879  -42.5483 O.2       5 UNK        -0.5000 
     47 CA          1.8780  -14.2760  -41.4541 C.3       5 UNK         0.1400 
     48 CB          3.3619  -14.6595  -41.3398 C.3       5 UNK        -0.1800 
     49 N           1.6967  -13.4638  -42.6567 N.am      5 UNK        -0.5000 
     50 C           0.5588  -12.8495  -43.0057 C.2       4 UNK         0.5000 
     51 O          -0.4414  -12.8281  -42.2842 O.2       4 UNK        -0.5000 
     52 CA          0.5495  -12.1345  -44.3772 C.3       4 UNK         0.1400 
     53 CB          1.5545  -12.7375  -45.3802 C.3       4 UNK        -0.1800 
     54 N          -0.7804  -12.1617  -44.9843 N.am      4 UNK        -0.5000 
     55 C          -1.7863  -11.3204  -44.7097 C.2       3 UNK         0.5000 
     56 O          -1.6785  -10.3505  -43.9572 O.2       3 UNK        -0.5000 
     57 CA         -3.1374  -11.5862  -45.4084 C.3       3 UNK         0.1400 
     58 CB         -3.4902  -10.4342  -46.3636 C.3       3 UNK        -0.1800 
     59 N          -3.1691  -12.8382  -46.1686 N.am      3 UNK        -0.5000 
     60 C          -3.3333  -14.0650  -45.6616 C.2       2 UNK         0.5000 
     61 O          -3.4935  -14.2883  -44.4627 O.2       2 UNK        -0.5000 
     62 CA         -3.2919  -15.2449  -46.6553 C.3       2 UNK         0.1400 
     63 CB         -4.6608  -15.4223  -47.3382 C.3       2 UNK        -0.1800 
     64 N          -2.1880  -15.1857  -47.6310 N.am      2 UNK        -0.5000 
     65 C          -1.9921  -14.3072  -48.6253 C.2       1 UNK         0.5000 
     66 O          -2.7852  -13.4085  -48.9091 O.2       1 UNK        -0.5000 
     67 C           0.7203  -22.8850  -47.3791 C.2       11 UNK         0.5000 
     68 O           0.5841  -23.9129  -48.0415 O.2       11 UNK        -0.5000 
     69 N           0.1602  -21.7132  -47.6995 N.am      12 UNK        -0.5000 
     70 CA         -0.6294  -21.4919  -48.9061 C.3       12 UNK         0.1400 
     71 CB         -0.8858  -19.9905  -49.0572 C.3       12 UNK        -0.1800 
     72 C          -1.9407  -22.3008  -48.9272 C.2       12 UNK         0.5000 
     73 O          -2.3100  -22.8423  -49.9718 O.2       12 UNK        -0.5000 
     74 N          -2.5964  -22.4121  -47.7629 N.am      13 UNK        -0.5000 
     75 CA         -3.7775  -23.2475  -47.5554 C.3       13 UNK         0.1400 
     76 CB         -4.3830  -22.9663  -46.1729 C.3       13 UNK        -0.1800 
     77 C          -3.4751  -24.7468  -47.7291 C.2       13 UNK         0.5000 
     78 O          -4.2302  -25.4384  -48.4104 O.2       13 UNK        -0.5000 
     79 N          -2.3626  -25.2223  -47.1541 N.am      14 UNK        -0.5000 
     80 CA         -1.8895  -26.5991  -47.3109 C.3       14 UNK         0.1400 
     81 CB         -0.7283  -26.8602  -46.3396 C.3       14 UNK        -0.1800 
     82 C          -1.4744  -26.9265  -48.7579 C.2       14 UNK         0.5000 
     83 O          -1.7247  -28.0391  -49.2233 O.2       14 UNK        -0.5000 
     84 N          -0.8552  -25.9534  -49.4384 N.am      15 UNK        -0.5000 
     85 CA         -0.3875  -26.0675  -50.8150 C.3       15 UNK         0.1400 
     86 CB          0.5690  -24.9077  -51.1346 C.3       15 UNK        -0.1800 
     87 C          -1.5256  -26.1312  -51.8478 C.2       15 UNK         0.5000 
     88 O          -1.4768  -26.9948  -52.7257 O.2       15 UNK        -0.5000 
     89 N          -2.5005  -25.2124  -51.7612 N.am      16 UNK        -0.5000 
     90 CA         -3.4589  -24.9850  -52.8486 C.3       16 UNK         0.1400 
     91 CB         -2.8347  -23.9995  -53.8535 C.3       16 UNK        -0.1800 
     92 C          -4.8607  -24.5313  -52.4016 C.2       16 UNK         0.5000 
     93 O          -5.6566  -24.1581  -53.2655 O.2       16 UNK        -0.5000 
     94 N          -5.1657  -24.5727  -51.0956 N.am      17 UNK        -0.5000 
     95 CA         -6.4416  -24.2149  -50.4492 C.3       17 UNK         0.1400 
     96 CB         -7.6018  -25.0991  -50.9467 C.3       17 UNK        -0.1800 
     97 C          -6.8043  -22.7185  -50.5215 C.2       17 UNK         0.5000 
     98 O          -7.0452  -22.1014  -49.4827 O.2       17 UNK        -0.5000 
     99 N          -6.8241  -22.1536  -51.7331 N.am      18 UNK        -0.5000 
    100 CA        -7.0765  -20.7462  -52.0323 C.3       18 UNK         0.1400 
    101 CB        -7.4971  -20.6242  -53.5076 C.3       18 UNK        -0.1800 
    102 C         -5.8354  -19.8962  -51.7059 C.2       18 UNK         0.5000 
    103 O         -5.1485  -19.4268  -52.6143 O.2       18 UNK        -0.5000 
    104 N         -5.5544  -19.7426  -50.4062 N.am      19 UNK        -0.5000 
    105 CA        -4.3404  -19.1515  -49.8357 C.3       19 UNK         0.1400 
    106 CB        -4.4593  -19.1758  -48.3033 C.3       19 UNK        -0.1800 
    107 C         -3.9843  -17.7334  -50.3264 C.2       19 UNK         0.5000 
    108 O         -2.8082  -17.3702  -50.3362 O.2       19 UNK        -0.5000 
    109 N         -4.9988  -16.9581  -50.7288 N.am      20 UNK        -0.5000 
    110 CA        -4.8458  -15.6118  -51.2808 C.3       20 UNK         0.1400 
    111 CB        -6.2099  -14.9070  -51.2483 C.3       20 UNK        -0.1800 
    112 C         -4.2586  -15.5922  -52.7073 C.2       20 UNK         0.5000 
    113 O         -3.7181  -14.5636  -53.1141 O.2       20 UNK        -0.5000 
    114 N         -4.3769  -16.7095  -53.4374 N.am      21 UNK        -0.5000 
    115 CA        -3.8795  -16.8770  -54.8036 C.3       21 UNK         0.1400 
    116 CB        -5.0420  -17.3235  -55.7049 C.3       21 UNK        -0.1800 
    117 C         -2.7342  -17.9006  -54.8653 C.2       21 UNK         0.5000 
    118 O         -1.7677  -17.6820  -55.5958 O.2       21 UNK        -0.5000 
    119 N         -2.8603  -18.9892  -54.0947 N.am      22 UNK        -0.5000 
    120 CA        -1.9426  -20.1366  -54.0420 C.3       22 UNK         0.1400 
    121 C         -1.7708  -20.8785  -55.4073 C.2       22 UNK         0.5000 
    122 N         -2.8097  -20.9500  -56.2318 N.am      22 UNK        -0.7600 
    123 O         -0.7060  -21.3961  -55.7322 O.2       22 UNK        -0.5000 
    124 C124       -0.6127  -19.8086  -53.3065 C.3       23 UNK        -0.0398 
    125 S125        0.1015  -21.2881  -52.5062 S.3       23 UNK        -0.2404 
    126 C126        1.8827  -20.9139  -52.4904 C.3       23 UNK        -0.0205 
    127 H127       -0.9132  -15.5373  -53.7454 H         1 UNK         0.0600 
    128 H128       -1.3187  -16.7764  -52.5554 H         1 UNK         0.0600 
    129 H129        0.3403  -16.6292  -53.1425 H         1 UNK         0.0600 
    130 H130       -1.5904  -15.9697  -50.5063 H         1 UNK         0.3000 
    131 H131       -0.4825  -13.3892  -49.7439 H         1 UNK         0.0600 
    132 H132        0.5391  -14.3930  -47.5929 H         1 UNK         0.0800 
    133 H133        1.4556  -14.4488  -49.0543 H         1 UNK         0.0800 
    134 H134        3.1087  -16.4823  -48.8883 H         1 UNK         0.0800 
    135 H135        2.1461  -16.3886  -50.3395 H         1 UNK         0.0800 
    136 H136        1.4517  -18.3887  -51.5460 H         1 UNK         0.1150 
    137 H137        3.3987  -22.0727  -50.5360 H         1 UNK         0.1150 
    138 H138        3.6917  -18.6989  -47.9075 H         1 UNK         0.1150 
    139 H139        5.4930  -21.4866  -48.8359 H         1 UNK         0.0800 
    140 H140        4.9728  -20.6315  -47.4115 H         1 UNK         0.0800 
    141 H141        2.7508  -21.1381  -46.3212 H         1 UNK         0.0800 
    142 H142        3.4606  -22.3260  -45.2696 H         1 UNK         0.0800 
    143 H143        1.7328  -23.9799  -45.8531 H         1 UNK         0.0600 
    144 H144        1.1467  -21.6062  -44.4623 H         1 UNK         0.3000 
    145 H145       -2.2085  -22.3836  -43.4526 H         1 UNK         0.0600 
    146 H146       -1.1693  -21.9871  -41.2486 H         1 UNK         0.0600 
    147 H147        0.4445  -22.1614  -41.9358 H         1 UNK         0.0600 
    148 H148       -0.6452  -23.5422  -41.8756 H         1 UNK         0.0600 
    149 H149       -0.6047  -20.1200  -42.8997 H         1 UNK         0.3000 
    150 H150       -1.5572  -18.1586  -45.7702 H         1 UNK         0.0600 
    151 H151       -3.2622  -17.8350  -44.0032 H         1 UNK         0.0600 
    152 H152       -1.9986  -16.6228  -43.8346 H         1 UNK         0.0600 
    153 H153       -2.0448  -18.0039  -42.7456 H         1 UNK         0.0600 
    154 H154        0.2885  -17.5537  -43.7230 H         1 UNK         0.3000 
    155 H155        3.2198  -18.9690  -45.2339 H         1 UNK         0.0600 
    156 H156        2.9058  -16.7241  -46.2096 H         1 UNK         0.0600 
    157 H157        3.9204  -16.6160  -44.7814 H         1 UNK         0.0600 
    158 H158        2.2321  -16.1149  -44.7065 H         1 UNK         0.0600 
    159 H159        2.6279  -17.6372  -42.7346 H         1 UNK         0.3000 
    160 H160        2.2428  -20.6142  -40.8046 H         1 UNK         0.0600 
    161 H161        4.5448  -18.5906  -40.9302 H         1 UNK         0.0600 
    162 H162        4.7157  -20.3382  -41.0445 H         1 UNK         0.0600 
    163 H163        4.1342  -19.6144  -39.5538 H         1 UNK         0.0600 
    164 H164        2.3318  -17.8428  -40.1023 H         1 UNK         0.3000 
    165 H165       -1.1045  -17.1023  -40.6177 H         1 UNK         0.0600 
    166 H166       -1.0183  -16.5686  -38.2018 H         1 UNK         0.0600 
    167 H167       -1.0818  -18.3089  -38.4269 H         1 UNK         0.0600 
    168 H168        0.4429  -17.5377  -38.0064 H         1 UNK         0.0600 
    169 H169        0.9170  -15.5398  -39.4444 H         1 UNK         0.3000 
    170 H170        1.5995  -13.6713  -40.5886 H         1 UNK         0.0600 
    171 H171        3.6911  -15.2559  -42.1920 H         1 UNK         0.0600 
    172 H172        3.9950  -13.7736  -41.2865 H         1 UNK         0.0600 
    173 H173        3.5497  -15.2438  -40.4380 H         1 UNK         0.0600 
    174 H174        2.4666  -13.4544  -43.3085 H         1 UNK         0.3000 
    175 H175        0.8344  -11.0954  -44.2007 H         1 UNK         0.0600 
    176 H176        1.4151  -13.8133  -45.4919 H         1 UNK         0.0600 
    177 H177        1.4506  -12.2812  -46.3650 H         1 UNK         0.0600 
    178 H178        2.5841  -12.5666  -45.0641 H         1 UNK         0.0600 
    179 H179       -0.9860  -12.9461  -45.5823 H         1 UNK         0.3000 
    180 H180       -3.9014  -11.6313  -44.6297 H         1 UNK         0.0600 
    181 H181       -4.4698  -10.5849  -46.8177 H         1 UNK         0.0600 
    182 H182       -2.7586  -10.3415  -47.1673 H         1 UNK         0.0600 
    183 H183       -3.5222   -9.4802  -45.8357 H         1 UNK         0.0600 
    184 H184       -3.0653  -12.7654  -47.1778 H         1 UNK         0.3000 
    185 H185       -3.1113  -16.1434  -46.0653 H         1 UNK         0.0600 
    186 H186       -4.9304  -14.5676  -47.9586 H         1 UNK         0.0600 
    187 H187       -4.6730  -16.3079  -47.9667 H         1 UNK         0.0600 
    188 H188       -5.4512  -15.5451  -46.5968 H         1 UNK         0.0600 
    189 H189       -1.4699  -15.8877  -47.5042 H         1 UNK         0.3000 
    190 H190        0.3368  -20.9006  -47.1127 H         1 UNK         0.3000 
    191 H191       -0.0172  -21.8217  -49.7446 H         1 UNK         0.0600 
    192 H192       -1.5715  -19.6175  -48.2983 H         1 UNK         0.0600 
    193 H193       -1.2889  -19.7577  -50.0415 H         1 UNK         0.0600 
    194 H194        0.0404  -19.4310  -48.9551 H         1 UNK         0.0600 
    195 H195       -2.2572  -21.8942  -46.9567 H         1 UNK         0.3000 
    196 H196       -4.5153  -22.9656  -48.3086 H         1 UNK         0.0600 
    197 H197       -4.6753  -21.9207  -46.0755 H         1 UNK         0.0600 
    198 H198       -3.6796  -23.1922  -45.3713 H         1 UNK         0.0600 
    199 H199       -5.2763  -23.5698  -46.0080 H         1 UNK         0.0600 
    200 H200       -1.7980  -24.6094  -46.5712 H         1 UNK         0.3000 
    201 H201       -2.7101  -27.2679  -47.0433 H         1 UNK         0.0600 
    202 H202       -1.0407  -26.7158  -45.3053 H         1 UNK         0.0600 
    203 H203        0.1135  -26.1937  -46.5301 H         1 UNK         0.0600 
    204 H204       -0.3648  -27.8845  -46.4300 H         1 UNK         0.0600 
    205 H205       -0.6131  -25.0965  -48.9477 H         1 UNK         0.3000 
    206 H206        0.1820  -26.9958  -50.8961 H         1 UNK         0.0600 
    207 H207        0.9213  -24.9590  -52.1655 H         1 UNK         0.0600 
    208 H208        0.0840  -23.9409  -51.0022 H         1 UNK         0.0600 
    209 H209        1.4473  -24.9302  -50.4893 H         1 UNK         0.0600 
    210 H210       -2.4502  -24.4989  -51.0378 H         1 UNK         0.3000 
    211 H211       -3.6409  -25.9246  -53.3740 H         1 UNK         0.0600 
    212 H212       -2.5641  -23.0696  -53.3577 H         1 UNK         0.0600 
    213 H213       -3.5149  -23.7585  -54.6712 H         1 UNK         0.0600 
    214 H214       -1.9296  -24.4092  -54.3021 H         1 UNK         0.0600 
    215 H215       -4.4606  -24.9119  -50.4516 H         1 UNK         0.3000 
    216 H216       -6.3195  -24.4397  -49.3905 H         1 UNK         0.0600 
    217 H217       -8.5126  -24.8955  -50.3823 H         1 UNK         0.0600 
    218 H218       -7.3713  -26.1568  -50.8191 H         1 UNK         0.0600 
    219 H219       -7.8304  -24.9304  -51.9991 H         1 UNK         0.0600 
    220 H220       -6.5484  -22.7447  -52.5144 H         1 UNK         0.3000 
    221 H221       -7.9025  -20.3900  -51.4134 H         1 UNK         0.0600 
    222 H222       -6.7247  -21.0004  -54.1801 H         1 UNK         0.0600 
    223 H223       -8.4112  -21.1849  -53.7033 H         1 UNK         0.0600 
    224 H224       -7.6896  -19.5845  -53.7756 H         1 UNK         0.0600 
    225 H225       -6.1612  -20.2248  -49.7522 H         1 UNK         0.3000 
    226 H226       -3.5199  -19.8044  -50.1301 H         1 UNK         0.0600 
    227 H227       -4.4881  -20.1983  -47.9280 H         1 UNK         0.0600 
    228 H228       -3.6140  -18.6798  -47.8249 H         1 UNK         0.0600 
    229 H229       -5.3647  -18.6719  -47.9639 H         1 UNK         0.0600 
    230 H230       -5.9355  -17.3310  -50.6845 H         1 UNK         0.3000 
    231 H231       -4.1618  -15.0537  -50.6393 H         1 UNK         0.0600 
    232 H232       -6.1306  -13.8856  -51.6228 H         1 UNK         0.0600 
    233 H233       -6.5987  -14.8487  -50.2314 H         1 UNK         0.0600 
    234 H234       -6.9463  -15.4265  -51.8626 H         1 UNK         0.0600 
    235 H235       -4.8024  -17.5261  -53.0117 H         1 UNK         0.3000 
    236 H236       -3.4947  -15.9323  -55.1933 H         1 UNK         0.0600 
    237 H237       -5.4845  -18.2595  -55.3609 H         1 UNK         0.0600 
    238 H238       -5.8305  -16.5711  -55.7280 H         1 UNK         0.0600 
    239 H239       -4.7061  -17.4744  -56.7316 H         1 UNK         0.0600 
    240 H240       -3.7116  -19.1010  -53.5468 H         1 UNK         0.3000 
    241 H241       -2.4803  -20.8424  -53.4106 H         1 UNK         0.0600 
    242 H242       -3.6927  -20.5318  -55.9881 H         1 UNK         0.3800 
    243 H243       -2.7062  -21.4244  -57.1148 H         1 UNK         0.3800 
    244 H244        0.1024  -19.3474  -53.9890 H         1 UNK         0.0800 
    245 H245       -0.7931  -19.0837  -52.5128 H         1 UNK         0.0800 
    246 H246        2.1411  -20.2483  -53.3147 H         1 UNK         0.0800 
    247 H247        2.4214  -21.8432  -52.6808 H         1 UNK         0.0800 
@<TRIPOS>BOND
     1    1    2 1    
     2    1  127 1    
     3    1  128 1    
     4    1  129 1    
     5    2    3 2    
     6    2    4 am   BACKBONE|DICT|INTERRES
     7    4    5 1    
     8    4  130 1    
     9    5    6 1    
    10    5   65 1    
    11    5  131 1    
    12    6    7 1    
    13    6  132 1    
    14    6  133 1    
    15    7    8 1    
    16    8    9 1    
    17    8  134 1    
    18    8  135 1    
    19    9   10 ar   
    20    9   14 ar   
    21   10   11 ar   
    22   10  136 1    
    23   11   12 ar   
    24   11  126 1    
    25   12   13 ar   
    26   12  137 1    
    27   13   14 ar   
    28   13   15 1    
    29   14  138 1    
    30   15   16 1    
    31   15  139 1    
    32   15  140 1    
    33   16   17 1    
    34   17   18 1    
    35   17  141 1    
    36   17  142 1    
    37   18   19 1    
    38   18   67 1    
    39   18  143 1    
    40   19   20 am   BACKBONE|DICT|INTERRES
    41   19  144 1    
    42   20   21 2    
    43   20   22 1    
    44   22   23 1    
    45   22   24 1    
    46   22  145 1    
    47   23  146 1    
    48   23  147 1    
    49   23  148 1    
    50   24   25 am   BACKBONE|DICT|INTERRES
    51   24  149 1    
    52   25   26 2    
    53   25   27 1    
    54   27   28 1    
    55   27   29 1    
    56   27  150 1    
    57   28  151 1    
    58   28  152 1    
    59   28  153 1    
    60   29   30 am   BACKBONE|DICT|INTERRES
    61   29  154 1    
    62   30   31 2    
    63   30   32 1    
    64   32   33 1    
    65   32   34 1    
    66   32  155 1    
    67   33  156 1    
    68   33  157 1    
    69   33  158 1    
    70   34   35 am   BACKBONE|DICT|INTERRES
    71   34  159 1    
    72   35   36 2    
    73   35   37 1    
    74   37   38 1    
    75   37   39 1    
    76   37  160 1    
    77   38  161 1    
    78   38  162 1    
    79   38  163 1    
    80   39   40 am   BACKBONE|DICT|INTERRES
    81   39  164 1    
    82   40   41 2    
    83   40   42 1    
    84   42   43 1    
    85   42   44 1    
    86   42  165 1    
    87   43  166 1    
    88   43  167 1    
    89   43  168 1    
    90   44   45 am   BACKBONE|DICT|INTERRES
    91   44  169 1    
    92   45   46 2    
    93   45   47 1    
    94   47   48 1    
    95   47   49 1    
    96   47  170 1    
    97   48  171 1    
    98   48  172 1    
    99   48  173 1    
   100   49   50 am   BACKBONE|DICT|INTERRES
   101   49  174 1    
   102   50   51 2    
   103   50   52 1    
   104   52   53 1    
   105   52   54 1    
   106   52  175 1    
   107   53  176 1    
   108   53  177 1    
   109   53  178 1    
   110   54   55 am   BACKBONE|DICT|INTERRES
   111   54  179 1    
   112   55   56 2    
   113   55   57 1    
   114   57   58 1    
   115   57   59 1    
   116   57  180 1    
   117   58  181 1    
   118   58  182 1    
   119   58  183 1    
   120   59   60 am   BACKBONE|DICT|INTERRES
   121   59  184 1    
   122   60   61 2    
   123   60   62 1    
   124   62   63 1    
   125   62   64 1    
   126   62  185 1    
   127   63  186 1    
   128   63  187 1    
   129   63  188 1    
   130   64   65 am   BACKBONE|DICT|INTERRES
   131   64  189 1    
   132   65   66 2    
   133   67   68 2    
   134   67   69 am   BACKBONE|DICT|INTERRES
   135   69   70 1    
   136   69  190 1    
   137   70   71 1    
   138   70   72 1    
   139   70  191 1    
   140   71  192 1    
   141   71  193 1    
   142   71  194 1    
   143   72   73 2    
   144   72   74 am   BACKBONE|DICT|INTERRES
   145   74   75 1    
   146   74  195 1    
   147   75   76 1    
   148   75   77 1    
   149   75  196 1    
   150   76  197 1    
   151   76  198 1    
   152   76  199 1    
   153   77   78 2    
   154   77   79 am   BACKBONE|DICT|INTERRES
   155   79   80 1    
   156   79  200 1    
   157   80   81 1    
   158   80   82 1    
   159   80  201 1    
   160   81  202 1    
   161   81  203 1    
   162   81  204 1    
   163   82   83 2    
   164   82   84 am   BACKBONE|DICT|INTERRES
   165   84   85 1    
   166   84  205 1    
   167   85   86 1    
   168   85   87 1    
   169   85  206 1    
   170   86  207 1    
   171   86  208 1    
   172   86  209 1    
   173   87   88 2    
   174   87   89 am   BACKBONE|DICT|INTERRES
   175   89   90 1    
   176   89  210 1    
   177   90   91 1    
   178   90   92 1    
   179   90  211 1    
   180   91  212 1    
   181   91  213 1    
   182   91  214 1    
   183   92   93 2    
   184   92   94 am   BACKBONE|DICT|INTERRES
   185   94   95 1    
   186   94  215 1    
   187   95   96 1    
   188   95   97 1    
   189   95  216 1    
   190   96  217 1    
   191   96  218 1    
   192   96  219 1    
   193   97   98 2    
   194   97   99 am   BACKBONE|DICT|INTERRES
   195   99  100 1    
   196   99  220 1    
   197  100  101 1    
   198  100  102 1    
   199  100  221 1    
   200  101  222 1    
   201  101  223 1    
   202  101  224 1    
   203  102  103 2    
   204  102  104 am   BACKBONE|DICT|INTERRES
   205  104  105 1    
   206  104  225 1    
   207  105  106 1    
   208  105  107 1    
   209  105  226 1    
   210  106  227 1    
   211  106  228 1    
   212  106  229 1    
   213  107  108 2    
   214  107  109 am   BACKBONE|DICT|INTERRES
   215  109  110 1    
   216  109  230 1    
   217  110  111 1    
   218  110  112 1    
   219  110  231 1    
   220  111  232 1    
   221  111  233 1    
   222  111  234 1    
   223  112  113 2    
   224  112  114 am   BACKBONE|DICT|INTERRES
   225  114  115 1    
   226  114  235 1    
   227  115  116 1    
   228  115  117 1    
   229  115  236 1    
   230  116  237 1    
   231  116  238 1    
   232  116  239 1    
   233  117  118 2    
   234  117  119 am   BACKBONE|DICT|INTERRES
   235  119  120 1    
   236  119  240 1    
   237  120  121 1    
   238  120  124 1    
   239  120  241 1    
   240  121  122 am   BACKBONE|DICT|INTERRES
   241  121  123 2    
   242  122  242 1    
   243  122  243 1    
   244  124  125 1    
   245  124  244 1    
   246  124  245 1    
   247  125  126 1    
   248  126  246 1    
   249  126  247 1    
@<TRIPOS>SUBSTRUCTURE
     1 UNK         1 GROUP             0       ****    0 ROOT    
