@<TRIPOS>MOLECULE
3R540
247   249    1
SMALL
USER_CHARGES


@<TRIPOS>ATOM
      1 CA          6.6987  -15.0192  -45.1869 C.3       0 UNK        -0.1800 
      2 C           5.3256  -14.3726  -45.2907 C.2       0 UNK         0.5000 
      3 O           4.5585  -14.3878  -44.3272 O.2       0 UNK        -0.5000 
      4 N           5.0004  -13.7984  -46.4553 N.am      1 UNK        -0.5000 
      5 CA          3.7702  -13.0361  -46.6967 C.3       1 UNK         0.1400 
      6 C6          3.3266  -13.0873  -48.1808 C.3       23 UNK        -0.0398 
      7 S7          2.4185  -14.6263  -48.5300 S.3       23 UNK        -0.2404 
      8 C8          3.4366  -15.4347  -49.8045 C.3       23 UNK        -0.0205 
      9 C9          2.7103  -16.6223  -50.4287 C.ar      23 UNK        -0.0193 
     10 C10         1.5366  -16.4095  -51.1573 C.ar      23 UNK        -0.1150 
     11 C11         0.8542  -17.4699  -51.7594 C.ar      23 UNK        -0.0193 
     12 C12         1.3826  -18.7628  -51.6476 C.ar      23 UNK        -0.1150 
     13 C13         2.5653  -18.9941  -50.9389 C.ar      23 UNK        -0.0193 
     14 C14         3.2183  -17.9216  -50.3193 C.ar      23 UNK        -0.1150 
     15 C15         3.1719  -20.3922  -50.9110 C.3       23 UNK        -0.0205 
     16 S16         2.8155  -21.3028  -49.3766 S.3       23 UNK        -0.2404 
     17 C17         1.0337  -21.6673  -49.5399 C.3       23 UNK        -0.0398 
     18 CA          0.5389  -22.6203  -48.4222 C.3       11 UNK         0.1400 
     19 N           0.5809  -22.0038  -47.0921 N.am      11 UNK        -0.5000 
     20 C           0.3835  -22.6518  -45.9361 C.2       10 UNK         0.5000 
     21 O           0.1827  -23.8631  -45.8627 O.2       10 UNK        -0.5000 
     22 CA          0.3612  -21.8070  -44.6478 C.3       10 UNK         0.1400 
     23 CB          1.7858  -21.4964  -44.1662 C.3       10 UNK        -0.1800 
     24 N          -0.4005  -20.5655  -44.7972 N.am      10 UNK        -0.5000 
     25 C          -1.7220  -20.5151  -45.0213 C.2       9 UNK         0.5000 
     26 O          -2.4413  -21.5114  -45.0780 O.2       9 UNK        -0.5000 
     27 CA         -2.3408  -19.1275  -45.2730 C.3       9 UNK         0.1400 
     28 CB         -2.6032  -18.3884  -43.9525 C.3       9 UNK        -0.1800 
     29 N          -1.5130  -18.2959  -46.1425 N.am      9 UNK        -0.5000 
     30 C          -1.2028  -18.5958  -47.4121 C.2       8 UNK         0.5000 
     31 O          -1.6141  -19.5889  -48.0131 O.2       8 UNK        -0.5000 
     32 CA         -0.1882  -17.6625  -48.0885 C.3       8 UNK         0.1400 
     33 CB         -0.8784  -16.3758  -48.5722 C.3       8 UNK        -0.1800 
     34 N           0.9301  -17.3475  -47.1927 N.am      8 UNK        -0.5000 
     35 C           1.7984  -18.2636  -46.7390 C.2       7 UNK         0.5000 
     36 O           1.7335  -19.4522  -47.0323 O.2       7 UNK        -0.5000 
     37 CA          2.8880  -17.8180  -45.7495 C.3       7 UNK         0.1400 
     38 CB          4.1611  -17.3927  -46.4892 C.3       7 UNK        -0.1800 
     39 N           2.4428  -16.7787  -44.8189 N.am      7 UNK        -0.5000 
     40 C           1.5222  -17.0015  -43.8693 C.2       6 UNK         0.5000 
     41 O           0.9981  -18.0999  -43.6770 O.2       6 UNK        -0.5000 
     42 CA          1.0744  -15.7966  -43.0194 C.3       6 UNK         0.1400 
     43 CB          2.0598  -15.5419  -41.8694 C.3       6 UNK        -0.1800 
     44 N           0.8698  -14.5520  -43.7666 N.am      6 UNK        -0.5000 
     45 C           0.0883  -14.4122  -44.8473 C.2       5 UNK         0.5000 
     46 O          -0.4736  -15.3524  -45.4109 O.2       5 UNK        -0.5000 
     47 CA         -0.1256  -12.9645  -45.3389 C.3       5 UNK         0.1400 
     48 CB         -1.0313  -12.8760  -46.5834 C.3       5 UNK        -0.1800 
     49 N          -0.6179  -12.0844  -44.2725 N.am      5 UNK        -0.5000 
     50 C          -1.7123  -12.2617  -43.5112 C.2       4 UNK         0.5000 
     51 O          -2.5103  -13.1865  -43.6701 O.2       4 UNK        -0.5000 
     52 CA         -1.9836  -11.2300  -42.3909 C.3       4 UNK         0.1400 
     53 CB         -2.5106  -11.8971  -41.1025 C.3       4 UNK        -0.1800 
     54 N          -0.8574  -10.3376  -42.0865 N.am      4 UNK        -0.5000 
     55 C           0.3459  -10.6746  -41.6024 C.2       3 UNK         0.5000 
     56 O           0.6941  -11.8264  -41.3324 O.2       3 UNK        -0.5000 
     57 CA          1.3489   -9.5169  -41.4394 C.3       3 UNK         0.1400 
     58 CB          1.6687   -9.2773  -39.9559 C.3       3 UNK        -0.1800 
     59 N           2.5958   -9.7572  -42.1678 N.am      3 UNK        -0.5000 
     60 C           2.6997  -10.0241  -43.4775 C.2       2 UNK         0.5000 
     61 O           1.7284  -10.0778  -44.2374 O.2       2 UNK        -0.5000 
     62 CA          4.1129  -10.2865  -44.0372 C.3       2 UNK         0.1400 
     63 CB          5.2057  -10.4217  -42.9572 C.3       2 UNK        -0.1800 
     64 N           4.0859  -11.5143  -44.8227 N.am      2 UNK        -0.5000 
     65 C           3.9217  -11.6011  -46.1470 C.2       1 UNK         0.5000 
     66 O           3.9052  -10.6300  -46.9052 O.2       1 UNK        -0.5000 
     67 C          -0.8594  -23.1887  -48.7413 C.2       11 UNK         0.5000 
     68 O          -0.9521  -24.3145  -49.2314 O.2       11 UNK        -0.5000 
     69 N          -1.9207  -22.4387  -48.4105 N.am      12 UNK        -0.5000 
     70 CA         -3.3095  -22.8850  -48.5347 C.3       12 UNK         0.1400 
     71 CB         -4.2584  -21.7007  -48.3050 C.3       12 UNK        -0.1800 
     72 C          -3.6467  -24.0568  -47.5923 C.2       12 UNK         0.5000 
     73 O          -4.3261  -24.9941  -48.0085 O.2       12 UNK        -0.5000 
     74 N          -3.1382  -24.0162  -46.3525 N.am      13 UNK        -0.5000 
     75 CA         -3.2729  -25.0973  -45.3737 C.3       13 UNK         0.1400 
     76 CB         -2.7818  -24.6249  -43.9974 C.3       13 UNK        -0.1800 
     77 C          -2.5460  -26.3843  -45.8064 C.2       13 UNK         0.5000 
     78 O          -3.1004  -27.4715  -45.6452 O.2       13 UNK        -0.5000 
     79 N          -1.3436  -26.2389  -46.3815 N.am      14 UNK        -0.5000 
     80 CA         -0.5482  -27.3308  -46.9465 C.3       14 UNK         0.1400 
     81 CB          0.8634  -26.8226  -47.2769 C.3       14 UNK        -0.1800 
     82 C          -1.2052  -27.9674  -48.1856 C.2       14 UNK         0.5000 
     83 O          -1.1859  -29.1914  -48.3207 O.2       14 UNK        -0.5000 
     84 N          -1.8003  -27.1328  -49.0498 N.am      15 UNK        -0.5000 
     85 CA         -2.5888  -27.5585  -50.2095 C.3       15 UNK         0.1400 
     86 CB         -2.7906  -26.3557  -51.1444 C.3       15 UNK        -0.1800 
     87 C          -3.9522  -28.1716  -49.8279 C.2       15 UNK         0.5000 
     88 O          -4.5233  -28.9141  -50.6273 O.2       15 UNK        -0.5000 
     89 N          -4.4446  -27.8357  -48.6266 N.am      16 UNK        -0.5000 
     90 CA         -5.7471  -28.1778  -48.0475 C.3       16 UNK         0.1400 
     91 CB         -5.8792  -29.7002  -47.8356 C.3       16 UNK        -0.1800 
     92 C          -6.9292  -27.5648  -48.8292 C.2       16 UNK         0.5000 
     93 O          -8.0213  -28.1360  -48.8477 O.2       16 UNK        -0.5000 
     94 N          -6.6897  -26.4070  -49.4544 N.am      17 UNK        -0.5000 
     95 CA         -7.6113  -25.6597  -50.3023 C.3       17 UNK         0.1400 
     96 CB         -7.8970  -26.4345  -51.6047 C.3       17 UNK        -0.1800 
     97 C          -6.9669  -24.3074  -50.6299 C.2       17 UNK         0.5000 
     98 O          -5.7430  -24.1773  -50.5545 O.2       17 UNK        -0.5000 
     99 N          -7.7827  -23.3329  -51.0487 N.am      18 UNK        -0.5000 
    100 CA        -7.3540  -21.9991  -51.4839 C.3       18 UNK         0.1400 
    101 CB        -8.5527  -21.0377  -51.3905 C.3       18 UNK        -0.1800 
    102 C         -6.7087  -22.0110  -52.8895 C.2       18 UNK         0.5000 
    103 O         -7.1310  -21.2656  -53.7767 O.2       18 UNK        -0.5000 
    104 N         -5.6981  -22.8708  -53.0677 N.am      19 UNK        -0.5000 
    105 CA        -4.8994  -23.0361  -54.2798 C.3       19 UNK         0.1400 
    106 CB        -3.8685  -24.1508  -54.0485 C.3       19 UNK        -0.1800 
    107 C         -4.2059  -21.7227  -54.6762 C.2       19 UNK         0.5000 
    108 O         -3.6559  -21.0439  -53.8071 O.2       19 UNK        -0.5000 
    109 N         -4.2995  -21.3682  -55.9659 N.am      20 UNK        -0.5000 
    110 CA        -3.8105  -20.1222  -56.5764 C.3       20 UNK         0.1400 
    111 CB        -2.2683  -20.1113  -56.6124 C.3       20 UNK        -0.1800 
    112 C         -4.4025  -18.8359  -55.9494 C.2       20 UNK         0.5000 
    113 O         -3.8041  -17.7660  -56.0690 O.2       20 UNK        -0.5000 
    114 N         -5.5667  -18.9702  -55.2929 N.am      21 UNK        -0.5000 
    115 CA        -6.2829  -17.9564  -54.5135 C.3       21 UNK         0.1400 
    116 CB        -6.7502  -16.7900  -55.4098 C.3       21 UNK        -0.1800 
    117 C         -5.5191  -17.4825  -53.2561 C.2       21 UNK         0.5000 
    118 O         -5.7983  -16.3916  -52.7556 O.2       21 UNK        -0.5000 
    119 N         -4.5885  -18.3041  -52.7474 N.am      22 UNK        -0.5000 
    120 CA        -3.7862  -18.0094  -51.5450 C.3       22 UNK         0.1400 
    121 C         -4.5632  -18.1513  -50.2022 C.2       22 UNK         0.5000 
    122 N         -5.7629  -18.7200  -50.1819 N.am      22 UNK        -0.7600 
    123 O         -4.0826  -17.7126  -49.1631 O.2       22 UNK        -0.5000 
    124 C124       -2.4594  -18.8143  -51.5126 C.3       23 UNK        -0.0398 
    125 S125       -1.4555  -18.5714  -53.0184 S.3       23 UNK        -0.2404 
    126 C126       -0.4081  -17.1488  -52.5614 C.3       23 UNK        -0.0205 
    127 H127        7.3832  -14.3570  -44.6571 H         1 UNK         0.0600 
    128 H128        7.1168  -15.2327  -46.1708 H         1 UNK         0.0600 
    129 H129        6.6366  -15.9561  -44.6336 H         1 UNK         0.0600 
    130 H130        5.6736  -13.7943  -47.2082 H         1 UNK         0.3000 
    131 H131        2.9682  -13.4839  -46.1069 H         1 UNK         0.0600 
    132 H132        2.6361  -12.2759  -48.4176 H         1 UNK         0.0800 
    133 H133        4.1759  -12.9699  -48.8552 H         1 UNK         0.0800 
    134 H134        3.6729  -14.7159  -50.5903 H         1 UNK         0.0800 
    135 H135        4.3863  -15.7437  -49.3659 H         1 UNK         0.0800 
    136 H136        1.1512  -15.4039  -51.2534 H         1 UNK         0.1150 
    137 H137        0.8957  -19.5960  -52.1322 H         1 UNK         0.1150 
    138 H138        4.1352  -18.0982  -49.7753 H         1 UNK         0.1150 
    139 H139        2.8291  -20.9770  -51.7659 H         1 UNK         0.0800 
    140 H140        4.2543  -20.3121  -51.0202 H         1 UNK         0.0800 
    141 H141        0.8720  -22.1108  -50.5241 H         1 UNK         0.0800 
    142 H142        0.4748  -20.7302  -49.5234 H         1 UNK         0.0800 
    143 H143        1.2174  -23.4757  -48.3950 H         1 UNK         0.0600 
    144 H144        0.8205  -21.0137  -47.0656 H         1 UNK         0.3000 
    145 H145       -0.1289  -22.3994  -43.8727 H         1 UNK         0.0600 
    146 H146        1.7746  -20.9088  -43.2480 H         1 UNK         0.0600 
    147 H147        2.3329  -22.4167  -43.9585 H         1 UNK         0.0600 
    148 H148        2.3541  -20.9429  -44.9125 H         1 UNK         0.0600 
    149 H149        0.1184  -19.6970  -44.7301 H         1 UNK         0.3000 
    150 H150       -3.2984  -19.2774  -45.7759 H         1 UNK         0.0600 
    151 H151       -3.2498  -18.9759  -43.2996 H         1 UNK         0.0600 
    152 H152       -3.0980  -17.4328  -44.1275 H         1 UNK         0.0600 
    153 H153       -1.6797  -18.1907  -43.4082 H         1 UNK         0.0600 
    154 H154       -1.1143  -17.4555  -45.7396 H         1 UNK         0.3000 
    155 H155        0.2201  -18.1801  -48.9581 H         1 UNK         0.0600 
    156 H156       -1.3913  -15.8567  -47.7637 H         1 UNK         0.0600 
    157 H157       -0.1737  -15.6809  -49.0216 H         1 UNK         0.0600 
    158 H158       -1.6268  -16.6002  -49.3308 H         1 UNK         0.0600 
    159 H159        0.9917  -16.3961  -46.8586 H         1 UNK         0.3000 
    160 H160        3.1501  -18.6951  -45.1546 H         1 UNK         0.0600 
    161 H161        4.0322  -16.4440  -47.0041 H         1 UNK         0.0600 
    162 H162        4.4462  -18.1349  -47.2361 H         1 UNK         0.0600 
    163 H163        4.9972  -17.2999  -45.7985 H         1 UNK         0.0600 
    164 H164        2.8632  -15.8620  -44.8941 H         1 UNK         0.3000 
    165 H165        0.1096  -16.0591  -42.5805 H         1 UNK         0.0600 
    166 H166        1.6899  -14.7669  -41.1975 H         1 UNK         0.0600 
    167 H167        2.2081  -16.4439  -41.2743 H         1 UNK         0.0600 
    168 H168        3.0366  -15.2273  -42.2378 H         1 UNK         0.0600 
    169 H169        1.2501  -13.7181  -43.3421 H         1 UNK         0.3000 
    170 H170        0.8538  -12.5797  -45.6220 H         1 UNK         0.0600 
    171 H171       -1.1421  -11.8446  -46.9175 H         1 UNK         0.0600 
    172 H172       -0.6056  -13.4413  -47.4134 H         1 UNK         0.0600 
    173 H173       -2.0273  -13.2759  -46.3909 H         1 UNK         0.0600 
    174 H174       -0.0232  -11.2891  -44.0659 H         1 UNK         0.3000 
    175 H175       -2.7776  -10.5861  -42.7717 H         1 UNK         0.0600 
    176 H176       -1.8020  -12.6230  -40.7027 H         1 UNK         0.0600 
    177 H177       -2.7076  -11.1573  -40.3267 H         1 UNK         0.0600 
    178 H178       -3.4466  -12.4253  -41.2878 H         1 UNK         0.0600 
    179 H179       -1.0197   -9.3641  -42.3057 H         1 UNK         0.3000 
    180 H180        0.9068   -8.6038  -41.8433 H         1 UNK         0.0600 
    181 H181        2.1546  -10.1432  -39.5041 H         1 UNK         0.0600 
    182 H182        0.7589   -9.0783  -39.3880 H         1 UNK         0.0600 
    183 H183        2.3260   -8.4172  -39.8265 H         1 UNK         0.0600 
    184 H184        3.4389   -9.7625  -41.6131 H         1 UNK         0.3000 
    185 H185        4.3701   -9.4380  -44.6743 H         1 UNK         0.0600 
    186 H186        5.3160   -9.5006  -42.3834 H         1 UNK         0.0600 
    187 H187        4.9928  -11.2335  -42.2601 H         1 UNK         0.0600 
    188 H188        6.1751  -10.6273  -43.4119 H         1 UNK         0.0600 
    189 H189        4.1177  -12.3833  -44.3001 H         1 UNK         0.3000 
    190 H190       -1.7717  -21.4988  -48.0510 H         1 UNK         0.3000 
    191 H191       -3.4514  -23.2340  -49.5592 H         1 UNK         0.0600 
    192 H192       -4.1487  -21.2830  -47.3039 H         1 UNK         0.0600 
    193 H193       -5.2985  -22.0056  -48.4264 H         1 UNK         0.0600 
    194 H194       -4.0666  -20.9032  -49.0222 H         1 UNK         0.0600 
    195 H195       -2.6428  -23.1830  -46.0484 H         1 UNK         0.3000 
    196 H196       -4.3356  -25.3333  -45.2864 H         1 UNK         0.0600 
    197 H197       -2.9002  -25.4105  -43.2503 H         1 UNK         0.0600 
    198 H198       -3.3490  -23.7603  -43.6524 H         1 UNK         0.0600 
    199 H199       -1.7282  -24.3475  -44.0171 H         1 UNK         0.0600 
    200 H200       -0.9280  -25.3113  -46.4113 H         1 UNK         0.3000 
    201 H201       -0.4579  -28.1069  -46.1837 H         1 UNK         0.0600 
    202 H202        1.3622  -26.4395  -46.3865 H         1 UNK         0.0600 
    203 H203        0.8410  -26.0224  -48.0169 H         1 UNK         0.0600 
    204 H204        1.4837  -27.6247  -47.6783 H         1 UNK         0.0600 
    205 H205       -1.7057  -26.1313  -48.9079 H         1 UNK         0.3000 
    206 H206       -2.0234  -28.3205  -50.7498 H         1 UNK         0.0600 
    207 H207       -1.8360  -25.9553  -51.4859 H         1 UNK         0.0600 
    208 H208       -3.3610  -26.6388  -52.0297 H         1 UNK         0.0600 
    209 H209       -3.3325  -25.5494  -50.6493 H         1 UNK         0.0600 
    210 H210       -3.9110  -27.1623  -48.0911 H         1 UNK         0.3000 
    211 H211       -5.7648  -27.7081  -47.0631 H         1 UNK         0.0600 
    212 H212       -5.9471  -30.2381  -48.7813 H         1 UNK         0.0600 
    213 H213       -6.7746  -29.9380  -47.2604 H         1 UNK         0.0600 
    214 H214       -5.0260  -30.0953  -47.2838 H         1 UNK         0.0600 
    215 H215       -5.7834  -25.9605  -49.3364 H         1 UNK         0.3000 
    216 H216       -8.5395  -25.4871  -49.7546 H         1 UNK         0.0600 
    217 H217       -6.9760  -26.6585  -52.1450 H         1 UNK         0.0600 
    218 H218       -8.5387  -25.8600  -52.2737 H         1 UNK         0.0600 
    219 H219       -8.4061  -27.3780  -51.4092 H         1 UNK         0.0600 
    220 H220       -8.7707  -23.5268  -51.1270 H         1 UNK         0.3000 
    221 H221       -6.5899  -21.6397  -50.7911 H         1 UNK         0.0600 
    222 H222       -8.9438  -20.9937  -50.3739 H         1 UNK         0.0600 
    223 H223       -9.3655  -21.3440  -52.0501 H         1 UNK         0.0600 
    224 H224       -8.2686  -20.0226  -51.6702 H         1 UNK         0.0600 
    225 H225       -5.4230  -23.4259  -52.2624 H         1 UNK         0.3000 
    226 H226       -5.5732  -23.3434  -55.0819 H         1 UNK         0.0600 
    227 H227       -4.3576  -25.0964  -53.8142 H         1 UNK         0.0600 
    228 H228       -3.2582  -24.3110  -54.9382 H         1 UNK         0.0600 
    229 H229       -3.1942  -23.9093  -53.2254 H         1 UNK         0.0600 
    230 H230       -4.7925  -21.9869  -56.5952 H         1 UNK         0.3000 
    231 H231       -4.1608  -20.1333  -57.6094 H         1 UNK         0.0600 
    232 H232       -1.8411  -20.0677  -55.6108 H         1 UNK         0.0600 
    233 H233       -1.8917  -19.2507  -57.1661 H         1 UNK         0.0600 
    234 H234       -1.8800  -21.0042  -57.1019 H         1 UNK         0.0600 
    235 H235       -5.9630  -19.9000  -55.2317 H         1 UNK         0.3000 
    236 H236       -7.1791  -18.4536  -54.1401 H         1 UNK         0.0600 
    237 H237       -7.4320  -16.1315  -54.8705 H         1 UNK         0.0600 
    238 H238       -5.9142  -16.1802  -55.7529 H         1 UNK         0.0600 
    239 H239       -7.2829  -17.1556  -56.2877 H         1 UNK         0.0600 
    240 H240       -4.3748  -19.1766  -53.2198 H         1 UNK         0.3000 
    241 H241       -3.5078  -16.9554  -51.6002 H         1 UNK         0.0600 
    242 H242       -6.2612  -18.7828  -49.3088 H         1 UNK         0.3800 
    243 H243       -6.1901  -19.0321  -51.0361 H         1 UNK         0.3800 
    244 H244       -2.6705  -19.8808  -51.4171 H         1 UNK         0.0800 
    245 H245       -1.8570  -18.5502  -50.6431 H         1 UNK         0.0800 
    246 H246       -1.0161  -16.4246  -52.0170 H         1 UNK         0.0800 
    247 H247       -0.0994  -16.6552  -53.4836 H         1 UNK         0.0800 
@<TRIPOS>BOND
     1    1    2 1    
     2    1  127 1    
     3    1  128 1    
     4    1  129 1    
     5    2    3 2    
     6    2    4 am   BACKBONE|DICT|INTERRES
     7    4    5 1    
     8    4  130 1    
     9    5    6 1    
    10    5   65 1    
    11    5  131 1    
    12    6    7 1    
    13    6  132 1    
    14    6  133 1    
    15    7    8 1    
    16    8    9 1    
    17    8  134 1    
    18    8  135 1    
    19    9   10 ar   
    20    9   14 ar   
    21   10   11 ar   
    22   10  136 1    
    23   11   12 ar   
    24   11  126 1    
    25   12   13 ar   
    26   12  137 1    
    27   13   14 ar   
    28   13   15 1    
    29   14  138 1    
    30   15   16 1    
    31   15  139 1    
    32   15  140 1    
    33   16   17 1    
    34   17   18 1    
    35   17  141 1    
    36   17  142 1    
    37   18   19 1    
    38   18   67 1    
    39   18  143 1    
    40   19   20 am   BACKBONE|DICT|INTERRES
    41   19  144 1    
    42   20   21 2    
    43   20   22 1    
    44   22   23 1    
    45   22   24 1    
    46   22  145 1    
    47   23  146 1    
    48   23  147 1    
    49   23  148 1    
    50   24   25 am   BACKBONE|DICT|INTERRES
    51   24  149 1    
    52   25   26 2    
    53   25   27 1    
    54   27   28 1    
    55   27   29 1    
    56   27  150 1    
    57   28  151 1    
    58   28  152 1    
    59   28  153 1    
    60   29   30 am   BACKBONE|DICT|INTERRES
    61   29  154 1    
    62   30   31 2    
    63   30   32 1    
    64   32   33 1    
    65   32   34 1    
    66   32  155 1    
    67   33  156 1    
    68   33  157 1    
    69   33  158 1    
    70   34   35 am   BACKBONE|DICT|INTERRES
    71   34  159 1    
    72   35   36 2    
    73   35   37 1    
    74   37   38 1    
    75   37   39 1    
    76   37  160 1    
    77   38  161 1    
    78   38  162 1    
    79   38  163 1    
    80   39   40 am   BACKBONE|DICT|INTERRES
    81   39  164 1    
    82   40   41 2    
    83   40   42 1    
    84   42   43 1    
    85   42   44 1    
    86   42  165 1    
    87   43  166 1    
    88   43  167 1    
    89   43  168 1    
    90   44   45 am   BACKBONE|DICT|INTERRES
    91   44  169 1    
    92   45   46 2    
    93   45   47 1    
    94   47   48 1    
    95   47   49 1    
    96   47  170 1    
    97   48  171 1    
    98   48  172 1    
    99   48  173 1    
   100   49   50 am   BACKBONE|DICT|INTERRES
   101   49  174 1    
   102   50   51 2    
   103   50   52 1    
   104   52   53 1    
   105   52   54 1    
   106   52  175 1    
   107   53  176 1    
   108   53  177 1    
   109   53  178 1    
   110   54   55 am   BACKBONE|DICT|INTERRES
   111   54  179 1    
   112   55   56 2    
   113   55   57 1    
   114   57   58 1    
   115   57   59 1    
   116   57  180 1    
   117   58  181 1    
   118   58  182 1    
   119   58  183 1    
   120   59   60 am   BACKBONE|DICT|INTERRES
   121   59  184 1    
   122   60   61 2    
   123   60   62 1    
   124   62   63 1    
   125   62   64 1    
   126   62  185 1    
   127   63  186 1    
   128   63  187 1    
   129   63  188 1    
   130   64   65 am   BACKBONE|DICT|INTERRES
   131   64  189 1    
   132   65   66 2    
   133   67   68 2    
   134   67   69 am   BACKBONE|DICT|INTERRES
   135   69   70 1    
   136   69  190 1    
   137   70   71 1    
   138   70   72 1    
   139   70  191 1    
   140   71  192 1    
   141   71  193 1    
   142   71  194 1    
   143   72   73 2    
   144   72   74 am   BACKBONE|DICT|INTERRES
   145   74   75 1    
   146   74  195 1    
   147   75   76 1    
   148   75   77 1    
   149   75  196 1    
   150   76  197 1    
   151   76  198 1    
   152   76  199 1    
   153   77   78 2    
   154   77   79 am   BACKBONE|DICT|INTERRES
   155   79   80 1    
   156   79  200 1    
   157   80   81 1    
   158   80   82 1    
   159   80  201 1    
   160   81  202 1    
   161   81  203 1    
   162   81  204 1    
   163   82   83 2    
   164   82   84 am   BACKBONE|DICT|INTERRES
   165   84   85 1    
   166   84  205 1    
   167   85   86 1    
   168   85   87 1    
   169   85  206 1    
   170   86  207 1    
   171   86  208 1    
   172   86  209 1    
   173   87   88 2    
   174   87   89 am   BACKBONE|DICT|INTERRES
   175   89   90 1    
   176   89  210 1    
   177   90   91 1    
   178   90   92 1    
   179   90  211 1    
   180   91  212 1    
   181   91  213 1    
   182   91  214 1    
   183   92   93 2    
   184   92   94 am   BACKBONE|DICT|INTERRES
   185   94   95 1    
   186   94  215 1    
   187   95   96 1    
   188   95   97 1    
   189   95  216 1    
   190   96  217 1    
   191   96  218 1    
   192   96  219 1    
   193   97   98 2    
   194   97   99 am   BACKBONE|DICT|INTERRES
   195   99  100 1    
   196   99  220 1    
   197  100  101 1    
   198  100  102 1    
   199  100  221 1    
   200  101  222 1    
   201  101  223 1    
   202  101  224 1    
   203  102  103 2    
   204  102  104 am   BACKBONE|DICT|INTERRES
   205  104  105 1    
   206  104  225 1    
   207  105  106 1    
   208  105  107 1    
   209  105  226 1    
   210  106  227 1    
   211  106  228 1    
   212  106  229 1    
   213  107  108 2    
   214  107  109 am   BACKBONE|DICT|INTERRES
   215  109  110 1    
   216  109  230 1    
   217  110  111 1    
   218  110  112 1    
   219  110  231 1    
   220  111  232 1    
   221  111  233 1    
   222  111  234 1    
   223  112  113 2    
   224  112  114 am   BACKBONE|DICT|INTERRES
   225  114  115 1    
   226  114  235 1    
   227  115  116 1    
   228  115  117 1    
   229  115  236 1    
   230  116  237 1    
   231  116  238 1    
   232  116  239 1    
   233  117  118 2    
   234  117  119 am   BACKBONE|DICT|INTERRES
   235  119  120 1    
   236  119  240 1    
   237  120  121 1    
   238  120  124 1    
   239  120  241 1    
   240  121  122 am   BACKBONE|DICT|INTERRES
   241  121  123 2    
   242  122  242 1    
   243  122  243 1    
   244  124  125 1    
   245  124  244 1    
   246  124  245 1    
   247  125  126 1    
   248  126  246 1    
   249  126  247 1    
@<TRIPOS>SUBSTRUCTURE
     1 UNK         1 GROUP             0       ****    0 ROOT    
