@<TRIPOS>MOLECULE
3R540
247   249    1
SMALL
USER_CHARGES


@<TRIPOS>ATOM
      1 CA         -2.6012  -10.9098  -44.4200 C.3       0 UNK        -0.1800 
      2 C          -1.3045  -10.4604  -45.0790 C.2       0 UNK         0.5000 
      3 O          -0.7617   -9.4179  -44.7128 O.2       0 UNK        -0.5000 
      4 N          -0.8117  -11.2389  -46.0492 N.am      1 UNK        -0.5000 
      5 CA          0.4540  -11.0135  -46.7537 C.3       1 UNK         0.1400 
      6 C6          0.4943  -11.7455  -48.1206 C.3       23 UNK        -0.0398 
      7 S7          0.0600  -13.5231  -48.0745 S.3       23 UNK        -0.2404 
      8 C8         -0.9452  -13.6061  -49.5896 C.3       23 UNK        -0.0205 
      9 C9         -1.4436  -15.0099  -49.8905 C.ar      23 UNK        -0.0193 
     10 C10        -0.6250  -15.9167  -50.5667 C.ar      23 UNK        -0.1150 
     11 C11        -1.0972  -17.1868  -50.9105 C.ar      23 UNK        -0.0193 
     12 C12        -2.4080  -17.5441  -50.5641 C.ar      23 UNK        -0.1150 
     13 C13        -3.2443  -16.6428  -49.8891 C.ar      23 UNK        -0.0193 
     14 C14        -2.7454  -15.3822  -49.5492 C.ar      23 UNK        -0.1150 
     15 C15        -4.7126  -16.9426  -49.5824 C.3       23 UNK        -0.0205 
     16 S16        -5.1737  -18.7061  -49.5239 S.3       23 UNK        -0.2404 
     17 C17        -4.8802  -19.1197  -47.7735 C.3       23 UNK        -0.0398 
     18 CA         -4.4424  -20.5938  -47.6240 C.3       11 UNK         0.1400 
     19 N          -3.1007  -20.8188  -48.1707 N.am      11 UNK        -0.5000 
     20 C          -2.4931  -22.0061  -48.2849 C.2       10 UNK         0.5000 
     21 O          -3.0224  -23.0771  -47.9866 O.2       10 UNK        -0.5000 
     22 CA         -1.0289  -21.9950  -48.7608 C.3       10 UNK         0.1400 
     23 CB         -0.9799  -22.2018  -50.2799 C.3       10 UNK        -0.1800 
     24 N          -0.2731  -20.7835  -48.4163 N.am      10 UNK        -0.5000 
     25 C          -0.1245  -20.2685  -47.1874 C.2       9 UNK         0.5000 
     26 O          -0.6873  -20.7136  -46.1838 O.2       9 UNK        -0.5000 
     27 CA          0.7532  -19.0119  -47.0747 C.3       9 UNK         0.1400 
     28 CB         -0.0824  -17.7629  -47.3834 C.3       9 UNK        -0.1800 
     29 N           1.3177  -18.8889  -45.7338 N.am      9 UNK        -0.5000 
     30 C           2.3253  -19.6338  -45.2583 C.2       8 UNK         0.5000 
     31 O           2.9633  -20.4304  -45.9476 O.2       8 UNK        -0.5000 
     32 CA          2.6877  -19.4678  -43.7695 C.3       8 UNK         0.1400 
     33 CB          4.0992  -18.8801  -43.6083 C.3       8 UNK        -0.1800 
     34 N           1.7270  -18.6154  -43.0646 N.am      8 UNK        -0.5000 
     35 C           0.6870  -19.0757  -42.3550 C.2       7 UNK         0.5000 
     36 O           0.4750  -20.2718  -42.1552 O.2       7 UNK        -0.5000 
     37 CA         -0.2887  -18.0350  -41.7732 C.3       7 UNK         0.1400 
     38 CB          0.0670  -17.7314  -40.3112 C.3       7 UNK        -0.1800 
     39 N          -0.3257  -16.7928  -42.5520 N.am      7 UNK        -0.5000 
     40 C          -0.9722  -16.6687  -43.7218 C.2       6 UNK         0.5000 
     41 O          -1.6260  -17.5868  -44.2153 O.2       6 UNK        -0.5000 
     42 CA         -0.8444  -15.3405  -44.5041 C.3       6 UNK         0.1400 
     43 CB         -2.1583  -14.9372  -45.2051 C.3       6 UNK        -0.1800 
     44 N          -0.2872  -14.2256  -43.7347 N.am      6 UNK        -0.5000 
     45 C          -0.8088  -13.6016  -42.6700 C.2       5 UNK         0.5000 
     46 O          -1.9249  -13.8367  -42.2054 O.2       5 UNK        -0.5000 
     47 CA          0.1197  -12.5621  -42.0036 C.3       5 UNK         0.1400 
     48 CB         -0.3685  -12.1096  -40.6113 C.3       5 UNK        -0.1800 
     49 N           1.5152  -13.0276  -41.9589 N.am      5 UNK        -0.5000 
     50 C           1.9669  -14.1169  -41.3185 C.2       4 UNK         0.5000 
     51 O           1.2538  -14.8297  -40.6144 O.2       4 UNK        -0.5000 
     52 CA          3.4459  -14.4947  -41.5447 C.3       4 UNK         0.1400 
     53 CB          3.8155  -15.8621  -40.9308 C.3       4 UNK        -0.1800 
     54 N           3.8408  -14.4543  -42.9563 N.am      4 UNK        -0.5000 
     55 C           3.3187  -15.1450  -43.9793 C.2       3 UNK         0.5000 
     56 O           2.3608  -15.9126  -43.8662 O.2       3 UNK        -0.5000 
     57 CA          3.9794  -14.9238  -45.3604 C.3       3 UNK         0.1400 
     58 CB          3.3452  -15.7929  -46.4605 C.3       3 UNK        -0.1800 
     59 N           3.9047  -13.5263  -45.7849 N.am      3 UNK        -0.5000 
     60 C           4.5870  -12.4978  -45.2652 C.2       2 UNK         0.5000 
     61 O           5.4858  -12.6353  -44.4337 O.2       2 UNK        -0.5000 
     62 CA          4.1775  -11.0749  -45.7021 C.3       2 UNK         0.1400 
     63 CB          5.2503  -10.4707  -46.6216 C.3       2 UNK        -0.1800 
     64 N           2.8711  -10.9553  -46.3644 N.am      2 UNK        -0.5000 
     65 C           1.6824  -11.3410  -45.8760 C.2       1 UNK         0.5000 
     66 O           1.5481  -11.9428  -44.8077 O.2       1 UNK        -0.5000 
     67 C          -4.6061  -21.0824  -46.1672 C.2       11 UNK         0.5000 
     68 O          -5.7178  -21.4488  -45.7851 O.2       11 UNK        -0.5000 
     69 N          -3.5092  -21.1155  -45.4002 N.am      12 UNK        -0.5000 
     70 CA         -3.4587  -21.6683  -44.0506 C.3       12 UNK         0.1400 
     71 CB         -2.8828  -20.6112  -43.0984 C.3       12 UNK        -0.1800 
     72 C          -2.6103  -22.9486  -44.0249 C.2       12 UNK         0.5000 
     73 O          -3.0758  -23.9752  -43.5301 O.2       12 UNK        -0.5000 
     74 N          -1.3886  -22.8753  -44.5708 N.am      13 UNK        -0.5000 
     75 CA         -0.3596  -23.9138  -44.4805 C.3       13 UNK         0.1400 
     76 CB          0.9811  -23.3282  -44.9481 C.3       13 UNK        -0.1800 
     77 C          -0.6816  -25.2045  -45.2549 C.2       13 UNK         0.5000 
     78 O          -0.2003  -26.2700  -44.8677 O.2       13 UNK        -0.5000 
     79 N          -1.4868  -25.0929  -46.3179 N.am      14 UNK        -0.5000 
     80 CA         -1.9552  -26.2110  -47.1384 C.3       14 UNK         0.1400 
     81 CB         -1.4053  -26.0488  -48.5674 C.3       14 UNK        -0.1800 
     82 C          -3.4923  -26.2992  -47.1277 C.2       14 UNK         0.5000 
     83 O          -4.0637  -26.9453  -48.0059 O.2       14 UNK        -0.5000 
     84 N          -4.1436  -25.6196  -46.1682 N.am      15 UNK        -0.5000 
     85 CA         -5.5980  -25.5286  -45.9757 C.3       15 UNK         0.1400 
     86 CB         -6.1421  -26.8668  -45.4353 C.3       15 UNK        -0.1800 
     87 C          -6.3672  -25.0374  -47.2250 C.2       15 UNK         0.5000 
     88 O          -7.5139  -25.4335  -47.4390 O.2       15 UNK        -0.5000 
     89 N          -5.7021  -24.2034  -48.0372 N.am      16 UNK        -0.5000 
     90 CA         -6.1413  -23.6539  -49.3205 C.3       16 UNK         0.1400 
     91 CB         -7.4250  -22.8107  -49.1715 C.3       16 UNK        -0.1800 
     92 C          -6.2329  -24.6799  -50.4684 C.2       16 UNK         0.5000 
     93 O          -6.7621  -24.3393  -51.5266 O.2       16 UNK        -0.5000 
     94 N          -5.6785  -25.8894  -50.2925 N.am      17 UNK        -0.5000 
     95 CA         -5.6272  -26.9150  -51.3397 C.3       17 UNK         0.1400 
     96 CB         -5.2871  -28.2769  -50.7163 C.3       17 UNK        -0.1800 
     97 C          -4.6228  -26.5655  -52.4545 C.2       17 UNK         0.5000 
     98 O          -4.8806  -26.8605  -53.6217 O.2       17 UNK        -0.5000 
     99 N          -3.5088  -25.9254  -52.0733 N.am      18 UNK        -0.5000 
    100 CA        -2.4379  -25.4934  -52.9755 C.3       18 UNK         0.1400 
    101 CB        -1.0838  -25.7797  -52.3054 C.3       18 UNK        -0.1800 
    102 C         -2.5511  -24.0068  -53.3688 C.2       18 UNK         0.5000 
    103 O         -1.7142  -23.5232  -54.1315 O.2       18 UNK        -0.5000 
    104 N         -3.5718  -23.2972  -52.8604 N.am      19 UNK        -0.5000 
    105 CA        -3.7674  -21.8535  -53.0489 C.3       19 UNK         0.1400 
    106 CB        -4.8712  -21.3474  -52.1111 C.3       19 UNK        -0.1800 
    107 C         -4.0281  -21.4135  -54.5031 C.2       19 UNK         0.5000 
    108 O         -3.8745  -20.2328  -54.8119 O.2       19 UNK        -0.5000 
    109 N         -4.3622  -22.3636  -55.3865 N.am      20 UNK        -0.5000 
    110 CA        -4.4623  -22.1633  -56.8337 C.3       20 UNK         0.1400 
    111 CB        -5.0228  -23.4433  -57.4722 C.3       20 UNK        -0.1800 
    112 C         -3.1249  -21.7681  -57.4992 C.2       20 UNK         0.5000 
    113 O         -3.1447  -21.1659  -58.5732 O.2       20 UNK        -0.5000 
    114 N         -1.9940  -22.1016  -56.8587 N.am      21 UNK        -0.5000 
    115 CA        -0.6489  -21.7444  -57.3112 C.3       21 UNK         0.1400 
    116 CB         0.3516  -22.7548  -56.7276 C.3       21 UNK        -0.1800 
    117 C         -0.2372  -20.3055  -56.9356 C.2       21 UNK         0.5000 
    118 O          0.7423  -19.8045  -57.4905 O.2       21 UNK        -0.5000 
    119 N         -0.9529  -19.6744  -55.9949 N.am      22 UNK        -0.5000 
    120 CA        -0.6773  -18.3145  -55.5046 C.3       22 UNK         0.1400 
    121 C         -1.0191  -17.2212  -56.5545 C.2       22 UNK         0.5000 
    122 N         -0.2483  -16.1432  -56.6082 N.am      22 UNK        -0.7600 
    123 O         -1.9974  -17.3189  -57.2922 O.2       22 UNK        -0.5000 
    124 C124       -1.4021  -18.0256  -54.1657 C.3       23 UNK        -0.0398 
    125 S125       -0.9563  -19.2227  -52.8611 S.3       23 UNK        -0.2404 
    126 C126       -0.1547  -18.1605  -51.6162 C.3       23 UNK        -0.0205 
    127 H127       -2.9127  -11.8955  -44.7659 H         1 UNK         0.0600 
    128 H128       -3.3997  -10.2022  -44.6427 H         1 UNK         0.0600 
    129 H129       -2.4779  -10.9553  -43.3380 H         1 UNK         0.0600 
    130 H130       -1.2826  -12.0986  -46.2896 H         1 UNK         0.3000 
    131 H131        0.5177   -9.9439  -46.9659 H         1 UNK         0.0600 
    132 H132        1.4670  -11.6425  -48.6039 H         1 UNK         0.0800 
    133 H133       -0.2013  -11.2356  -48.7883 H         1 UNK         0.0800 
    134 H134       -0.3531  -13.2459  -50.4326 H         1 UNK         0.0800 
    135 H135       -1.7916  -12.9235  -49.4977 H         1 UNK         0.0800 
    136 H136        0.3835  -15.6273  -50.8275 H         1 UNK         0.1150 
    137 H137       -2.7786  -18.5198  -50.8407 H         1 UNK         0.1150 
    138 H138       -3.3857  -14.6720  -49.0448 H         1 UNK         0.1150 
    139 H139       -5.0055  -16.4689  -48.6440 H         1 UNK         0.0800 
    140 H140       -5.3129  -16.4693  -50.3602 H         1 UNK         0.0800 
    141 H141       -5.8112  -18.9285  -47.2363 H         1 UNK         0.0800 
    142 H142       -4.1312  -18.4497  -47.3468 H         1 UNK         0.0800 
    143 H143       -5.1283  -21.1994  -48.2139 H         1 UNK         0.0600 
    144 H144       -2.5881  -19.9936  -48.4425 H         1 UNK         0.3000 
    145 H145       -0.5289  -22.8391  -48.2820 H         1 UNK         0.0600 
    146 H146        0.0414  -22.3508  -50.6306 H         1 UNK         0.0600 
    147 H147       -1.5568  -23.0779  -50.5744 H         1 UNK         0.0600 
    148 H148       -1.3972  -21.3461  -50.8097 H         1 UNK         0.0600 
    149 H149        0.2184  -20.3459  -49.1810 H         1 UNK         0.3000 
    150 H150        1.5690  -19.0796  -47.7975 H         1 UNK         0.0600 
    151 H151       -0.4977  -17.8202  -48.3857 H         1 UNK         0.0600 
    152 H152        0.5148  -16.8539  -47.3350 H         1 UNK         0.0600 
    153 H153       -0.9243  -17.6558  -46.7015 H         1 UNK         0.0600 
    154 H154        0.8036  -18.3191  -45.0796 H         1 UNK         0.3000 
    155 H155        2.6951  -20.4660  -43.3273 H         1 UNK         0.0600 
    156 H156        4.2002  -17.9194  -44.1100 H         1 UNK         0.0600 
    157 H157        4.8486  -19.5480  -44.0346 H         1 UNK         0.0600 
    158 H158        4.3514  -18.7393  -42.5572 H         1 UNK         0.0600 
    159 H159        1.8360  -17.6124  -43.1988 H         1 UNK         0.3000 
    160 H160       -1.2884  -18.4734  -41.7814 H         1 UNK         0.0600 
    161 H161        1.1000  -17.3993  -40.2079 H         1 UNK         0.0600 
    162 H162       -0.0490  -18.6220  -39.6925 H         1 UNK         0.0600 
    163 H163       -0.5807  -16.9590  -39.8960 H         1 UNK         0.0600 
    164 H164        0.2079  -16.0106  -42.1926 H         1 UNK         0.3000 
    165 H165       -0.1117  -15.5366  -45.2876 H         1 UNK         0.0600 
    166 H166       -2.9660  -14.7736  -44.4917 H         1 UNK         0.0600 
    167 H167       -2.0314  -14.0258  -45.7871 H         1 UNK         0.0600 
    168 H168       -2.4875  -15.7126  -45.8980 H         1 UNK         0.0600 
    169 H169        0.6393  -13.9323  -44.0186 H         1 UNK         0.3000 
    170 H170        0.1069  -11.6817  -42.6461 H         1 UNK         0.0600 
    171 H171       -1.3477  -11.6343  -40.6799 H         1 UNK         0.0600 
    172 H172       -0.4618  -12.9457  -39.9180 H         1 UNK         0.0600 
    173 H173        0.3142  -11.3827  -40.1716 H         1 UNK         0.0600 
    174 H174        2.1487  -12.5353  -42.5752 H         1 UNK         0.3000 
    175 H175        4.0369  -13.7327  -41.0349 H         1 UNK         0.0600 
    176 H176        3.2376  -16.6744  -41.3716 H         1 UNK         0.0600 
    177 H177        4.8719  -16.0871  -41.0770 H         1 UNK         0.0600 
    178 H178        3.6277  -15.8732  -39.8566 H         1 UNK         0.0600 
    179 H179        4.5978  -13.8156  -43.1845 H         1 UNK         0.3000 
    180 H180        5.0295  -15.2077  -45.2688 H         1 UNK         0.0600 
    181 H181        2.2956  -15.5395  -46.6102 H         1 UNK         0.0600 
    182 H182        3.3983  -16.8520  -46.2089 H         1 UNK         0.0600 
    183 H183        3.8591  -15.6621  -47.4128 H         1 UNK         0.0600 
    184 H184        3.1644  -13.3040  -46.4333 H         1 UNK         0.3000 
    185 H185        4.1305  -10.4720  -44.7932 H         1 UNK         0.0600 
    186 H186        5.3180  -11.0103  -47.5670 H         1 UNK         0.0600 
    187 H187        5.0373   -9.4250  -46.8448 H         1 UNK         0.0600 
    188 H188        6.2349  -10.5048  -46.1531 H         1 UNK         0.0600 
    189 H189        2.8878  -10.4748  -47.2523 H         1 UNK         0.3000 
    190 H190       -2.6220  -20.8209  -45.7961 H         1 UNK         0.3000 
    191 H191       -4.4574  -21.9295  -43.6947 H         1 UNK         0.0600 
    192 H192       -2.7622  -21.0078  -42.0896 H         1 UNK         0.0600 
    193 H193       -3.5371  -19.7417  -43.0345 H         1 UNK         0.0600 
    194 H194       -1.9073  -20.2643  -43.4383 H         1 UNK         0.0600 
    195 H195       -1.0971  -22.0033  -45.0084 H         1 UNK         0.3000 
    196 H196       -0.2592  -24.1851  -43.4276 H         1 UNK         0.0600 
    197 H197        0.9461  -23.0254  -45.9951 H         1 UNK         0.0600 
    198 H198        1.2550  -22.4549  -44.3559 H         1 UNK         0.0600 
    199 H199        1.7860  -24.0567  -44.8436 H         1 UNK         0.0600 
    200 H200       -1.8578  -24.1835  -46.5648 H         1 UNK         0.3000 
    201 H201       -1.5920  -27.1610  -46.7422 H         1 UNK         0.0600 
    202 H202       -1.8116  -25.1651  -49.0576 H         1 UNK         0.0600 
    203 H203       -1.6566  -26.9112  -49.1860 H         1 UNK         0.0600 
    204 H204       -0.3189  -25.9604  -48.5643 H         1 UNK         0.0600 
    205 H205       -3.5859  -25.1291  -45.4810 H         1 UNK         0.3000 
    206 H206       -5.7564  -24.7698  -45.2079 H         1 UNK         0.0600 
    207 H207       -5.5994  -27.1810  -44.5437 H         1 UNK         0.0600 
    208 H208       -7.1936  -26.7818  -45.1590 H         1 UNK         0.0600 
    209 H209       -6.0603  -27.6630  -46.1760 H         1 UNK         0.0600 
    210 H210       -4.7486  -23.9603  -47.7830 H         1 UNK         0.3000 
    211 H211       -5.3416  -22.9797  -49.6180 H         1 UNK         0.0600 
    212 H212       -7.6101  -22.2210  -50.0700 H         1 UNK         0.0600 
    213 H213       -7.3511  -22.1134  -48.3371 H         1 UNK         0.0600 
    214 H214       -8.3029  -23.4357  -49.0073 H         1 UNK         0.0600 
    215 H215       -5.2503  -26.1250  -49.4019 H         1 UNK         0.3000 
    216 H216       -6.6180  -26.9917  -51.7929 H         1 UNK         0.0600 
    217 H217       -4.2799  -28.2904  -50.2986 H         1 UNK         0.0600 
    218 H218       -5.3407  -29.0700  -51.4630 H         1 UNK         0.0600 
    219 H219       -5.9847  -28.5321  -49.9184 H         1 UNK         0.0600 
    220 H220       -3.3818  -25.7330  -51.0905 H         1 UNK         0.3000 
    221 H221       -2.4767  -26.0698  -53.9021 H         1 UNK         0.0600 
    222 H222       -0.9850  -26.8358  -52.0538 H         1 UNK         0.0600 
    223 H223       -0.9522  -25.2048  -51.3898 H         1 UNK         0.0600 
    224 H224       -0.2562  -25.5282  -52.9699 H         1 UNK         0.0600 
    225 H225       -4.2568  -23.7796  -52.2985 H         1 UNK         0.3000 
    226 H226       -2.8391  -21.3681  -52.7497 H         1 UNK         0.0600 
    227 H227       -5.8078  -21.8857  -52.2565 H         1 UNK         0.0600 
    228 H228       -4.5695  -21.4458  -51.0697 H         1 UNK         0.0600 
    229 H229       -5.0734  -20.2884  -52.2787 H         1 UNK         0.0600 
    230 H230       -4.4710  -23.3088  -55.0500 H         1 UNK         0.3000 
    231 H231       -5.1696  -21.3507  -57.0122 H         1 UNK         0.0600 
    232 H232       -4.3644  -24.2969  -57.3058 H         1 UNK         0.0600 
    233 H233       -5.1396  -23.3238  -58.5502 H         1 UNK         0.0600 
    234 H234       -6.0039  -23.6906  -57.0662 H         1 UNK         0.0600 
    235 H235       -2.0516  -22.5953  -55.9741 H         1 UNK         0.3000 
    236 H236       -0.6098  -21.8234  -58.3997 H         1 UNK         0.0600 
    237 H237        0.0865  -23.7769  -56.9987 H         1 UNK         0.0600 
    238 H238        1.3586  -22.5697  -57.1036 H         1 UNK         0.0600 
    239 H239        0.3932  -22.6959  -55.6392 H         1 UNK         0.0600 
    240 H240       -1.7765  -20.1218  -55.6154 H         1 UNK         0.3000 
    241 H241        0.3961  -18.2581  -55.3114 H         1 UNK         0.0600 
    242 H242       -0.4667  -15.4190  -57.2751 H         1 UNK         0.3800 
    243 H243        0.5578  -16.0364  -56.0116 H         1 UNK         0.3800 
    244 H244       -2.4843  -18.0519  -54.3000 H         1 UNK         0.0800 
    245 H245       -1.1699  -17.0172  -53.8189 H         1 UNK         0.0800 
    246 H246        0.6626  -17.6221  -52.0988 H         1 UNK         0.0800 
    247 H247        0.3037  -18.7994  -50.8618 H         1 UNK         0.0800 
@<TRIPOS>BOND
     1    1    2 1    
     2    1  127 1    
     3    1  128 1    
     4    1  129 1    
     5    2    3 2    
     6    2    4 am   BACKBONE|DICT|INTERRES
     7    4    5 1    
     8    4  130 1    
     9    5    6 1    
    10    5   65 1    
    11    5  131 1    
    12    6    7 1    
    13    6  132 1    
    14    6  133 1    
    15    7    8 1    
    16    8    9 1    
    17    8  134 1    
    18    8  135 1    
    19    9   10 ar   
    20    9   14 ar   
    21   10   11 ar   
    22   10  136 1    
    23   11   12 ar   
    24   11  126 1    
    25   12   13 ar   
    26   12  137 1    
    27   13   14 ar   
    28   13   15 1    
    29   14  138 1    
    30   15   16 1    
    31   15  139 1    
    32   15  140 1    
    33   16   17 1    
    34   17   18 1    
    35   17  141 1    
    36   17  142 1    
    37   18   19 1    
    38   18   67 1    
    39   18  143 1    
    40   19   20 am   BACKBONE|DICT|INTERRES
    41   19  144 1    
    42   20   21 2    
    43   20   22 1    
    44   22   23 1    
    45   22   24 1    
    46   22  145 1    
    47   23  146 1    
    48   23  147 1    
    49   23  148 1    
    50   24   25 am   BACKBONE|DICT|INTERRES
    51   24  149 1    
    52   25   26 2    
    53   25   27 1    
    54   27   28 1    
    55   27   29 1    
    56   27  150 1    
    57   28  151 1    
    58   28  152 1    
    59   28  153 1    
    60   29   30 am   BACKBONE|DICT|INTERRES
    61   29  154 1    
    62   30   31 2    
    63   30   32 1    
    64   32   33 1    
    65   32   34 1    
    66   32  155 1    
    67   33  156 1    
    68   33  157 1    
    69   33  158 1    
    70   34   35 am   BACKBONE|DICT|INTERRES
    71   34  159 1    
    72   35   36 2    
    73   35   37 1    
    74   37   38 1    
    75   37   39 1    
    76   37  160 1    
    77   38  161 1    
    78   38  162 1    
    79   38  163 1    
    80   39   40 am   BACKBONE|DICT|INTERRES
    81   39  164 1    
    82   40   41 2    
    83   40   42 1    
    84   42   43 1    
    85   42   44 1    
    86   42  165 1    
    87   43  166 1    
    88   43  167 1    
    89   43  168 1    
    90   44   45 am   BACKBONE|DICT|INTERRES
    91   44  169 1    
    92   45   46 2    
    93   45   47 1    
    94   47   48 1    
    95   47   49 1    
    96   47  170 1    
    97   48  171 1    
    98   48  172 1    
    99   48  173 1    
   100   49   50 am   BACKBONE|DICT|INTERRES
   101   49  174 1    
   102   50   51 2    
   103   50   52 1    
   104   52   53 1    
   105   52   54 1    
   106   52  175 1    
   107   53  176 1    
   108   53  177 1    
   109   53  178 1    
   110   54   55 am   BACKBONE|DICT|INTERRES
   111   54  179 1    
   112   55   56 2    
   113   55   57 1    
   114   57   58 1    
   115   57   59 1    
   116   57  180 1    
   117   58  181 1    
   118   58  182 1    
   119   58  183 1    
   120   59   60 am   BACKBONE|DICT|INTERRES
   121   59  184 1    
   122   60   61 2    
   123   60   62 1    
   124   62   63 1    
   125   62   64 1    
   126   62  185 1    
   127   63  186 1    
   128   63  187 1    
   129   63  188 1    
   130   64   65 am   BACKBONE|DICT|INTERRES
   131   64  189 1    
   132   65   66 2    
   133   67   68 2    
   134   67   69 am   BACKBONE|DICT|INTERRES
   135   69   70 1    
   136   69  190 1    
   137   70   71 1    
   138   70   72 1    
   139   70  191 1    
   140   71  192 1    
   141   71  193 1    
   142   71  194 1    
   143   72   73 2    
   144   72   74 am   BACKBONE|DICT|INTERRES
   145   74   75 1    
   146   74  195 1    
   147   75   76 1    
   148   75   77 1    
   149   75  196 1    
   150   76  197 1    
   151   76  198 1    
   152   76  199 1    
   153   77   78 2    
   154   77   79 am   BACKBONE|DICT|INTERRES
   155   79   80 1    
   156   79  200 1    
   157   80   81 1    
   158   80   82 1    
   159   80  201 1    
   160   81  202 1    
   161   81  203 1    
   162   81  204 1    
   163   82   83 2    
   164   82   84 am   BACKBONE|DICT|INTERRES
   165   84   85 1    
   166   84  205 1    
   167   85   86 1    
   168   85   87 1    
   169   85  206 1    
   170   86  207 1    
   171   86  208 1    
   172   86  209 1    
   173   87   88 2    
   174   87   89 am   BACKBONE|DICT|INTERRES
   175   89   90 1    
   176   89  210 1    
   177   90   91 1    
   178   90   92 1    
   179   90  211 1    
   180   91  212 1    
   181   91  213 1    
   182   91  214 1    
   183   92   93 2    
   184   92   94 am   BACKBONE|DICT|INTERRES
   185   94   95 1    
   186   94  215 1    
   187   95   96 1    
   188   95   97 1    
   189   95  216 1    
   190   96  217 1    
   191   96  218 1    
   192   96  219 1    
   193   97   98 2    
   194   97   99 am   BACKBONE|DICT|INTERRES
   195   99  100 1    
   196   99  220 1    
   197  100  101 1    
   198  100  102 1    
   199  100  221 1    
   200  101  222 1    
   201  101  223 1    
   202  101  224 1    
   203  102  103 2    
   204  102  104 am   BACKBONE|DICT|INTERRES
   205  104  105 1    
   206  104  225 1    
   207  105  106 1    
   208  105  107 1    
   209  105  226 1    
   210  106  227 1    
   211  106  228 1    
   212  106  229 1    
   213  107  108 2    
   214  107  109 am   BACKBONE|DICT|INTERRES
   215  109  110 1    
   216  109  230 1    
   217  110  111 1    
   218  110  112 1    
   219  110  231 1    
   220  111  232 1    
   221  111  233 1    
   222  111  234 1    
   223  112  113 2    
   224  112  114 am   BACKBONE|DICT|INTERRES
   225  114  115 1    
   226  114  235 1    
   227  115  116 1    
   228  115  117 1    
   229  115  236 1    
   230  116  237 1    
   231  116  238 1    
   232  116  239 1    
   233  117  118 2    
   234  117  119 am   BACKBONE|DICT|INTERRES
   235  119  120 1    
   236  119  240 1    
   237  120  121 1    
   238  120  124 1    
   239  120  241 1    
   240  121  122 am   BACKBONE|DICT|INTERRES
   241  121  123 2    
   242  122  242 1    
   243  122  243 1    
   244  124  125 1    
   245  124  244 1    
   246  124  245 1    
   247  125  126 1    
   248  126  246 1    
   249  126  247 1    
@<TRIPOS>SUBSTRUCTURE
     1 UNK         1 GROUP             0       ****    0 ROOT    
