@<TRIPOS>MOLECULE
3R540
247   249    1
SMALL
USER_CHARGES


@<TRIPOS>ATOM
      1 CA         -1.6925  -13.6695  -50.8538 C.3       0 UNK        -0.1800 
      2 C          -0.7059  -13.4213  -49.7228 C.2       0 UNK         0.5000 
      3 O          -0.9840  -12.6250  -48.8269 O.2       0 UNK        -0.5000 
      4 N           0.4376  -14.1170  -49.7377 N.am      1 UNK        -0.5000 
      5 CA          1.4889  -14.0400  -48.7137 C.3       1 UNK         0.1400 
      6 C6          2.7841  -14.7840  -49.1323 C.3       23 UNK        -0.0398 
      7 S7          2.5263  -16.4377  -49.8693 S.3       23 UNK        -0.2404 
      8 C8          2.7757  -17.5324  -48.4314 C.3       23 UNK        -0.0205 
      9 C9          2.7900  -19.0235  -48.7678 C.ar      23 UNK        -0.0193 
     10 C10         2.0263  -19.5572  -49.8119 C.ar      23 UNK        -0.1150 
     11 C11         2.0521  -20.9262  -50.0931 C.ar      23 UNK        -0.0193 
     12 C12         2.8390  -21.7739  -49.3077 C.ar      23 UNK        -0.1150 
     13 C13         3.6046  -21.2594  -48.2562 C.ar      23 UNK        -0.0193 
     14 C14         3.5763  -19.8865  -48.0000 C.ar      23 UNK        -0.1150 
     15 C15         4.5145  -22.1596  -47.4278 C.3       23 UNK        -0.0205 
     16 S16         3.6763  -23.6188  -46.7322 S.3       23 UNK        -0.2404 
     17 C17         2.5275  -22.8871  -45.5155 C.3       23 UNK        -0.0398 
     18 CA          1.2047  -23.6918  -45.4515 C.3       11 UNK         0.1400 
     19 N           0.5843  -23.6545  -44.1238 N.am      11 UNK        -0.5000 
     20 C          -0.1688  -24.6493  -43.6279 C.2       10 UNK         0.5000 
     21 O          -0.3344  -25.7289  -44.1956 O.2       10 UNK        -0.5000 
     22 CA         -0.8811  -24.3977  -42.2842 C.3       10 UNK         0.1400 
     23 CB          0.0077  -24.8420  -41.1127 C.3       10 UNK        -0.1800 
     24 N          -1.2692  -23.0019  -42.0853 N.am      10 UNK        -0.5000 
     25 C          -2.1331  -22.3224  -42.8528 C.2       9 UNK         0.5000 
     26 O          -2.7567  -22.8258  -43.7863 O.2       9 UNK        -0.5000 
     27 CA         -2.2863  -20.8160  -42.5592 C.3       9 UNK         0.1400 
     28 CB         -3.5261  -20.5633  -41.6893 C.3       9 UNK        -0.1800 
     29 N          -1.1142  -20.2157  -41.9136 N.am      9 UNK        -0.5000 
     30 C           0.1192  -20.1619  -42.4348 C.2       8 UNK         0.5000 
     31 O           0.4230  -20.6307  -43.5372 O.2       8 UNK        -0.5000 
     32 CA          1.2011  -19.5764  -41.5110 C.3       8 UNK         0.1400 
     33 CB          1.7571  -20.6790  -40.5952 C.3       8 UNK        -0.1800 
     34 N           2.3105  -18.9881  -42.2557 N.am      8 UNK        -0.5000 
     35 C           2.2730  -17.8030  -42.8733 C.2       7 UNK         0.5000 
     36 O           1.2930  -17.0520  -42.8794 O.2       7 UNK        -0.5000 
     37 CA          3.5571  -17.3953  -43.6073 C.3       7 UNK         0.1400 
     38 CB          3.6967  -18.1635  -44.9279 C.3       7 UNK        -0.1800 
     39 N           3.5205  -15.9635  -43.8761 N.am      7 UNK        -0.5000 
     40 C           4.5796  -15.1481  -43.9426 C.2       6 UNK         0.5000 
     41 O           5.7445  -15.5361  -43.8447 O.2       6 UNK        -0.5000 
     42 CA          4.2999  -13.6450  -44.1463 C.3       6 UNK         0.1400 
     43 CB          4.6867  -13.2057  -45.5668 C.3       6 UNK        -0.1800 
     44 N           2.8972  -13.3006  -43.9067 N.am      6 UNK        -0.5000 
     45 C           2.3640  -13.0905  -42.6953 C.2       5 UNK         0.5000 
     46 O           3.0241  -13.1024  -41.6546 O.2       5 UNK        -0.5000 
     47 CA          0.8397  -12.8611  -42.6392 C.3       5 UNK         0.1400 
     48 CB          0.3824  -12.1224  -41.3641 C.3       5 UNK        -0.1800 
     49 N           0.3018  -12.2191  -43.8420 N.am      5 UNK        -0.5000 
     50 C           0.5443  -10.9813  -44.3013 C.2       4 UNK         0.5000 
     51 O           1.2922  -10.1775  -43.7434 O.2       4 UNK        -0.5000 
     52 CA         -0.1615  -10.5644  -45.6122 C.3       4 UNK         0.1400 
     53 CB          0.8665  -10.3504  -46.7347 C.3       4 UNK        -0.1800 
     54 N          -1.1604  -11.5332  -46.0707 N.am      4 UNK        -0.5000 
     55 C          -2.3599  -11.7373  -45.5082 C.2       3 UNK         0.5000 
     56 O          -2.8168  -11.0461  -44.5978 O.2       3 UNK        -0.5000 
     57 CA         -3.1477  -12.9630  -46.0065 C.3       3 UNK         0.1400 
     58 CB         -4.0452  -12.5934  -47.1975 C.3       3 UNK        -0.1800 
     59 N          -2.2572  -14.0724  -46.3682 N.am      3 UNK        -0.5000 
     60 C          -1.5987  -14.8281  -45.4752 C.2       2 UNK         0.5000 
     61 O          -1.7321  -14.7070  -44.2586 O.2       2 UNK        -0.5000 
     62 CA         -0.5837  -15.8514  -46.0194 C.3       2 UNK         0.1400 
     63 CB         -1.2440  -17.2110  -46.2564 C.3       2 UNK        -0.1800 
     64 N           0.0521  -15.4092  -47.2583 N.am      2 UNK        -0.5000 
     65 C           1.0031  -14.4684  -47.3120 C.2       1 UNK         0.5000 
     66 O           1.4614  -13.9145  -46.3124 O.2       1 UNK        -0.5000 
     67 C           0.1998  -23.2444  -46.5306 C.2       11 UNK         0.5000 
     68 O           0.1595  -23.8400  -47.6063 O.2       11 UNK        -0.5000 
     69 N          -0.6356  -22.2449  -46.2040 N.am      12 UNK        -0.5000 
     70 CA         -1.6808  -21.7027  -47.0795 C.3       12 UNK         0.1400 
     71 CB         -2.3606  -20.5177  -46.3846 C.3       12 UNK        -0.1800 
     72 C          -2.7326  -22.7423  -47.5109 C.2       12 UNK         0.5000 
     73 O          -3.2547  -22.6628  -48.6231 O.2       12 UNK        -0.5000 
     74 N          -2.9723  -23.7331  -46.6413 N.am      13 UNK        -0.5000 
     75 CA         -3.8199  -24.9046  -46.8634 C.3       13 UNK         0.1400 
     76 CB         -3.8544  -25.7332  -45.5698 C.3       13 UNK        -0.1800 
     77 C          -3.4106  -25.7888  -48.0627 C.2       13 UNK         0.5000 
     78 O          -4.2196  -26.6120  -48.4930 O.2       13 UNK        -0.5000 
     79 N          -2.1932  -25.6048  -48.6004 N.am      14 UNK        -0.5000 
     80 CA         -1.7337  -26.2208  -49.8471 C.3       14 UNK         0.1400 
     81 CB         -0.2373  -25.9324  -50.0401 C.3       14 UNK        -0.1800 
     82 C          -2.5310  -25.7599  -51.0850 C.2       14 UNK         0.5000 
     83 O          -2.6401  -26.5325  -52.0379 O.2       14 UNK        -0.5000 
     84 N          -3.0842  -24.5346  -51.0378 N.am      15 UNK        -0.5000 
     85 CA         -3.9698  -23.9250  -52.0368 C.3       15 UNK         0.1400 
     86 CB         -5.3542  -24.6027  -51.9971 C.3       15 UNK        -0.1800 
     87 C          -3.3551  -23.8860  -53.4524 C.2       15 UNK         0.5000 
     88 O          -4.0083  -24.2739  -54.4227 O.2       15 UNK        -0.5000 
     89 N          -2.0979  -23.4288  -53.5426 N.am      16 UNK        -0.5000 
     90 CA         -1.2772  -23.4158  -54.7592 C.3       16 UNK         0.1400 
     91 CB          0.1165  -22.8725  -54.4136 C.3       16 UNK        -0.1800 
     92 C          -1.8726  -22.6366  -55.9509 C.2       16 UNK         0.5000 
     93 O          -1.6196  -23.0095  -57.0973 O.2       16 UNK        -0.5000 
     94 N          -2.6586  -21.5923  -55.6653 N.am      17 UNK        -0.5000 
     95 CA         -3.4023  -20.7914  -56.6388 C.3       17 UNK         0.1400 
     96 CB         -2.9747  -19.3201  -56.5006 C.3       17 UNK        -0.1800 
     97 C          -4.9249  -20.9624  -56.4549 C.2       17 UNK         0.5000 
     98 O          -5.6902  -20.1311  -56.9455 O.2       17 UNK        -0.5000 
     99 N          -5.3378  -22.0316  -55.7555 N.am      18 UNK        -0.5000 
    100 CA        -6.7153  -22.4193  -55.4367 C.3       18 UNK         0.1400 
    101 CB        -7.4923  -22.7844  -56.7194 C.3       18 UNK        -0.1800 
    102 C         -7.4624  -21.4026  -54.5456 C.2       18 UNK         0.5000 
    103 O         -8.6858  -21.2894  -54.6475 O.2       18 UNK        -0.5000 
    104 N         -6.7270  -20.6923  -53.6803 N.am      19 UNK        -0.5000 
    105 CA        -7.2656  -19.7274  -52.7232 C.3       19 UNK         0.1400 
    106 CB        -6.6452  -18.3501  -53.0074 C.3       19 UNK        -0.1800 
    107 C         -6.9537  -20.1734  -51.2867 C.2       19 UNK         0.5000 
    108 O         -6.0341  -20.9647  -51.0665 O.2       19 UNK        -0.5000 
    109 N         -7.7094  -19.6256  -50.3249 N.am      20 UNK        -0.5000 
    110 CA        -7.5387  -19.8692  -48.8880 C.3       20 UNK         0.1400 
    111 CB        -8.7578  -19.3163  -48.1346 C.3       20 UNK        -0.1800 
    112 C         -6.2366  -19.2696  -48.3216 C.2       20 UNK         0.5000 
    113 O         -5.6847  -19.8100  -47.3644 O.2       20 UNK        -0.5000 
    114 N         -5.7475  -18.1926  -48.9518 N.am      21 UNK        -0.5000 
    115 CA        -4.4546  -17.5586  -48.6824 C.3       21 UNK         0.1400 
    116 CB        -4.6065  -16.0358  -48.8342 C.3       21 UNK        -0.1800 
    117 C         -3.3515  -18.1262  -49.6025 C.2       21 UNK         0.5000 
    118 O         -2.4438  -17.3972  -50.0081 O.2       21 UNK        -0.5000 
    119 N         -3.4725  -19.4134  -49.9455 N.am      22 UNK        -0.5000 
    120 CA        -2.6891  -20.1648  -50.9313 C.3       22 UNK         0.1400 
    121 C         -3.0046  -19.7472  -52.3902 C.2       22 UNK         0.5000 
    122 N         -2.7851  -18.4903  -52.7514 N.am      22 UNK        -0.7600 
    123 O         -3.4694  -20.5580  -53.1861 O.2       22 UNK        -0.5000 
    124 C124       -1.1642  -20.1906  -50.6402 C.3       23 UNK        -0.0398 
    125 S125       -0.4598  -21.8617  -50.8415 S.3       23 UNK        -0.2404 
    126 C126        1.2653  -21.4796  -51.2727 C.3       23 UNK        -0.0205 
    127 H127       -2.6549  -13.9827  -50.4490 H         1 UNK         0.0600 
    128 H128       -1.3421  -14.4470  -51.5331 H         1 UNK         0.0600 
    129 H129       -1.8432  -12.7551  -51.4271 H         1 UNK         0.0600 
    130 H130        0.6147  -14.7722  -50.4867 H         1 UNK         0.3000 
    131 H131        1.7504  -12.9840  -48.6217 H         1 UNK         0.0600 
    132 H132        3.4918  -14.8532  -48.3051 H         1 UNK         0.0800 
    133 H133        3.2946  -14.1863  -49.8885 H         1 UNK         0.0800 
    134 H134        3.7145  -17.2564  -47.9488 H         1 UNK         0.0800 
    135 H135        1.9828  -17.3554  -47.7058 H         1 UNK         0.0800 
    136 H136        1.4184  -18.9048  -50.4198 H         1 UNK         0.1150 
    137 H137        2.8661  -22.8331  -49.5222 H         1 UNK         0.1150 
    138 H138        4.1871  -19.4865  -47.2057 H         1 UNK         0.1150 
    139 H139        5.3310  -22.5007  -48.0653 H         1 UNK         0.0800 
    140 H140        4.9772  -21.6032  -46.6111 H         1 UNK         0.0800 
    141 H141        2.3502  -21.8310  -45.7286 H         1 UNK         0.0800 
    142 H142        3.0327  -22.9156  -44.5491 H         1 UNK         0.0800 
    143 H143        1.4466  -24.7359  -45.6644 H         1 UNK         0.0600 
    144 H144        0.6428  -22.7779  -43.6203 H         1 UNK         0.3000 
    145 H145       -1.7909  -25.0017  -42.2751 H         1 UNK         0.0600 
    146 H146        0.9223  -24.2504  -41.0539 H         1 UNK         0.0600 
    147 H147       -0.5161  -24.7470  -40.1614 H         1 UNK         0.0600 
    148 H148        0.2991  -25.8878  -41.2185 H         1 UNK         0.0600 
    149 H149       -0.8130  -22.5088  -41.3328 H         1 UNK         0.3000 
    150 H150       -2.4307  -20.3047  -43.5108 H         1 UNK         0.0600 
    151 H151       -3.4297  -21.0258  -40.7062 H         1 UNK         0.0600 
    152 H152       -4.4220  -20.9725  -42.1585 H         1 UNK         0.0600 
    153 H153       -3.6964  -19.4962  -41.5446 H         1 UNK         0.0600 
    154 H154       -1.2688  -19.8256  -40.9948 H         1 UNK         0.3000 
    155 H155        0.7501  -18.7997  -40.8893 H         1 UNK         0.0600 
    156 H156        2.2153  -21.4867  -41.1680 H         1 UNK         0.0600 
    157 H157        0.9690  -21.1180  -39.9821 H         1 UNK         0.0600 
    158 H158        2.5102  -20.2827  -39.9138 H         1 UNK         0.0600 
    159 H159        3.1404  -19.5565  -42.3379 H         1 UNK         0.3000 
    160 H160        4.4064  -17.6223  -42.9591 H         1 UNK         0.0600 
    161 H161        2.8242  -18.0137  -45.5635 H         1 UNK         0.0600 
    162 H162        3.7928  -19.2355  -44.7512 H         1 UNK         0.0600 
    163 H163        4.5803  -17.8428  -45.4800 H         1 UNK         0.0600 
    164 H164        2.5908  -15.5666  -43.9088 H         1 UNK         0.3000 
    165 H165        4.9271  -13.0943  -43.4421 H         1 UNK         0.0600 
    166 H166        4.4937  -12.1436  -45.7186 H         1 UNK         0.0600 
    167 H167        5.7482  -13.3741  -45.7519 H         1 UNK         0.0600 
    168 H168        4.1318  -13.7590  -46.3229 H         1 UNK         0.0600 
    169 H169        2.2873  -13.3160  -44.7210 H         1 UNK         0.3000 
    170 H170        0.3955  -13.8572  -42.6116 H         1 UNK         0.0600 
    171 H171        0.6418  -12.6896  -40.4695 H         1 UNK         0.0600 
    172 H172        0.8478  -11.1407  -41.2736 H         1 UNK         0.0600 
    173 H173       -0.6989  -11.9842  -41.3560 H         1 UNK         0.0600 
    174 H174       -0.3214  -12.7966  -44.3886 H         1 UNK         0.3000 
    175 H175       -0.6658   -9.6144  -45.4245 H         1 UNK         0.0600 
    176 H176        1.5732   -9.5622  -46.4724 H         1 UNK         0.0600 
    177 H177        1.4438  -11.2541  -46.9278 H         1 UNK         0.0600 
    178 H178        0.3817  -10.0559  -47.6657 H         1 UNK         0.0600 
    179 H179       -0.9072  -12.0984  -46.8747 H         1 UNK         0.3000 
    180 H180       -3.7951  -13.2927  -45.1910 H         1 UNK         0.0600 
    181 H181       -3.4665  -12.2876  -48.0686 H         1 UNK         0.0600 
    182 H182       -4.7081  -11.7661  -46.9411 H         1 UNK         0.0600 
    183 H183       -4.6773  -13.4304  -47.4896 H         1 UNK         0.0600 
    184 H184       -2.0441  -14.1776  -47.3494 H         1 UNK         0.3000 
    185 H185        0.1895  -15.9845  -45.2592 H         1 UNK         0.0600 
    186 H186       -0.5032  -17.9552  -46.5499 H         1 UNK         0.0600 
    187 H187       -1.7323  -17.5693  -45.3491 H         1 UNK         0.0600 
    188 H188       -1.9953  -17.1571  -47.0417 H         1 UNK         0.0600 
    189 H189       -0.2786  -15.8156  -48.1221 H         1 UNK         0.3000 
    190 H190       -0.5303  -21.8062  -45.2991 H         1 UNK         0.3000 
    191 H191       -1.1759  -21.3416  -47.9731 H         1 UNK         0.0600 
    192 H192       -1.6376  -19.9057  -45.8494 H         1 UNK         0.0600 
    193 H193       -2.8642  -19.8828  -47.1119 H         1 UNK         0.0600 
    194 H194       -3.1154  -20.8463  -45.6699 H         1 UNK         0.0600 
    195 H195       -2.5474  -23.6586  -45.7242 H         1 UNK         0.3000 
    196 H196       -4.8288  -24.5399  -47.0652 H         1 UNK         0.0600 
    197 H197       -4.5173  -26.5934  -45.6710 H         1 UNK         0.0600 
    198 H198       -4.2184  -25.1408  -44.7300 H         1 UNK         0.0600 
    199 H199       -2.8644  -26.1097  -45.3103 H         1 UNK         0.0600 
    200 H200       -1.5692  -24.9226  -48.1829 H         1 UNK         0.3000 
    201 H201       -1.8634  -27.3008  -49.7530 H         1 UNK         0.0600 
    202 H202        0.1434  -26.4237  -50.9363 H         1 UNK         0.0600 
    203 H203        0.3481  -26.2959  -49.1953 H         1 UNK         0.0600 
    204 H204       -0.0444  -24.8643  -50.1456 H         1 UNK         0.0600 
    205 H205       -2.9394  -23.9815  -50.1987 H         1 UNK         0.3000 
    206 H206       -4.1180  -22.8897  -51.7367 H         1 UNK         0.0600 
    207 H207       -5.7614  -24.6016  -50.9859 H         1 UNK         0.0600 
    208 H208       -6.0664  -24.0732  -52.6297 H         1 UNK         0.0600 
    209 H209       -5.3101  -25.6369  -52.3402 H         1 UNK         0.0600 
    210 H210       -1.6423  -23.1213  -52.6945 H         1 UNK         0.3000 
    211 H211       -1.1662  -24.4538  -55.0786 H         1 UNK         0.0600 
    212 H212        0.0654  -21.8418  -54.0611 H         1 UNK         0.0600 
    213 H213        0.7714  -22.8889  -55.2857 H         1 UNK         0.0600 
    214 H214        0.5936  -23.4734  -53.6394 H         1 UNK         0.0600 
    215 H215       -2.8304  -21.3528  -54.6896 H         1 UNK         0.3000 
    216 H216       -3.1726  -21.1151  -57.6555 H         1 UNK         0.0600 
    217 H217       -3.4190  -18.7070  -57.2855 H         1 UNK         0.0600 
    218 H218       -1.8928  -19.2132  -56.5797 H         1 UNK         0.0600 
    219 H219       -3.2861  -18.9026  -55.5438 H         1 UNK         0.0600 
    220 H220       -4.6303  -22.6691  -55.4033 H         1 UNK         0.3000 
    221 H221       -6.6367  -23.3298  -54.8425 H         1 UNK         0.0600 
    222 H222       -7.6811  -21.9100  -57.3427 H         1 UNK         0.0600 
    223 H223       -6.9444  -23.5120  -57.3182 H         1 UNK         0.0600 
    224 H224       -8.4590  -23.2283  -56.4791 H         1 UNK         0.0600 
    225 H225       -5.7315  -20.8669  -53.6101 H         1 UNK         0.3000 
    226 H226       -8.3499  -19.6451  -52.8206 H         1 UNK         0.0600 
    227 H227       -6.8436  -18.0350  -54.0321 H         1 UNK         0.0600 
    228 H228       -7.0584  -17.5862  -52.3481 H         1 UNK         0.0600 
    229 H229       -5.5656  -18.3562  -52.8656 H         1 UNK         0.0600 
    230 H230       -8.4497  -18.9897  -50.5856 H         1 UNK         0.3000 
    231 H231       -7.4990  -20.9490  -48.7292 H         1 UNK         0.0600 
    232 H232       -8.8620  -18.2391  -48.2710 H         1 UNK         0.0600 
    233 H233       -8.6729  -19.5047  -47.0634 H         1 UNK         0.0600 
    234 H234       -9.6795  -19.7894  -48.4738 H         1 UNK         0.0600 
    235 H235       -6.2635  -17.8334  -49.7413 H         1 UNK         0.3000 
    236 H236       -4.1586  -17.7635  -47.6524 H         1 UNK         0.0600 
    237 H237       -5.3924  -15.6546  -48.1823 H         1 UNK         0.0600 
    238 H238       -3.6838  -15.5209  -48.5655 H         1 UNK         0.0600 
    239 H239       -4.8540  -15.7553  -49.8588 H         1 UNK         0.0600 
    240 H240       -4.2715  -19.9186  -49.5871 H         1 UNK         0.3000 
    241 H241       -3.0702  -21.1771  -50.8177 H         1 UNK         0.0600 
    242 H242       -2.9857  -18.1897  -53.6898 H         1 UNK         0.3800 
    243 H243       -2.4594  -17.8257  -52.0600 H         1 UNK         0.3800 
    244 H244       -0.6296  -19.4843  -51.2767 H         1 UNK         0.0800 
    245 H245       -0.9568  -19.8659  -49.6213 H         1 UNK         0.0800 
    246 H246        1.2912  -20.7750  -52.1052 H         1 UNK         0.0800 
    247 H247        1.7411  -22.3916  -51.6357 H         1 UNK         0.0800 
@<TRIPOS>BOND
     1    1    2 1    
     2    1  127 1    
     3    1  128 1    
     4    1  129 1    
     5    2    3 2    
     6    2    4 am   BACKBONE|DICT|INTERRES
     7    4    5 1    
     8    4  130 1    
     9    5    6 1    
    10    5   65 1    
    11    5  131 1    
    12    6    7 1    
    13    6  132 1    
    14    6  133 1    
    15    7    8 1    
    16    8    9 1    
    17    8  134 1    
    18    8  135 1    
    19    9   10 ar   
    20    9   14 ar   
    21   10   11 ar   
    22   10  136 1    
    23   11   12 ar   
    24   11  126 1    
    25   12   13 ar   
    26   12  137 1    
    27   13   14 ar   
    28   13   15 1    
    29   14  138 1    
    30   15   16 1    
    31   15  139 1    
    32   15  140 1    
    33   16   17 1    
    34   17   18 1    
    35   17  141 1    
    36   17  142 1    
    37   18   19 1    
    38   18   67 1    
    39   18  143 1    
    40   19   20 am   BACKBONE|DICT|INTERRES
    41   19  144 1    
    42   20   21 2    
    43   20   22 1    
    44   22   23 1    
    45   22   24 1    
    46   22  145 1    
    47   23  146 1    
    48   23  147 1    
    49   23  148 1    
    50   24   25 am   BACKBONE|DICT|INTERRES
    51   24  149 1    
    52   25   26 2    
    53   25   27 1    
    54   27   28 1    
    55   27   29 1    
    56   27  150 1    
    57   28  151 1    
    58   28  152 1    
    59   28  153 1    
    60   29   30 am   BACKBONE|DICT|INTERRES
    61   29  154 1    
    62   30   31 2    
    63   30   32 1    
    64   32   33 1    
    65   32   34 1    
    66   32  155 1    
    67   33  156 1    
    68   33  157 1    
    69   33  158 1    
    70   34   35 am   BACKBONE|DICT|INTERRES
    71   34  159 1    
    72   35   36 2    
    73   35   37 1    
    74   37   38 1    
    75   37   39 1    
    76   37  160 1    
    77   38  161 1    
    78   38  162 1    
    79   38  163 1    
    80   39   40 am   BACKBONE|DICT|INTERRES
    81   39  164 1    
    82   40   41 2    
    83   40   42 1    
    84   42   43 1    
    85   42   44 1    
    86   42  165 1    
    87   43  166 1    
    88   43  167 1    
    89   43  168 1    
    90   44   45 am   BACKBONE|DICT|INTERRES
    91   44  169 1    
    92   45   46 2    
    93   45   47 1    
    94   47   48 1    
    95   47   49 1    
    96   47  170 1    
    97   48  171 1    
    98   48  172 1    
    99   48  173 1    
   100   49   50 am   BACKBONE|DICT|INTERRES
   101   49  174 1    
   102   50   51 2    
   103   50   52 1    
   104   52   53 1    
   105   52   54 1    
   106   52  175 1    
   107   53  176 1    
   108   53  177 1    
   109   53  178 1    
   110   54   55 am   BACKBONE|DICT|INTERRES
   111   54  179 1    
   112   55   56 2    
   113   55   57 1    
   114   57   58 1    
   115   57   59 1    
   116   57  180 1    
   117   58  181 1    
   118   58  182 1    
   119   58  183 1    
   120   59   60 am   BACKBONE|DICT|INTERRES
   121   59  184 1    
   122   60   61 2    
   123   60   62 1    
   124   62   63 1    
   125   62   64 1    
   126   62  185 1    
   127   63  186 1    
   128   63  187 1    
   129   63  188 1    
   130   64   65 am   BACKBONE|DICT|INTERRES
   131   64  189 1    
   132   65   66 2    
   133   67   68 2    
   134   67   69 am   BACKBONE|DICT|INTERRES
   135   69   70 1    
   136   69  190 1    
   137   70   71 1    
   138   70   72 1    
   139   70  191 1    
   140   71  192 1    
   141   71  193 1    
   142   71  194 1    
   143   72   73 2    
   144   72   74 am   BACKBONE|DICT|INTERRES
   145   74   75 1    
   146   74  195 1    
   147   75   76 1    
   148   75   77 1    
   149   75  196 1    
   150   76  197 1    
   151   76  198 1    
   152   76  199 1    
   153   77   78 2    
   154   77   79 am   BACKBONE|DICT|INTERRES
   155   79   80 1    
   156   79  200 1    
   157   80   81 1    
   158   80   82 1    
   159   80  201 1    
   160   81  202 1    
   161   81  203 1    
   162   81  204 1    
   163   82   83 2    
   164   82   84 am   BACKBONE|DICT|INTERRES
   165   84   85 1    
   166   84  205 1    
   167   85   86 1    
   168   85   87 1    
   169   85  206 1    
   170   86  207 1    
   171   86  208 1    
   172   86  209 1    
   173   87   88 2    
   174   87   89 am   BACKBONE|DICT|INTERRES
   175   89   90 1    
   176   89  210 1    
   177   90   91 1    
   178   90   92 1    
   179   90  211 1    
   180   91  212 1    
   181   91  213 1    
   182   91  214 1    
   183   92   93 2    
   184   92   94 am   BACKBONE|DICT|INTERRES
   185   94   95 1    
   186   94  215 1    
   187   95   96 1    
   188   95   97 1    
   189   95  216 1    
   190   96  217 1    
   191   96  218 1    
   192   96  219 1    
   193   97   98 2    
   194   97   99 am   BACKBONE|DICT|INTERRES
   195   99  100 1    
   196   99  220 1    
   197  100  101 1    
   198  100  102 1    
   199  100  221 1    
   200  101  222 1    
   201  101  223 1    
   202  101  224 1    
   203  102  103 2    
   204  102  104 am   BACKBONE|DICT|INTERRES
   205  104  105 1    
   206  104  225 1    
   207  105  106 1    
   208  105  107 1    
   209  105  226 1    
   210  106  227 1    
   211  106  228 1    
   212  106  229 1    
   213  107  108 2    
   214  107  109 am   BACKBONE|DICT|INTERRES
   215  109  110 1    
   216  109  230 1    
   217  110  111 1    
   218  110  112 1    
   219  110  231 1    
   220  111  232 1    
   221  111  233 1    
   222  111  234 1    
   223  112  113 2    
   224  112  114 am   BACKBONE|DICT|INTERRES
   225  114  115 1    
   226  114  235 1    
   227  115  116 1    
   228  115  117 1    
   229  115  236 1    
   230  116  237 1    
   231  116  238 1    
   232  116  239 1    
   233  117  118 2    
   234  117  119 am   BACKBONE|DICT|INTERRES
   235  119  120 1    
   236  119  240 1    
   237  120  121 1    
   238  120  124 1    
   239  120  241 1    
   240  121  122 am   BACKBONE|DICT|INTERRES
   241  121  123 2    
   242  122  242 1    
   243  122  243 1    
   244  124  125 1    
   245  124  244 1    
   246  124  245 1    
   247  125  126 1    
   248  126  246 1    
   249  126  247 1    
@<TRIPOS>SUBSTRUCTURE
     1 UNK         1 GROUP             0       ****    0 ROOT    
