@<TRIPOS>MOLECULE
3R540
247   249    1
SMALL
USER_CHARGES


@<TRIPOS>ATOM
      1 CA          0.7852  -12.7061  -46.8851 C.3       0 UNK        -0.1800 
      2 C           2.1116  -13.4423  -47.0086 C.2       0 UNK         0.5000 
      3 O           2.3212  -14.4436  -46.3275 O.2       0 UNK        -0.5000 
      4 N           3.0100  -12.9450  -47.8686 N.am      1 UNK        -0.5000 
      5 CA          4.3431  -13.4777  -48.2016 C.3       1 UNK         0.1400 
      6 C6          4.3390  -14.9197  -48.7786 C.3       23 UNK        -0.0398 
      7 S7          3.2762  -15.0749  -50.2566 S.3       23 UNK        -0.2404 
      8 C8          1.9514  -16.1596  -49.6398 C.3       23 UNK        -0.0205 
      9 C9          0.6794  -15.9903  -50.4526 C.ar      23 UNK        -0.0193 
     10 C10         0.5078  -16.6750  -51.6590 C.ar      23 UNK        -0.1150 
     11 C11        -0.6609  -16.5073  -52.4085 C.ar      23 UNK        -0.0193 
     12 C12        -1.6649  -15.6558  -51.9371 C.ar      23 UNK        -0.1150 
     13 C13        -1.5086  -14.9753  -50.7262 C.ar      23 UNK        -0.0193 
     14 C14        -0.3308  -15.1415  -49.9940 C.ar      23 UNK        -0.1150 
     15 C15        -2.6039  -14.0483  -50.2171 C.3       23 UNK        -0.0205 
     16 S16        -3.3139  -14.6010  -48.6321 S.3       23 UNK        -0.2404 
     17 C17        -3.9575  -16.2570  -49.0550 C.3       23 UNK        -0.0398 
     18 CA         -3.1657  -17.3947  -48.3540 C.3       11 UNK         0.1400 
     19 N          -3.1647  -17.3085  -46.8870 N.am      11 UNK        -0.5000 
     20 C          -4.2080  -17.2976  -46.0444 C.2       10 UNK         0.5000 
     21 O          -5.3778  -17.4199  -46.4111 O.2       10 UNK        -0.5000 
     22 CA         -3.9134  -17.1460  -44.5368 C.3       10 UNK         0.1400 
     23 CB         -4.1921  -18.4677  -43.8045 C.3       10 UNK        -0.1800 
     24 N          -2.5416  -16.7277  -44.2454 N.am      10 UNK        -0.5000 
     25 C          -2.0602  -15.4860  -44.3981 C.2       9 UNK         0.5000 
     26 O          -2.7536  -14.5168  -44.7065 O.2       9 UNK        -0.5000 
     27 CA         -0.5396  -15.3064  -44.2100 C.3       9 UNK         0.1400 
     28 CB         -0.1984  -14.9663  -42.7519 C.3       9 UNK        -0.1800 
     29 N           0.2306  -16.4804  -44.6230 N.am      9 UNK        -0.5000 
     30 C           0.2734  -16.9716  -45.8699 C.2       8 UNK         0.5000 
     31 O          -0.3232  -16.4765  -46.8235 O.2       8 UNK        -0.5000 
     32 CA          1.0438  -18.2848  -46.0659 C.3       8 UNK         0.1400 
     33 CB          2.5540  -18.0342  -46.1923 C.3       8 UNK        -0.1800 
     34 N           0.7840  -19.2056  -44.9605 N.am      8 UNK        -0.5000 
     35 C          -0.3446  -19.9144  -44.8185 C.2       7 UNK         0.5000 
     36 O          -1.2591  -19.9178  -45.6441 O.2       7 UNK        -0.5000 
     37 CA         -0.4759  -20.7598  -43.5370 C.3       7 UNK         0.1400 
     38 CB          0.1004  -22.1654  -43.7612 C.3       7 UNK        -0.1800 
     39 N           0.1684  -20.1472  -42.3747 N.am      7 UNK        -0.5000 
     40 C          -0.2836  -19.0424  -41.7648 C.2       6 UNK         0.5000 
     41 O          -1.3037  -18.4458  -42.1072 O.2       6 UNK        -0.5000 
     42 CA          0.5705  -18.4826  -40.6098 C.3       6 UNK         0.1400 
     43 CB          0.1699  -19.1363  -39.2791 C.3       6 UNK        -0.1800 
     44 N           2.0189  -18.6208  -40.7998 N.am      6 UNK        -0.5000 
     45 C           2.7045  -18.1651  -41.8562 C.2       5 UNK         0.5000 
     46 O           2.1757  -17.6337  -42.8322 O.2       5 UNK        -0.5000 
     47 CA          4.2315  -18.3023  -41.7913 C.3       5 UNK         0.1400 
     48 CB          4.8614  -18.4963  -43.1815 C.3       5 UNK        -0.1800 
     49 N           4.7696  -17.0891  -41.1897 N.am      5 UNK        -0.5000 
     50 C           5.0193  -16.9299  -39.8832 C.2       4 UNK         0.5000 
     51 O           4.8817  -17.8279  -39.0511 O.2       4 UNK        -0.5000 
     52 CA          5.5008  -15.5405  -39.4179 C.3       4 UNK         0.1400 
     53 CB          7.0310  -15.5226  -39.2805 C.3       4 UNK        -0.1800 
     54 N           5.0943  -14.4563  -40.3128 N.am      4 UNK        -0.5000 
     55 C           3.8402  -14.0035  -40.4489 C.2       3 UNK         0.5000 
     56 O           2.8912  -14.4075  -39.7763 O.2       3 UNK        -0.5000 
     57 CA          3.6028  -12.9272  -41.5283 C.3       3 UNK         0.1400 
     58 CB          3.5778  -11.5278  -40.8950 C.3       3 UNK        -0.1800 
     59 N           4.5812  -12.9387  -42.6236 N.am      3 UNK        -0.5000 
     60 C           4.7525  -13.9545  -43.4793 C.2       2 UNK         0.5000 
     61 O           4.1539  -15.0261  -43.3929 O.2       2 UNK        -0.5000 
     62 CA          5.7555  -13.7486  -44.6184 C.3       2 UNK         0.1400 
     63 CB          6.8839  -14.7950  -44.5714 C.3       2 UNK        -0.1800 
     64 N           5.0123  -13.8544  -45.8651 N.am      2 UNK        -0.5000 
     65 C           5.3586  -13.3349  -47.0454 C.2       1 UNK         0.5000 
     66 O           6.4181  -12.7371  -47.2400 O.2       1 UNK        -0.5000 
     67 C          -3.6016  -18.7784  -48.8760 C.2       11 UNK         0.5000 
     68 O          -2.8546  -19.4166  -49.6169 O.2       11 UNK        -0.5000 
     69 N          -4.8123  -19.2100  -48.5060 N.am      12 UNK        -0.5000 
     70 CA         -5.4381  -20.4462  -48.9670 C.3       12 UNK         0.1400 
     71 CB         -6.9376  -20.4029  -48.6403 C.3       12 UNK        -0.1800 
     72 C          -4.8030  -21.7102  -48.3696 C.2       12 UNK         0.5000 
     73 O          -4.7213  -22.7224  -49.0647 O.2       12 UNK        -0.5000 
     74 N          -4.3813  -21.6467  -47.0996 N.am      13 UNK        -0.5000 
     75 CA         -3.8692  -22.7939  -46.3458 C.3       13 UNK         0.1400 
     76 CB         -3.7403  -22.4243  -44.8635 C.3       13 UNK        -0.1800 
     77 C          -2.5510  -23.3517  -46.9104 C.2       13 UNK         0.5000 
     78 O          -2.4305  -24.5668  -47.0704 O.2       13 UNK        -0.5000 
     79 N          -1.6192  -22.4585  -47.2751 N.am      14 UNK        -0.5000 
     80 CA         -0.3639  -22.8002  -47.9569 C.3       14 UNK         0.1400 
     81 CB          0.5324  -21.5555  -48.0394 C.3       14 UNK        -0.1800 
     82 C          -0.5683  -23.4018  -49.3620 C.2       14 UNK         0.5000 
     83 O           0.2885  -24.1492  -49.8340 O.2       14 UNK        -0.5000 
     84 N          -1.7079  -23.0852  -49.9872 N.am      15 UNK        -0.5000 
     85 CA         -2.1394  -23.5958  -51.2850 C.3       15 UNK         0.1400 
     86 CB         -2.8077  -22.4488  -52.0540 C.3       15 UNK        -0.1800 
     87 C          -3.0652  -24.8242  -51.1652 C.2       15 UNK         0.5000 
     88 O          -3.7159  -25.1774  -52.1496 O.2       15 UNK        -0.5000 
     89 N          -3.1155  -25.4520  -49.9793 N.am      16 UNK        -0.5000 
     90 CA         -3.8856  -26.6542  -49.6431 C.3       16 UNK         0.1400 
     91 CB         -3.3688  -27.8746  -50.4344 C.3       16 UNK        -0.1800 
     92 C          -5.4051  -26.4355  -49.7836 C.2       16 UNK         0.5000 
     93 O          -6.0774  -27.1694  -50.5089 O.2       16 UNK        -0.5000 
     94 N          -5.9008  -25.4009  -49.0905 N.am      17 UNK        -0.5000 
     95 CA         -7.2792  -24.8961  -49.1042 C.3       17 UNK         0.1400 
     96 CB         -8.2828  -25.9572  -48.6052 C.3       17 UNK        -0.1800 
     97 C          -7.6496  -24.2853  -50.4707 C.2       17 UNK         0.5000 
     98 O          -8.7395  -24.5266  -50.9923 O.2       17 UNK        -0.5000 
     99 N          -6.7085  -23.4988  -51.0115 N.am      18 UNK        -0.5000 
    100 CA        -6.7566  -22.7884  -52.2921 C.3       18 UNK         0.1400 
    101 CB        -7.7964  -21.6497  -52.2543 C.3       18 UNK        -0.1800 
    102 C         -6.9175  -23.7171  -53.5158 C.2       18 UNK         0.5000 
    103 O         -7.5697  -23.3475  -54.4946 O.2       18 UNK        -0.5000 
    104 N         -6.3203  -24.9135  -53.4421 N.am      19 UNK        -0.5000 
    105 CA        -6.2634  -25.8749  -54.5400 C.3       19 UNK         0.1400 
    106 CB        -6.0273  -27.2836  -53.9748 C.3       19 UNK        -0.1800 
    107 C         -5.1627  -25.4928  -55.5425 C.2       19 UNK         0.5000 
    108 O         -5.4067  -25.4841  -56.7495 O.2       19 UNK        -0.5000 
    109 N         -3.9800  -25.1434  -55.0219 N.am      20 UNK        -0.5000 
    110 CA        -2.8105  -24.7093  -55.7846 C.3       20 UNK         0.1400 
    111 CB        -1.5446  -25.2179  -55.0718 C.3       20 UNK        -0.1800 
    112 C         -2.8187  -23.1789  -55.9752 C.2       20 UNK         0.5000 
    113 O         -1.8555  -22.5058  -55.6049 O.2       20 UNK        -0.5000 
    114 N         -3.9226  -22.6633  -56.5355 N.am      21 UNK        -0.5000 
    115 CA        -4.2493  -21.2433  -56.7107 C.3       21 UNK         0.1400 
    116 CB        -3.2693  -20.5663  -57.6962 C.3       21 UNK        -0.1800 
    117 C         -4.3907  -20.5132  -55.3555 C.2       21 UNK         0.5000 
    118 O         -4.8513  -21.1247  -54.3920 O.2       21 UNK        -0.5000 
    119 N         -4.0247  -19.2261  -55.3047 N.am      22 UNK        -0.5000 
    120 CA        -4.1058  -18.3528  -54.1203 C.3       22 UNK         0.1400 
    121 C         -5.5736  -18.1426  -53.6292 C.2       22 UNK         0.5000 
    122 N         -5.8448  -18.1126  -52.3293 N.am      22 UNK        -0.7600 
    123 O         -6.4782  -17.9461  -54.4375 O.2       22 UNK        -0.5000 
    124 C124       -3.1030  -18.7465  -52.9940 C.3       23 UNK        -0.0398 
    125 S125       -1.3779  -18.9417  -53.5651 S.3       23 UNK        -0.2404 
    126 C126       -0.8218  -17.2169  -53.7448 C.3       23 UNK        -0.0205 
    127 H127        0.6920  -11.9106  -47.6246 H         1 UNK         0.0600 
    128 H128        0.6936  -12.2645  -45.8929 H         1 UNK         0.0600 
    129 H129       -0.0441  -13.3992  -47.0276 H         1 UNK         0.0600 
    130 H130        2.7676  -12.1035  -48.3722 H         1 UNK         0.3000 
    131 H131        4.7084  -12.8252  -48.9966 H         1 UNK         0.0600 
    132 H132        4.0361  -15.6429  -48.0210 H         1 UNK         0.0800 
    133 H133        5.3495  -15.2064  -49.0746 H         1 UNK         0.0800 
    134 H134        1.7425  -15.9319  -48.5946 H         1 UNK         0.0800 
    135 H135        2.2841  -17.1980  -49.6703 H         1 UNK         0.0800 
    136 H136        1.2890  -17.3288  -52.0207 H         1 UNK         0.1150 
    137 H137       -2.5668  -15.5197  -52.5170 H         1 UNK         0.1150 
    138 H138       -0.2066  -14.6170  -49.0577 H         1 UNK         0.1150 
    139 H139       -2.1878  -13.0486  -50.0858 H         1 UNK         0.0800 
    140 H140       -3.4060  -13.9519  -50.9505 H         1 UNK         0.0800 
    141 H141       -3.9301  -16.3824  -50.1382 H         1 UNK         0.0800 
    142 H142       -5.0131  -16.2881  -48.7822 H         1 UNK         0.0800 
    143 H143       -2.1207  -17.2845  -48.6485 H         1 UNK         0.0600 
    144 H144       -2.2410  -17.1819  -46.4905 H         1 UNK         0.3000 
    145 H145       -4.5974  -16.3895  -44.1470 H         1 UNK         0.0600 
    146 H146       -4.0770  -18.3520  -42.7266 H         1 UNK         0.0600 
    147 H147       -5.2101  -18.8147  -43.9861 H         1 UNK         0.0600 
    148 H148       -3.5122  -19.2545  -44.1294 H         1 UNK         0.0600 
    149 H149       -1.9141  -17.4456  -43.9026 H         1 UNK         0.3000 
    150 H150       -0.2238  -14.4713  -44.8357 H         1 UNK         0.0600 
    151 H151       -0.6836  -14.0396  -42.4440 H         1 UNK         0.0600 
    152 H152        0.8759  -14.8347  -42.6188 H         1 UNK         0.0600 
    153 H153       -0.5261  -15.7510  -42.0705 H         1 UNK         0.0600 
    154 H154        0.8087  -16.9235  -43.9131 H         1 UNK         0.3000 
    155 H155        0.6988  -18.7441  -46.9943 H         1 UNK         0.0600 
    156 H156        2.7786  -17.4881  -47.1068 H         1 UNK         0.0600 
    157 H157        3.1129  -18.9693  -46.2269 H         1 UNK         0.0600 
    158 H158        2.9368  -17.4392  -45.3634 H         1 UNK         0.0600 
    159 H159        1.4465  -19.1835  -44.1971 H         1 UNK         0.3000 
    160 H160       -1.5375  -20.8583  -43.3078 H         1 UNK         0.0600 
    161 H161       -0.0509  -22.7980  -42.8864 H         1 UNK         0.0600 
    162 H162        1.1698  -22.1340  -43.9736 H         1 UNK         0.0600 
    163 H163       -0.3864  -22.6579  -44.6037 H         1 UNK         0.0600 
    164 H164        1.0158  -20.5772  -42.0343 H         1 UNK         0.3000 
    165 H165        0.3579  -17.4144  -40.5381 H         1 UNK         0.0600 
    166 H166        0.6872  -18.6715  -38.4395 H         1 UNK         0.0600 
    167 H167       -0.9006  -19.0300  -39.0980 H         1 UNK         0.0600 
    168 H168        0.4009  -20.2022  -39.2685 H         1 UNK         0.0600 
    169 H169        2.5362  -19.0152  -40.0266 H         1 UNK         0.3000 
    170 H170        4.4811  -19.1780  -41.1884 H         1 UNK         0.0600 
    171 H171        4.4276  -19.3568  -43.6921 H         1 UNK         0.0600 
    172 H172        4.7148  -17.6254  -43.8202 H         1 UNK         0.0600 
    173 H173        5.9345  -18.6699  -43.1031 H         1 UNK         0.0600 
    174 H174        4.8029  -16.2807  -41.8007 H         1 UNK         0.3000 
    175 H175        5.0666  -15.3540  -38.4333 H         1 UNK         0.0600 
    176 H176        7.5232  -15.6901  -40.2395 H         1 UNK         0.0600 
    177 H177        7.3809  -14.5692  -38.8843 H         1 UNK         0.0600 
    178 H178        7.3710  -16.3015  -38.5967 H         1 UNK         0.0600 
    179 H179        5.8113  -14.0585  -40.9010 H         1 UNK         0.3000 
    180 H180        2.6200  -13.1204  -41.9633 H         1 UNK         0.0600 
    181 H181        4.5456  -11.2627  -40.4674 H         1 UNK         0.0600 
    182 H182        2.8392  -11.4739  -40.0940 H         1 UNK         0.0600 
    183 H183        3.3135  -10.7664  -41.6291 H         1 UNK         0.0600 
    184 H184        5.1131  -12.0903  -42.7562 H         1 UNK         0.3000 
    185 H185        6.1896  -12.7497  -44.5396 H         1 UNK         0.0600 
    186 H186        7.6145  -14.6252  -45.3623 H         1 UNK         0.0600 
    187 H187        7.4173  -14.7512  -43.6211 H         1 UNK         0.0600 
    188 H188        6.4976  -15.8087  -44.6860 H         1 UNK         0.0600 
    189 H189        4.0907  -14.2851  -45.7867 H         1 UNK         0.3000 
    190 H190       -5.3350  -18.6358  -47.8487 H         1 UNK         0.3000 
    191 H191       -5.3273  -20.5047  -50.0520 H         1 UNK         0.0600 
    192 H192       -7.4379  -21.3179  -48.9598 H         1 UNK         0.0600 
    193 H193       -7.4266  -19.5717  -49.1487 H         1 UNK         0.0600 
    194 H194       -7.1137  -20.2902  -47.5698 H         1 UNK         0.0600 
    195 H195       -4.4610  -20.7701  -46.6064 H         1 UNK         0.3000 
    196 H196       -4.6098  -23.5933  -46.4198 H         1 UNK         0.0600 
    197 H197       -3.2837  -23.2321  -44.2900 H         1 UNK         0.0600 
    198 H198       -4.7168  -22.2224  -44.4230 H         1 UNK         0.0600 
    199 H199       -3.1292  -21.5358  -44.7325 H         1 UNK         0.0600 
    200 H200       -1.7765  -21.4773  -47.0747 H         1 UNK         0.3000 
    201 H201        0.1522  -23.5525  -47.3568 H         1 UNK         0.0600 
    202 H202        0.0064  -20.7089  -48.4828 H         1 UNK         0.0600 
    203 H203        1.4200  -21.7453  -48.6445 H         1 UNK         0.0600 
    204 H204        0.8831  -21.2622  -47.0518 H         1 UNK         0.0600 
    205 H205       -2.3672  -22.4868  -49.5084 H         1 UNK         0.3000 
    206 H206       -1.2694  -23.9168  -51.8600 H         1 UNK         0.0600 
    207 H207       -2.0901  -21.6538  -52.2534 H         1 UNK         0.0600 
    208 H208       -3.1909  -22.7799  -53.0187 H         1 UNK         0.0600 
    209 H209       -3.6376  -22.0167  -51.4962 H         1 UNK         0.0600 
    210 H210       -2.5846  -25.0554  -49.2137 H         1 UNK         0.3000 
    211 H211       -3.7008  -26.8503  -48.5859 H         1 UNK         0.0600 
    212 H212       -2.3004  -28.0212  -50.2768 H         1 UNK         0.0600 
    213 H213       -3.5371  -27.7695  -51.5062 H         1 UNK         0.0600 
    214 H214       -3.8724  -28.7873  -50.1141 H         1 UNK         0.0600 
    215 H215       -5.2364  -24.8059  -48.6120 H         1 UNK         0.3000 
    216 H216       -7.3033  -24.0707  -48.3910 H         1 UNK         0.0600 
    217 H217       -9.2741  -25.5217  -48.4755 H         1 UNK         0.0600 
    218 H218       -7.9790  -26.3647  -47.6411 H         1 UNK         0.0600 
    219 H219       -8.3837  -26.7872  -49.3047 H         1 UNK         0.0600 
    220 H220       -5.8569  -23.3699  -50.4728 H         1 UNK         0.3000 
    221 H221       -5.7773  -22.3267  -52.3948 H         1 UNK         0.0600 
    222 H222       -8.8143  -22.0323  -52.1764 H         1 UNK         0.0600 
    223 H223       -7.6209  -20.9806  -51.4135 H         1 UNK         0.0600 
    224 H224       -7.7404  -21.0424  -53.1588 H         1 UNK         0.0600 
    225 H225       -5.7552  -25.1270  -52.6284 H         1 UNK         0.3000 
    226 H226       -7.2203  -25.8778  -55.0662 H         1 UNK         0.0600 
    227 H227       -5.9857  -28.0241  -54.7744 H         1 UNK         0.0600 
    228 H228       -5.0912  -27.3453  -53.4188 H         1 UNK         0.0600 
    229 H229       -6.8328  -27.5757  -53.3006 H         1 UNK         0.0600 
    230 H230       -3.8825  -25.1427  -54.0089 H         1 UNK         0.3000 
    231 H231       -2.8314  -25.1600  -56.7790 H         1 UNK         0.0600 
    232 H232       -1.5594  -26.3031  -54.9695 H         1 UNK         0.0600 
    233 H233       -1.4458  -24.7902  -54.0746 H         1 UNK         0.0600 
    234 H234       -0.6468  -24.9569  -55.6333 H         1 UNK         0.0600 
    235 H235       -4.6641  -23.3118  -56.7675 H         1 UNK         0.3000 
    236 H236       -5.2402  -21.2207  -57.1659 H         1 UNK         0.0600 
    237 H237       -3.1612  -21.1556  -58.6069 H         1 UNK         0.0600 
    238 H238       -3.6275  -19.5816  -57.9978 H         1 UNK         0.0600 
    239 H239       -2.2762  -20.4402  -57.2632 H         1 UNK         0.0600 
    240 H240       -3.6749  -18.7925  -56.1458 H         1 UNK         0.3000 
    241 H241       -3.8066  -17.3670  -54.4757 H         1 UNK         0.0600 
    242 H242       -5.1378  -18.2789  -51.6355 H         1 UNK         0.3800 
    243 H243       -6.7972  -17.9484  -52.0431 H         1 UNK         0.3800 
    244 H244       -3.1126  -18.0129  -52.1888 H         1 UNK         0.0800 
    245 H245       -3.4093  -19.6878  -52.5383 H         1 UNK         0.0800 
    246 H246        0.1358  -17.2162  -54.2675 H         1 UNK         0.0800 
    247 H247       -1.5116  -16.6715  -54.3897 H         1 UNK         0.0800 
@<TRIPOS>BOND
     1    1    2 1    
     2    1  127 1    
     3    1  128 1    
     4    1  129 1    
     5    2    3 2    
     6    2    4 am   BACKBONE|DICT|INTERRES
     7    4    5 1    
     8    4  130 1    
     9    5    6 1    
    10    5   65 1    
    11    5  131 1    
    12    6    7 1    
    13    6  132 1    
    14    6  133 1    
    15    7    8 1    
    16    8    9 1    
    17    8  134 1    
    18    8  135 1    
    19    9   10 ar   
    20    9   14 ar   
    21   10   11 ar   
    22   10  136 1    
    23   11   12 ar   
    24   11  126 1    
    25   12   13 ar   
    26   12  137 1    
    27   13   14 ar   
    28   13   15 1    
    29   14  138 1    
    30   15   16 1    
    31   15  139 1    
    32   15  140 1    
    33   16   17 1    
    34   17   18 1    
    35   17  141 1    
    36   17  142 1    
    37   18   19 1    
    38   18   67 1    
    39   18  143 1    
    40   19   20 am   BACKBONE|DICT|INTERRES
    41   19  144 1    
    42   20   21 2    
    43   20   22 1    
    44   22   23 1    
    45   22   24 1    
    46   22  145 1    
    47   23  146 1    
    48   23  147 1    
    49   23  148 1    
    50   24   25 am   BACKBONE|DICT|INTERRES
    51   24  149 1    
    52   25   26 2    
    53   25   27 1    
    54   27   28 1    
    55   27   29 1    
    56   27  150 1    
    57   28  151 1    
    58   28  152 1    
    59   28  153 1    
    60   29   30 am   BACKBONE|DICT|INTERRES
    61   29  154 1    
    62   30   31 2    
    63   30   32 1    
    64   32   33 1    
    65   32   34 1    
    66   32  155 1    
    67   33  156 1    
    68   33  157 1    
    69   33  158 1    
    70   34   35 am   BACKBONE|DICT|INTERRES
    71   34  159 1    
    72   35   36 2    
    73   35   37 1    
    74   37   38 1    
    75   37   39 1    
    76   37  160 1    
    77   38  161 1    
    78   38  162 1    
    79   38  163 1    
    80   39   40 am   BACKBONE|DICT|INTERRES
    81   39  164 1    
    82   40   41 2    
    83   40   42 1    
    84   42   43 1    
    85   42   44 1    
    86   42  165 1    
    87   43  166 1    
    88   43  167 1    
    89   43  168 1    
    90   44   45 am   BACKBONE|DICT|INTERRES
    91   44  169 1    
    92   45   46 2    
    93   45   47 1    
    94   47   48 1    
    95   47   49 1    
    96   47  170 1    
    97   48  171 1    
    98   48  172 1    
    99   48  173 1    
   100   49   50 am   BACKBONE|DICT|INTERRES
   101   49  174 1    
   102   50   51 2    
   103   50   52 1    
   104   52   53 1    
   105   52   54 1    
   106   52  175 1    
   107   53  176 1    
   108   53  177 1    
   109   53  178 1    
   110   54   55 am   BACKBONE|DICT|INTERRES
   111   54  179 1    
   112   55   56 2    
   113   55   57 1    
   114   57   58 1    
   115   57   59 1    
   116   57  180 1    
   117   58  181 1    
   118   58  182 1    
   119   58  183 1    
   120   59   60 am   BACKBONE|DICT|INTERRES
   121   59  184 1    
   122   60   61 2    
   123   60   62 1    
   124   62   63 1    
   125   62   64 1    
   126   62  185 1    
   127   63  186 1    
   128   63  187 1    
   129   63  188 1    
   130   64   65 am   BACKBONE|DICT|INTERRES
   131   64  189 1    
   132   65   66 2    
   133   67   68 2    
   134   67   69 am   BACKBONE|DICT|INTERRES
   135   69   70 1    
   136   69  190 1    
   137   70   71 1    
   138   70   72 1    
   139   70  191 1    
   140   71  192 1    
   141   71  193 1    
   142   71  194 1    
   143   72   73 2    
   144   72   74 am   BACKBONE|DICT|INTERRES
   145   74   75 1    
   146   74  195 1    
   147   75   76 1    
   148   75   77 1    
   149   75  196 1    
   150   76  197 1    
   151   76  198 1    
   152   76  199 1    
   153   77   78 2    
   154   77   79 am   BACKBONE|DICT|INTERRES
   155   79   80 1    
   156   79  200 1    
   157   80   81 1    
   158   80   82 1    
   159   80  201 1    
   160   81  202 1    
   161   81  203 1    
   162   81  204 1    
   163   82   83 2    
   164   82   84 am   BACKBONE|DICT|INTERRES
   165   84   85 1    
   166   84  205 1    
   167   85   86 1    
   168   85   87 1    
   169   85  206 1    
   170   86  207 1    
   171   86  208 1    
   172   86  209 1    
   173   87   88 2    
   174   87   89 am   BACKBONE|DICT|INTERRES
   175   89   90 1    
   176   89  210 1    
   177   90   91 1    
   178   90   92 1    
   179   90  211 1    
   180   91  212 1    
   181   91  213 1    
   182   91  214 1    
   183   92   93 2    
   184   92   94 am   BACKBONE|DICT|INTERRES
   185   94   95 1    
   186   94  215 1    
   187   95   96 1    
   188   95   97 1    
   189   95  216 1    
   190   96  217 1    
   191   96  218 1    
   192   96  219 1    
   193   97   98 2    
   194   97   99 am   BACKBONE|DICT|INTERRES
   195   99  100 1    
   196   99  220 1    
   197  100  101 1    
   198  100  102 1    
   199  100  221 1    
   200  101  222 1    
   201  101  223 1    
   202  101  224 1    
   203  102  103 2    
   204  102  104 am   BACKBONE|DICT|INTERRES
   205  104  105 1    
   206  104  225 1    
   207  105  106 1    
   208  105  107 1    
   209  105  226 1    
   210  106  227 1    
   211  106  228 1    
   212  106  229 1    
   213  107  108 2    
   214  107  109 am   BACKBONE|DICT|INTERRES
   215  109  110 1    
   216  109  230 1    
   217  110  111 1    
   218  110  112 1    
   219  110  231 1    
   220  111  232 1    
   221  111  233 1    
   222  111  234 1    
   223  112  113 2    
   224  112  114 am   BACKBONE|DICT|INTERRES
   225  114  115 1    
   226  114  235 1    
   227  115  116 1    
   228  115  117 1    
   229  115  236 1    
   230  116  237 1    
   231  116  238 1    
   232  116  239 1    
   233  117  118 2    
   234  117  119 am   BACKBONE|DICT|INTERRES
   235  119  120 1    
   236  119  240 1    
   237  120  121 1    
   238  120  124 1    
   239  120  241 1    
   240  121  122 am   BACKBONE|DICT|INTERRES
   241  121  123 2    
   242  122  242 1    
   243  122  243 1    
   244  124  125 1    
   245  124  244 1    
   246  124  245 1    
   247  125  126 1    
   248  126  246 1    
   249  126  247 1    
@<TRIPOS>SUBSTRUCTURE
     1 UNK         1 GROUP             0       ****    0 ROOT    
