@<TRIPOS>MOLECULE
3R540
247   249    1
SMALL
USER_CHARGES


@<TRIPOS>ATOM
      1 CA         -2.2603  -13.5193  -47.5187 C.3       0 UNK        -0.1800 
      2 C          -0.9787  -12.7830  -47.8803 C.2       0 UNK         0.5000 
      3 O          -0.5089  -11.9487  -47.1067 O.2       0 UNK        -0.5000 
      4 N          -0.3909  -13.1091  -49.0397 N.am      1 UNK        -0.5000 
      5 CA          0.8503  -12.5189  -49.5687 C.3       1 UNK         0.1400 
      6 C6          1.0605  -12.8513  -51.0697 C.3       23 UNK        -0.0398 
      7 S7          1.2066  -14.6365  -51.4311 S.3       23 UNK        -0.2404 
      8 C8         -0.4858  -15.0404  -51.9810 C.3       23 UNK        -0.0205 
      9 C9         -0.8085  -16.5175  -51.7969 C.ar      23 UNK        -0.0193 
     10 C10        -1.3262  -17.2715  -52.8549 C.ar      23 UNK        -0.1150 
     11 C11        -1.6482  -18.6215  -52.6741 C.ar      23 UNK        -0.0193 
     12 C12        -1.4345  -19.2224  -51.4305 C.ar      23 UNK        -0.1150 
     13 C13        -0.9128  -18.4790  -50.3691 C.ar      23 UNK        -0.0193 
     14 C14        -0.6173  -17.1274  -50.5534 C.ar      23 UNK        -0.1150 
     15 C15        -0.6652  -19.1249  -49.0197 C.3       23 UNK        -0.0205 
     16 S16         1.0348  -19.7695  -48.9095 S.3       23 UNK        -0.2404 
     17 C17         1.1696  -20.0444  -47.1108 C.3       23 UNK        -0.0398 
     18 CA          0.9314  -21.4974  -46.6303 C.3       11 UNK         0.1400 
     19 N           1.0536  -21.5856  -45.1755 N.am      11 UNK        -0.5000 
     20 C           1.0014  -22.7070  -44.4453 C.2       10 UNK         0.5000 
     21 O           0.9132  -23.8374  -44.9242 O.2       10 UNK        -0.5000 
     22 CA          0.9888  -22.5231  -42.9168 C.3       10 UNK         0.1400 
     23 CB          2.4074  -22.2761  -42.3830 C.3       10 UNK        -0.1800 
     24 N           0.1048  -21.4346  -42.4916 N.am      10 UNK        -0.5000 
     25 C          -1.2234  -21.4227  -42.6801 C.2       9 UNK         0.5000 
     26 O          -1.8484  -22.3493  -43.1966 O.2       9 UNK        -0.5000 
     27 CA         -1.9762  -20.1467  -42.2629 C.3       9 UNK         0.1400 
     28 CB         -2.1791  -20.1037  -40.7411 C.3       9 UNK        -0.1800 
     29 N          -1.3069  -18.9242  -42.7099 N.am      9 UNK        -0.5000 
     30 C          -1.1284  -18.5833  -43.9943 C.2       8 UNK         0.5000 
     31 O          -1.5480  -19.2465  -44.9415 O.2       8 UNK        -0.5000 
     32 CA         -0.2939  -17.3212  -44.2764 C.3       8 UNK         0.1400 
     33 CB         -1.1404  -16.0489  -44.1245 C.3       8 UNK        -0.1800 
     34 N           0.8930  -17.2316  -43.4272 N.am      8 UNK        -0.5000 
     35 C           1.8995  -18.1172  -43.4249 C.2       7 UNK         0.5000 
     36 O           1.9588  -19.0883  -44.1765 O.2       7 UNK        -0.5000 
     37 CA          2.9974  -17.9166  -42.3691 C.3       7 UNK         0.1400 
     38 CB          4.0053  -16.8481  -42.8153 C.3       7 UNK        -0.1800 
     39 N           2.4351  -17.5589  -41.0682 N.am      7 UNK        -0.5000 
     40 C           1.7207  -18.3950  -40.3016 C.2       6 UNK         0.5000 
     41 O           1.4869  -19.5672  -40.5978 O.2       6 UNK        -0.5000 
     42 CA          1.1356  -17.8051  -39.0063 C.3       6 UNK         0.1400 
     43 CB          2.1862  -17.8050  -37.8859 C.3       6 UNK        -0.1800 
     44 N           0.6228  -16.4468  -39.1937 N.am      6 UNK        -0.5000 
     45 C          -0.4429  -16.1430  -39.9475 C.2       5 UNK         0.5000 
     46 O          -1.1173  -16.9791  -40.5473 O.2       5 UNK        -0.5000 
     47 CA         -0.7857  -14.6497  -40.0899 C.3       5 UNK         0.1400 
     48 CB         -1.6285  -14.1720  -38.8981 C.3       5 UNK        -0.1800 
     49 N           0.3909  -13.7871  -40.2331 N.am      5 UNK        -0.5000 
     50 C           1.2660  -13.8578  -41.2443 C.2       4 UNK         0.5000 
     51 O           1.2308  -14.7217  -42.1228 O.2       4 UNK        -0.5000 
     52 CA          2.3800  -12.7997  -41.2727 C.3       4 UNK         0.1400 
     53 CB          3.7171  -13.3977  -40.8107 C.3       4 UNK        -0.1800 
     54 N           2.5298  -12.2618  -42.6225 N.am      4 UNK        -0.5000 
     55 C           1.6796  -11.4017  -43.1937 C.2       3 UNK         0.5000 
     56 O           0.7245  -10.8976  -42.6008 O.2       3 UNK        -0.5000 
     57 CA          1.9225  -11.0391  -44.6701 C.3       3 UNK         0.1400 
     58 CB          3.0889  -10.0441  -44.8236 C.3       3 UNK        -0.1800 
     59 N           2.0704  -12.1904  -45.5686 N.am      3 UNK        -0.5000 
     60 C           3.0668  -13.0871  -45.6527 C.2       2 UNK         0.5000 
     61 O           4.0340  -13.1083  -44.8903 O.2       2 UNK        -0.5000 
     62 CA          2.9755  -14.1457  -46.7758 C.3       2 UNK         0.1400 
     63 CB          2.6195  -15.5201  -46.1899 C.3       2 UNK        -0.1800 
     64 N           1.9937  -13.8174  -47.8105 N.am      2 UNK        -0.5000 
     65 C           2.1033  -12.8301  -48.7121 C.2       1 UNK         0.5000 
     66 O           3.1199  -12.1493  -48.8535 O.2       1 UNK        -0.5000 
     67 C          -0.4151  -22.0749  -47.1122 C.2       11 UNK         0.5000 
     68 O          -0.4178  -22.9358  -47.9898 O.2       11 UNK        -0.5000 
     69 N          -1.5275  -21.6237  -46.5136 N.am      12 UNK        -0.5000 
     70 CA         -2.8804  -22.0835  -46.8306 C.3       12 UNK         0.1400 
     71 CB         -3.9103  -21.2523  -46.0528 C.3       12 UNK        -0.1800 
     72 C          -3.0825  -23.5857  -46.5712 C.2       12 UNK         0.5000 
     73 O          -3.7125  -24.2559  -47.3892 O.2       12 UNK        -0.5000 
     74 N          -2.5140  -24.0937  -45.4690 N.am      13 UNK        -0.5000 
     75 CA         -2.4976  -25.5155  -45.1286 C.3       13 UNK         0.1400 
     76 CB         -1.9571  -25.7021  -43.7028 C.3       13 UNK        -0.1800 
     77 C          -1.6945  -26.3531  -46.1408 C.2       13 UNK         0.5000 
     78 O          -2.1893  -27.3844  -46.5961 O.2       13 UNK        -0.5000 
     79 N          -0.4946  -25.8786  -46.5063 N.am      14 UNK        -0.5000 
     80 CA          0.3835  -26.5055  -47.4983 C.3       14 UNK         0.1400 
     81 CB          1.7546  -25.8129  -47.4793 C.3       14 UNK        -0.1800 
     82 C          -0.2101  -26.5006  -48.9203 C.2       14 UNK         0.5000 
     83 O          -0.0816  -27.4931  -49.6378 O.2       14 UNK        -0.5000 
     84 N          -0.8739  -25.3973  -49.2883 N.am      15 UNK        -0.5000 
     85 CA         -1.5804  -25.2175  -50.5579 C.3       15 UNK         0.1400 
     86 CB         -1.7954  -23.7133  -50.7946 C.3       15 UNK        -0.1800 
     87 C          -2.9259  -25.9688  -50.6289 C.2       15 UNK         0.5000 
     88 O          -3.5121  -26.0346  -51.7089 O.2       15 UNK        -0.5000 
     89 N          -3.3992  -26.4981  -49.4906 N.am      16 UNK        -0.5000 
     90 CA         -4.6747  -27.1926  -49.2904 C.3       16 UNK         0.1400 
     91 CB         -4.7060  -28.5253  -50.0674 C.3       16 UNK        -0.1800 
     92 C          -5.8912  -26.2861  -49.5759 C.2       16 UNK         0.5000 
     93 O          -6.8498  -26.7143  -50.2215 O.2       16 UNK        -0.5000 
     94 N          -5.8157  -25.0433  -49.0766 N.am      17 UNK        -0.5000 
     95 CA         -6.8191  -23.9780  -49.1672 C.3       17 UNK         0.1400 
     96 CB         -8.0739  -24.3429  -48.3468 C.3       17 UNK        -0.1800 
     97 C          -7.1415  -23.5536  -50.6167 C.2       17 UNK         0.5000 
     98 O          -8.3015  -23.2910  -50.9426 O.2       17 UNK        -0.5000 
     99 N          -6.1042  -23.4888  -51.4631 N.am      18 UNK        -0.5000 
    100 CA        -6.1813  -23.0050  -52.8429 C.3       18 UNK         0.1400 
    101 CB        -4.8416  -23.2757  -53.5460 C.3       18 UNK        -0.1800 
    102 C         -6.5179  -21.5032  -52.9235 C.2       18 UNK         0.5000 
    103 O         -6.1994  -20.7450  -52.0030 O.2       18 UNK        -0.5000 
    104 N         -7.1209  -21.0991  -54.0483 N.am      19 UNK        -0.5000 
    105 CA        -7.3728  -19.7012  -54.3997 C.3       19 UNK         0.1400 
    106 CB        -8.2980  -19.6577  -55.6259 C.3       19 UNK        -0.1800 
    107 C         -6.0617  -18.9491  -54.6937 C.2       19 UNK         0.5000 
    108 O         -5.0832  -19.5697  -55.1136 O.2       19 UNK        -0.5000 
    109 N         -6.0832  -17.6208  -54.5158 N.am      20 UNK        -0.5000 
    110 CA        -4.9396  -16.7028  -54.6306 C.3       20 UNK         0.1400 
    111 CB        -5.4122  -15.2850  -54.2734 C.3       20 UNK        -0.1800 
    112 C         -4.2096  -16.6963  -55.9932 C.2       20 UNK         0.5000 
    113 O         -3.0887  -16.1947  -56.0744 O.2       20 UNK        -0.5000 
    114 N         -4.8411  -17.2632  -57.0274 N.am      21 UNK        -0.5000 
    115 CA        -4.3036  -17.4340  -58.3763 C.3       21 UNK         0.1400 
    116 CB        -5.4885  -17.6222  -59.3394 C.3       21 UNK        -0.1800 
    117 C         -3.2878  -18.5921  -58.5210 C.2       21 UNK         0.5000 
    118 O         -2.8109  -18.8109  -59.6362 O.2       21 UNK        -0.5000 
    119 N         -2.9971  -19.3313  -57.4373 N.am      22 UNK        -0.5000 
    120 CA        -2.0597  -20.4709  -57.4044 C.3       22 UNK         0.1400 
    121 C         -0.6268  -20.1766  -57.9501 C.2       22 UNK         0.5000 
    122 N          0.0599  -21.1861  -58.4700 N.am      22 UNK        -0.7600 
    123 O         -0.1191  -19.0590  -57.8795 O.2       22 UNK        -0.5000 
    124 C124       -2.0359  -21.1662  -56.0109 C.3       23 UNK        -0.0398 
    125 S125       -1.0058  -20.3703  -54.7208 S.3       23 UNK        -0.2404 
    126 C126       -2.2549  -19.4247  -53.8111 C.3       23 UNK        -0.0205 
    127 H127       -3.0840  -12.8120  -47.4234 H         1 UNK         0.0600 
    128 H128       -2.5307  -14.2585  -48.2732 H         1 UNK         0.0600 
    129 H129       -2.1400  -14.0344  -46.5656 H         1 UNK         0.0600 
    130 H130       -0.8123  -13.8175  -49.6214 H         1 UNK         0.3000 
    131 H131        0.7230  -11.4359  -49.5066 H         1 UNK         0.0600 
    132 H132        1.9592  -12.3562  -51.4420 H         1 UNK         0.0800 
    133 H133        0.2415  -12.4332  -51.6565 H         1 UNK         0.0800 
    134 H134       -1.2171  -14.4587  -51.4200 H         1 UNK         0.0800 
    135 H135       -0.5931  -14.7457  -53.0262 H         1 UNK         0.0800 
    136 H136       -1.4888  -16.8070  -53.8178 H         1 UNK         0.1150 
    137 H137       -1.6723  -20.2679  -51.2905 H         1 UNK         0.1150 
    138 H138       -0.2194  -16.5530  -49.7287 H         1 UNK         0.1150 
    139 H139       -0.8422  -18.3945  -48.2285 H         1 UNK         0.0800 
    140 H140       -1.3791  -19.9332  -48.8587 H         1 UNK         0.0800 
    141 H141        0.4978  -19.3598  -46.5957 H         1 UNK         0.0800 
    142 H142        2.1738  -19.7348  -46.8185 H         1 UNK         0.0800 
    143 H143        1.7196  -22.1220  -47.0557 H         1 UNK         0.0600 
    144 H144        1.1839  -20.7015  -44.6895 H         1 UNK         0.3000 
    145 H145        0.6152  -23.4489  -42.4745 H         1 UNK         0.0600 
    146 H146        2.4143  -22.2249  -41.2941 H         1 UNK         0.0600 
    147 H147        3.0810  -23.0824  -42.6756 H         1 UNK         0.0600 
    148 H148        2.8251  -21.3434  -42.7630 H         1 UNK         0.0600 
    149 H149        0.5432  -20.6477  -42.0234 H         1 UNK         0.3000 
    150 H150       -2.9612  -20.1764  -42.7331 H         1 UNK         0.0600 
    151 H151       -2.6813  -21.0051  -40.3878 H         1 UNK         0.0600 
    152 H152       -2.7961  -19.2531  -40.4509 H         1 UNK         0.0600 
    153 H153       -1.2308  -20.0247  -40.2090 H         1 UNK         0.0600 
    154 H154       -0.9800  -18.2933  -41.9840 H         1 UNK         0.3000 
    155 H155        0.0453  -17.3742  -45.3124 H         1 UNK         0.0600 
    156 H156       -1.4988  -15.9240  -43.1028 H         1 UNK         0.0600 
    157 H157       -2.0131  -16.0807  -44.7778 H         1 UNK         0.0600 
    158 H158       -0.5678  -15.1592  -44.3878 H         1 UNK         0.0600 
    159 H159        0.9499  -16.4258  -42.8084 H         1 UNK         0.3000 
    160 H160        3.5339  -18.8613  -42.2576 H         1 UNK         0.0600 
    161 H161        4.7744  -16.6879  -42.0597 H         1 UNK         0.0600 
    162 H162        3.5212  -15.8917  -43.0133 H         1 UNK         0.0600 
    163 H163        4.5111  -17.1544  -43.7316 H         1 UNK         0.0600 
    164 H164        2.5324  -16.5978  -40.7781 H         1 UNK         0.3000 
    165 H165        0.3053  -18.4429  -38.6955 H         1 UNK         0.0600 
    166 H166        1.7581  -17.4601  -36.9445 H         1 UNK         0.0600 
    167 H167        2.5746  -18.8102  -37.7160 H         1 UNK         0.0600 
    168 H168        3.0337  -17.1616  -38.1255 H         1 UNK         0.0600 
    169 H169        1.1225  -15.6978  -38.7377 H         1 UNK         0.3000 
    170 H170       -1.3867  -14.5380  -40.9947 H         1 UNK         0.0600 
    171 H171       -2.5212  -14.7877  -38.7795 H         1 UNK         0.0600 
    172 H172       -1.0697  -14.2203  -37.9627 H         1 UNK         0.0600 
    173 H173       -1.9620  -13.1435  -39.0378 H         1 UNK         0.0600 
    174 H174        0.4931  -13.0519  -39.5483 H         1 UNK         0.3000 
    175 H175        2.1174  -11.9838  -40.5960 H         1 UNK         0.0600 
    176 H176        4.0640  -14.1821  -41.4825 H         1 UNK         0.0600 
    177 H177        4.4928  -12.6331  -40.7663 H         1 UNK         0.0600 
    178 H178        3.6304  -13.8308  -39.8135 H         1 UNK         0.0600 
    179 H179        3.2509  -12.6686  -43.2115 H         1 UNK         0.3000 
    180 H180        1.0212  -10.5281  -45.0130 H         1 UNK         0.0600 
    181 H181        4.0362  -10.4661  -44.4873 H         1 UNK         0.0600 
    182 H182        2.9091   -9.1431  -44.2360 H         1 UNK         0.0600 
    183 H183        3.2089   -9.7364  -45.8624 H         1 UNK         0.0600 
    184 H184        1.2998  -12.2929  -46.2210 H         1 UNK         0.3000 
    185 H185        3.9583  -14.2141  -47.2465 H         1 UNK         0.0600 
    186 H186        3.3833  -15.8497  -45.4867 H         1 UNK         0.0600 
    187 H187        1.6702  -15.4912  -45.6554 H         1 UNK         0.0600 
    188 H188        2.5477  -16.2812  -46.9673 H         1 UNK         0.0600 
    189 H189        1.1222  -14.3246  -47.7795 H         1 UNK         0.3000 
    190 H190       -1.4541  -20.8879  -45.8146 H         1 UNK         0.3000 
    191 H191       -3.0439  -21.9111  -47.8962 H         1 UNK         0.0600 
    192 H192       -3.7706  -21.3445  -44.9753 H         1 UNK         0.0600 
    193 H193       -4.9270  -21.5736  -46.2826 H         1 UNK         0.0600 
    194 H194       -3.8372  -20.1954  -46.3098 H         1 UNK         0.0600 
    195 H195       -2.0578  -23.4613  -44.8179 H         1 UNK         0.3000 
    196 H196       -3.5292  -25.8732  -45.1468 H         1 UNK         0.0600 
    197 H197       -0.9360  -25.3334  -43.6050 H         1 UNK         0.0600 
    198 H198       -1.9550  -26.7556  -43.4206 H         1 UNK         0.0600 
    199 H199       -2.5731  -25.1715  -42.9766 H         1 UNK         0.0600 
    200 H200       -0.1453  -25.0329  -46.0637 H         1 UNK         0.3000 
    201 H201        0.5268  -27.5472  -47.2044 H         1 UNK         0.0600 
    202 H202        1.6747  -24.7547  -47.7302 H         1 UNK         0.0600 
    203 H203        2.4352  -26.2715  -48.1976 H         1 UNK         0.0600 
    204 H204        2.2197  -25.8880  -46.4962 H         1 UNK         0.0600 
    205 H205       -0.8615  -24.5927  -48.6640 H         1 UNK         0.3000 
    206 H206       -0.9486  -25.6018  -51.3611 H         1 UNK         0.0600 
    207 H207       -0.8506  -23.1697  -50.7706 H         1 UNK         0.0600 
    208 H208       -2.2448  -23.5313  -51.7704 H         1 UNK         0.0600 
    209 H209       -2.4511  -23.2776  -50.0398 H         1 UNK         0.0600 
    210 H210       -2.8479  -26.3629  -48.6532 H         1 UNK         0.3000 
    211 H211       -4.7214  -27.4337  -48.2274 H         1 UNK         0.0600 
    212 H212       -4.7183  -28.3681  -51.1462 H         1 UNK         0.0600 
    213 H213       -5.5942  -29.1042  -49.8122 H         1 UNK         0.0600 
    214 H214       -3.8386  -29.1403  -49.8276 H         1 UNK         0.0600 
    215 H215       -4.9810  -24.8022  -48.5425 H         1 UNK         0.3000 
    216 H216       -6.3677  -23.1036  -48.6960 H         1 UNK         0.0600 
    217 H217       -7.8111  -24.6073  -47.3225 H         1 UNK         0.0600 
    218 H218       -8.7664  -23.5020  -48.2954 H         1 UNK         0.0600 
    219 H219       -8.6130  -25.1843  -48.7831 H         1 UNK         0.0600 
    220 H220       -5.1883  -23.7381  -51.1218 H         1 UNK         0.3000 
    221 H221       -6.9654  -23.5681  -53.3533 H         1 UNK         0.0600 
    222 H222       -4.0269  -22.7171  -53.0844 H         1 UNK         0.0600 
    223 H223       -4.5857  -24.3347  -53.5210 H         1 UNK         0.0600 
    224 H224       -4.8831  -22.9789  -54.5948 H         1 UNK         0.0600 
    225 H225       -7.3106  -21.7786  -54.7701 H         1 UNK         0.3000 
    226 H226       -7.8748  -19.2183  -53.5586 H         1 UNK         0.0600 
    227 H227       -9.2400  -20.1694  -55.4276 H         1 UNK         0.0600 
    228 H228       -8.5407  -18.6301  -55.8995 H         1 UNK         0.0600 
    229 H229       -7.8368  -20.1284  -56.4954 H         1 UNK         0.0600 
    230 H230       -6.9459  -17.1983  -54.2039 H         1 UNK         0.3000 
    231 H231       -4.2092  -17.0071  -53.8795 H         1 UNK         0.0600 
    232 H232       -5.8285  -15.2484  -53.2665 H         1 UNK         0.0600 
    233 H233       -6.1752  -14.9301  -54.9673 H         1 UNK         0.0600 
    234 H234       -4.5844  -14.5751  -54.3044 H         1 UNK         0.0600 
    235 H235       -5.7476  -17.6711  -56.8537 H         1 UNK         0.3000 
    236 H236       -3.7818  -16.5168  -58.6573 H         1 UNK         0.0600 
    237 H237       -6.0453  -18.5333  -59.1167 H         1 UNK         0.0600 
    238 H238       -6.1813  -16.7823  -59.2823 H         1 UNK         0.0600 
    239 H239       -5.1504  -17.6887  -60.3743 H         1 UNK         0.0600 
    240 H240       -3.4780  -19.1236  -56.5719 H         1 UNK         0.3000 
    241 H241       -2.4964  -21.1919  -58.0982 H         1 UNK         0.0600 
    242 H242        0.9919  -21.0155  -58.8150 H         1 UNK         0.3800 
    243 H243       -0.3265  -22.1152  -58.5345 H         1 UNK         0.3800 
    244 H244       -3.0522  -21.2978  -55.6372 H         1 UNK         0.0800 
    245 H245       -1.6508  -22.1798  -56.1312 H         1 UNK         0.0800 
    246 H246       -3.0227  -20.0975  -53.4251 H         1 UNK         0.0800 
    247 H247       -2.7431  -18.7519  -54.5118 H         1 UNK         0.0800 
@<TRIPOS>BOND
     1    1    2 1    
     2    1  127 1    
     3    1  128 1    
     4    1  129 1    
     5    2    3 2    
     6    2    4 am   BACKBONE|DICT|INTERRES
     7    4    5 1    
     8    4  130 1    
     9    5    6 1    
    10    5   65 1    
    11    5  131 1    
    12    6    7 1    
    13    6  132 1    
    14    6  133 1    
    15    7    8 1    
    16    8    9 1    
    17    8  134 1    
    18    8  135 1    
    19    9   10 ar   
    20    9   14 ar   
    21   10   11 ar   
    22   10  136 1    
    23   11   12 ar   
    24   11  126 1    
    25   12   13 ar   
    26   12  137 1    
    27   13   14 ar   
    28   13   15 1    
    29   14  138 1    
    30   15   16 1    
    31   15  139 1    
    32   15  140 1    
    33   16   17 1    
    34   17   18 1    
    35   17  141 1    
    36   17  142 1    
    37   18   19 1    
    38   18   67 1    
    39   18  143 1    
    40   19   20 am   BACKBONE|DICT|INTERRES
    41   19  144 1    
    42   20   21 2    
    43   20   22 1    
    44   22   23 1    
    45   22   24 1    
    46   22  145 1    
    47   23  146 1    
    48   23  147 1    
    49   23  148 1    
    50   24   25 am   BACKBONE|DICT|INTERRES
    51   24  149 1    
    52   25   26 2    
    53   25   27 1    
    54   27   28 1    
    55   27   29 1    
    56   27  150 1    
    57   28  151 1    
    58   28  152 1    
    59   28  153 1    
    60   29   30 am   BACKBONE|DICT|INTERRES
    61   29  154 1    
    62   30   31 2    
    63   30   32 1    
    64   32   33 1    
    65   32   34 1    
    66   32  155 1    
    67   33  156 1    
    68   33  157 1    
    69   33  158 1    
    70   34   35 am   BACKBONE|DICT|INTERRES
    71   34  159 1    
    72   35   36 2    
    73   35   37 1    
    74   37   38 1    
    75   37   39 1    
    76   37  160 1    
    77   38  161 1    
    78   38  162 1    
    79   38  163 1    
    80   39   40 am   BACKBONE|DICT|INTERRES
    81   39  164 1    
    82   40   41 2    
    83   40   42 1    
    84   42   43 1    
    85   42   44 1    
    86   42  165 1    
    87   43  166 1    
    88   43  167 1    
    89   43  168 1    
    90   44   45 am   BACKBONE|DICT|INTERRES
    91   44  169 1    
    92   45   46 2    
    93   45   47 1    
    94   47   48 1    
    95   47   49 1    
    96   47  170 1    
    97   48  171 1    
    98   48  172 1    
    99   48  173 1    
   100   49   50 am   BACKBONE|DICT|INTERRES
   101   49  174 1    
   102   50   51 2    
   103   50   52 1    
   104   52   53 1    
   105   52   54 1    
   106   52  175 1    
   107   53  176 1    
   108   53  177 1    
   109   53  178 1    
   110   54   55 am   BACKBONE|DICT|INTERRES
   111   54  179 1    
   112   55   56 2    
   113   55   57 1    
   114   57   58 1    
   115   57   59 1    
   116   57  180 1    
   117   58  181 1    
   118   58  182 1    
   119   58  183 1    
   120   59   60 am   BACKBONE|DICT|INTERRES
   121   59  184 1    
   122   60   61 2    
   123   60   62 1    
   124   62   63 1    
   125   62   64 1    
   126   62  185 1    
   127   63  186 1    
   128   63  187 1    
   129   63  188 1    
   130   64   65 am   BACKBONE|DICT|INTERRES
   131   64  189 1    
   132   65   66 2    
   133   67   68 2    
   134   67   69 am   BACKBONE|DICT|INTERRES
   135   69   70 1    
   136   69  190 1    
   137   70   71 1    
   138   70   72 1    
   139   70  191 1    
   140   71  192 1    
   141   71  193 1    
   142   71  194 1    
   143   72   73 2    
   144   72   74 am   BACKBONE|DICT|INTERRES
   145   74   75 1    
   146   74  195 1    
   147   75   76 1    
   148   75   77 1    
   149   75  196 1    
   150   76  197 1    
   151   76  198 1    
   152   76  199 1    
   153   77   78 2    
   154   77   79 am   BACKBONE|DICT|INTERRES
   155   79   80 1    
   156   79  200 1    
   157   80   81 1    
   158   80   82 1    
   159   80  201 1    
   160   81  202 1    
   161   81  203 1    
   162   81  204 1    
   163   82   83 2    
   164   82   84 am   BACKBONE|DICT|INTERRES
   165   84   85 1    
   166   84  205 1    
   167   85   86 1    
   168   85   87 1    
   169   85  206 1    
   170   86  207 1    
   171   86  208 1    
   172   86  209 1    
   173   87   88 2    
   174   87   89 am   BACKBONE|DICT|INTERRES
   175   89   90 1    
   176   89  210 1    
   177   90   91 1    
   178   90   92 1    
   179   90  211 1    
   180   91  212 1    
   181   91  213 1    
   182   91  214 1    
   183   92   93 2    
   184   92   94 am   BACKBONE|DICT|INTERRES
   185   94   95 1    
   186   94  215 1    
   187   95   96 1    
   188   95   97 1    
   189   95  216 1    
   190   96  217 1    
   191   96  218 1    
   192   96  219 1    
   193   97   98 2    
   194   97   99 am   BACKBONE|DICT|INTERRES
   195   99  100 1    
   196   99  220 1    
   197  100  101 1    
   198  100  102 1    
   199  100  221 1    
   200  101  222 1    
   201  101  223 1    
   202  101  224 1    
   203  102  103 2    
   204  102  104 am   BACKBONE|DICT|INTERRES
   205  104  105 1    
   206  104  225 1    
   207  105  106 1    
   208  105  107 1    
   209  105  226 1    
   210  106  227 1    
   211  106  228 1    
   212  106  229 1    
   213  107  108 2    
   214  107  109 am   BACKBONE|DICT|INTERRES
   215  109  110 1    
   216  109  230 1    
   217  110  111 1    
   218  110  112 1    
   219  110  231 1    
   220  111  232 1    
   221  111  233 1    
   222  111  234 1    
   223  112  113 2    
   224  112  114 am   BACKBONE|DICT|INTERRES
   225  114  115 1    
   226  114  235 1    
   227  115  116 1    
   228  115  117 1    
   229  115  236 1    
   230  116  237 1    
   231  116  238 1    
   232  116  239 1    
   233  117  118 2    
   234  117  119 am   BACKBONE|DICT|INTERRES
   235  119  120 1    
   236  119  240 1    
   237  120  121 1    
   238  120  124 1    
   239  120  241 1    
   240  121  122 am   BACKBONE|DICT|INTERRES
   241  121  123 2    
   242  122  242 1    
   243  122  243 1    
   244  124  125 1    
   245  124  244 1    
   246  124  245 1    
   247  125  126 1    
   248  126  246 1    
   249  126  247 1    
@<TRIPOS>SUBSTRUCTURE
     1 UNK         1 GROUP             0       ****    0 ROOT    
