@<TRIPOS>MOLECULE
3R540
247   249    1
SMALL
USER_CHARGES


@<TRIPOS>ATOM
      1 CA          7.7879  -13.4294  -45.4476 C.3       0 UNK        -0.1800 
      2 C           6.3397  -13.8963  -45.4607 C.2       0 UNK         0.5000 
      3 O           5.8138  -14.2911  -44.4207 O.2       0 UNK        -0.5000 
      4 N           5.6836  -13.8313  -46.6284 N.am      1 UNK        -0.5000 
      5 CA          4.2986  -14.2774  -46.8513 C.3       1 UNK         0.1400 
      6 C6          3.9500  -14.3234  -48.3605 C.3       23 UNK        -0.0398 
      7 S7          2.8322  -15.7058  -48.7578 S.3       23 UNK        -0.2404 
      8 C8          1.3233  -14.8439  -49.2947 C.3       23 UNK        -0.0205 
      9 C9          0.2827  -15.8285  -49.8108 C.ar      23 UNK        -0.0193 
     10 C10         0.5678  -16.6291  -50.9196 C.ar      23 UNK        -0.1150 
     11 C11        -0.3616  -17.5535  -51.4020 C.ar      23 UNK        -0.0193 
     12 C12        -1.6126  -17.6439  -50.7739 C.ar      23 UNK        -0.1150 
     13 C13        -1.9265  -16.8305  -49.6767 C.ar      23 UNK        -0.0193 
     14 C14        -0.9672  -15.9334  -49.1967 C.ar      23 UNK        -0.1150 
     15 C15        -3.3201  -16.8407  -49.0511 C.3       23 UNK        -0.0205 
     16 S16        -4.0624  -18.4966  -48.8698 S.3       23 UNK        -0.2404 
     17 C17        -3.3970  -19.0564  -47.2690 C.3       23 UNK        -0.0398 
     18 CA         -3.1833  -20.5862  -47.2587 C.3       11 UNK         0.1400 
     19 N          -2.0848  -20.9865  -48.1415 N.am      11 UNK        -0.5000 
     20 C          -1.7845  -22.2460  -48.4789 C.2       10 UNK         0.5000 
     21 O          -2.4330  -23.2255  -48.1068 O.2       10 UNK        -0.5000 
     22 CA         -0.5229  -22.4502  -49.3395 C.3       10 UNK         0.1400 
     23 CB         -0.9069  -22.4540  -50.8261 C.3       10 UNK        -0.1800 
     24 N           0.5424  -21.4605  -49.1214 N.am      10 UNK        -0.5000 
     25 C           1.1078  -21.1531  -47.9442 C.2       9 UNK         0.5000 
     26 O           0.7413  -21.6403  -46.8729 O.2       9 UNK        -0.5000 
     27 CA          2.2391  -20.1113  -47.9310 C.3       9 UNK         0.1400 
     28 CB          2.3577  -19.2868  -49.2254 C.3       9 UNK        -0.1800 
     29 N           1.9961  -19.2496  -46.7825 N.am      9 UNK        -0.5000 
     30 C           2.8722  -18.5127  -46.0998 C.2       8 UNK         0.5000 
     31 O           4.0442  -18.3477  -46.4426 O.2       8 UNK        -0.5000 
     32 CA          2.3366  -17.8988  -44.7842 C.3       8 UNK         0.1400 
     33 CB          3.4049  -17.1387  -43.9833 C.3       8 UNK        -0.1800 
     34 N           1.1547  -17.0423  -44.9473 N.am      8 UNK        -0.5000 
     35 C          -0.0862  -17.4843  -45.1978 C.2       7 UNK         0.5000 
     36 O          -0.3428  -18.6685  -45.4174 O.2       7 UNK        -0.5000 
     37 CA         -1.2480  -16.4786  -45.2058 C.3       7 UNK         0.1400 
     38 CB         -2.3972  -16.9507  -44.2971 C.3       7 UNK        -0.1800 
     39 N          -0.8580  -15.1207  -44.8273 N.am      7 UNK        -0.5000 
     40 C          -1.3780  -14.0189  -45.3826 C.2       6 UNK         0.5000 
     41 O          -2.2051  -14.0378  -46.2968 O.2       6 UNK        -0.5000 
     42 CA         -0.9076  -12.6746  -44.7978 C.3       6 UNK         0.1400 
     43 CB         -1.5315  -11.4457  -45.4909 C.3       6 UNK        -0.1800 
     44 N          -1.0774  -12.5988  -43.3454 N.am      6 UNK        -0.5000 
     45 C          -2.2199  -12.6797  -42.6474 C.2       5 UNK         0.5000 
     46 O          -3.3366  -12.8060  -43.1531 O.2       5 UNK        -0.5000 
     47 CA         -2.0585  -12.6122  -41.1141 C.3       5 UNK         0.1400 
     48 CB         -3.3934  -12.7191  -40.3459 C.3       5 UNK        -0.1800 
     49 N          -1.0830  -13.5969  -40.6328 N.am      5 UNK        -0.5000 
     50 C          -1.1624  -14.9344  -40.7288 C.2       4 UNK         0.5000 
     51 O          -2.1601  -15.5365  -41.1245 O.2       4 UNK        -0.5000 
     52 CA          0.0992  -15.7251  -40.3122 C.3       4 UNK         0.1400 
     53 CB          0.1707  -17.1274  -40.9572 C.3       4 UNK        -0.1800 
     54 N           1.3454  -14.9797  -40.5432 N.am      4 UNK        -0.5000 
     55 C           1.8166  -14.5582  -41.7255 C.2       3 UNK         0.5000 
     56 O           1.2667  -14.7914  -42.8066 O.2       3 UNK        -0.5000 
     57 CA          3.1087  -13.7156  -41.6658 C.3       3 UNK         0.1400 
     58 CB          4.3383  -14.5896  -41.3743 C.3       3 UNK        -0.1800 
     59 N           3.3427  -12.9591  -42.8950 N.am      3 UNK        -0.5000 
     60 C           2.5579  -11.9644  -43.3341 C.2       2 UNK         0.5000 
     61 O           1.6095  -11.5151  -42.6873 O.2       2 UNK        -0.5000 
     62 CA          2.8602  -11.3772  -44.7291 C.3       2 UNK         0.1400 
     63 CB          3.6121  -10.0448  -44.5936 C.3       2 UNK        -0.1800 
     64 N           3.6340  -12.2667  -45.5968 N.am      2 UNK        -0.5000 
     65 C           3.2482  -13.4678  -46.0553 C.2       1 UNK         0.5000 
     66 O           2.1341  -13.9505  -45.8568 O.2       1 UNK        -0.5000 
     67 C          -3.0511  -21.1395  -45.8209 C.2       11 UNK         0.5000 
     68 O          -4.0750  -21.3411  -45.1674 O.2       11 UNK        -0.5000 
     69 N          -1.8200  -21.4141  -45.3715 N.am      12 UNK        -0.5000 
     70 CA         -1.5221  -22.0416  -44.0873 C.3       12 UNK         0.1400 
     71 CB         -0.4587  -21.2109  -43.3494 C.3       12 UNK        -0.1800 
     72 C          -1.0403  -23.4867  -44.2889 C.2       12 UNK         0.5000 
     73 O          -1.5720  -24.3984  -43.6554 O.2       12 UNK        -0.5000 
     74 N          -0.0480  -23.6744  -45.1698 N.am      13 UNK        -0.5000 
     75 CA          0.6813  -24.9287  -45.3696 C.3       13 UNK         0.1400 
     76 CB          1.9293  -24.6509  -46.2217 C.3       13 UNK        -0.1800 
     77 C          -0.1547  -26.0533  -46.0031 C.2       13 UNK         0.5000 
     78 O           0.0837  -27.2228  -45.6994 O.2       13 UNK        -0.5000 
     79 N          -1.1138  -25.6836  -46.8595 N.am      14 UNK        -0.5000 
     80 CA         -2.0394  -26.6001  -47.5270 C.3       14 UNK         0.1400 
     81 CB         -1.8605  -26.4675  -49.0501 C.3       14 UNK        -0.1800 
     82 C          -3.4932  -26.3260  -47.1026 C.2       14 UNK         0.5000 
     83 O          -4.4135  -26.7810  -47.7816 O.2       14 UNK        -0.5000 
     84 N          -3.6847  -25.5545  -46.0192 N.am      15 UNK        -0.5000 
     85 CA         -4.9695  -25.1303  -45.4459 C.3       15 UNK         0.1400 
     86 CB         -5.6560  -26.3236  -44.7506 C.3       15 UNK        -0.1800 
     87 C          -5.8982  -24.4182  -46.4570 C.2       15 UNK         0.5000 
     88 O          -7.1210  -24.5283  -46.3560 O.2       15 UNK        -0.5000 
     89 N          -5.2882  -23.7255  -47.4296 N.am      16 UNK        -0.5000 
     90 CA         -5.9059  -23.0291  -48.5585 C.3       16 UNK         0.1400 
     91 CB         -6.8772  -21.9255  -48.0886 C.3       16 UNK        -0.1800 
     92 C          -6.5245  -23.9508  -49.6295 C.2       16 UNK         0.5000 
     93 O          -7.2175  -23.4475  -50.5140 O.2       16 UNK        -0.5000 
     94 N          -6.2346  -25.2610  -49.5942 N.am      17 UNK        -0.5000 
     95 CA         -6.6755  -26.2125  -50.6197 C.3       17 UNK         0.1400 
     96 CB         -6.5166  -27.6499  -50.1025 C.3       17 UNK        -0.1800 
     97 C          -5.9156  -26.0259  -51.9465 C.2       17 UNK         0.5000 
     98 O          -6.5202  -26.1132  -53.0154 O.2       17 UNK        -0.5000 
     99 N          -4.6092  -25.7427  -51.8484 N.am      18 UNK        -0.5000 
    100 CA        -3.7239  -25.4860  -52.9881 C.3       18 UNK         0.1400 
    101 CB        -2.3141  -25.9931  -52.6458 C.3       18 UNK        -0.1800 
    102 C         -3.6772  -23.9980  -53.3874 C.2       18 UNK         0.5000 
    103 O         -3.0943  -23.6703  -54.4215 O.2       18 UNK        -0.5000 
    104 N         -4.2864  -23.1161  -52.5790 N.am      19 UNK        -0.5000 
    105 CA        -4.2453  -21.6583  -52.7410 C.3       19 UNK         0.1400 
    106 CB        -4.7383  -20.9710  -51.4617 C.3       19 UNK        -0.1800 
    107 C         -4.9747  -21.1162  -53.9856 C.2       19 UNK         0.5000 
    108 O         -4.8142  -19.9406  -54.3094 O.2       19 UNK        -0.5000 
    109 N         -5.7052  -21.9763  -54.7083 N.am      20 UNK        -0.5000 
    110 CA        -6.2432  -21.6958  -56.0424 C.3       20 UNK         0.1400 
    111 CB        -7.0848  -22.8948  -56.5037 C.3       20 UNK        -0.1800 
    112 C         -5.1466  -21.3704  -57.0814 C.2       20 UNK         0.5000 
    113 O         -5.4068  -20.6207  -58.0231 O.2       20 UNK        -0.5000 
    114 N         -3.9319  -21.9008  -56.8707 N.am      21 UNK        -0.5000 
    115 CA        -2.7412  -21.6095  -57.6699 C.3       21 UNK         0.1400 
    116 CB        -1.6885  -22.6954  -57.3975 C.3       21 UNK        -0.1800 
    117 C         -2.1461  -20.2089  -57.4089 C.2       21 UNK         0.5000 
    118 O         -1.3469  -19.7419  -58.2218 O.2       21 UNK        -0.5000 
    119 N         -2.5238  -19.5659  -56.2949 N.am      22 UNK        -0.5000 
    120 CA        -2.0418  -18.2337  -55.8877 C.3       22 UNK         0.1400 
    121 C         -2.7292  -17.0521  -56.6344 C.2       22 UNK         0.5000 
    122 N         -3.7686  -17.2758  -57.4305 N.am      22 UNK        -0.7600 
    123 O         -2.3033  -15.9085  -56.4977 O.2       22 UNK        -0.5000 
    124 C124       -2.1136  -18.0292  -54.3502 C.3       23 UNK        -0.0398 
    125 S125       -1.2735  -19.3554  -53.4157 S.3       23 UNK        -0.2404 
    126 C126        0.0612  -18.4412  -52.5755 C.3       23 UNK        -0.0205 
    127 H127        7.9085  -12.6020  -44.7485 H         1 UNK         0.0600 
    128 H128        8.1157  -13.0947  -46.4319 H         1 UNK         0.0600 
    129 H129        8.4400  -14.2429  -45.1300 H         1 UNK         0.0600 
    130 H130        6.1698  -13.4833  -47.4429 H         1 UNK         0.3000 
    131 H131        4.2600  -15.2978  -46.4652 H         1 UNK         0.0600 
    132 H132        4.8514  -14.4923  -48.9511 H         1 UNK         0.0800 
    133 H133        3.5412  -13.3758  -48.7165 H         1 UNK         0.0800 
    134 H134        1.5675  -14.1369  -50.0887 H         1 UNK         0.0800 
    135 H135        0.9295  -14.2615  -48.4599 H         1 UNK         0.0800 
    136 H136        1.5371  -16.5498  -51.3922 H         1 UNK         0.1150 
    137 H137       -2.3551  -18.3373  -51.1396 H         1 UNK         0.1150 
    138 H138       -1.2020  -15.2945  -48.3580 H         1 UNK         0.1150 
    139 H139       -3.3175  -16.3421  -48.0803 H         1 UNK         0.0800 
    140 H140       -3.9733  -16.2476  -49.6920 H         1 UNK         0.0800 
    141 H141       -4.1071  -18.7511  -46.4983 H         1 UNK         0.0800 
    142 H142       -2.4604  -18.5415  -47.0594 H         1 UNK         0.0800 
    143 H143       -4.0878  -21.0394  -47.6592 H         1 UNK         0.0600 
    144 H144       -1.5012  -20.2432  -48.4954 H         1 UNK         0.3000 
    145 H145       -0.1161  -23.4310  -49.0859 H         1 UNK         0.0600 
    146 H146       -0.0608  -22.7309  -51.4552 H         1 UNK         0.0600 
    147 H147       -1.7051  -23.1698  -51.0228 H         1 UNK         0.0600 
    148 H148       -1.2609  -21.4747  -51.1502 H         1 UNK         0.0600 
    149 H149        0.8910  -20.9975  -49.9477 H         1 UNK         0.3000 
    150 H150        3.1713  -20.6557  -47.7705 H         1 UNK         0.0600 
    151 H151        2.5430  -19.9191  -50.0941 H         1 UNK         0.0600 
    152 H152        3.1904  -18.5873  -49.1665 H         1 UNK         0.0600 
    153 H153        1.4504  -18.7131  -49.4070 H         1 UNK         0.0600 
    154 H154        1.0606  -19.3243  -46.3857 H         1 UNK         0.3000 
    155 H155        2.0415  -18.7498  -44.1664 H         1 UNK         0.0600 
    156 H156        3.6372  -16.1727  -44.4287 H         1 UNK         0.0600 
    157 H157        4.3339  -17.7050  -43.9082 H         1 UNK         0.0600 
    158 H158        3.0589  -16.9641  -42.9655 H         1 UNK         0.0600 
    159 H159        1.3060  -16.0487  -44.8224 H         1 UNK         0.3000 
    160 H160       -1.6093  -16.4752  -46.2347 H         1 UNK         0.0600 
    161 H161       -2.0742  -17.0253  -43.2597 H         1 UNK         0.0600 
    162 H162       -2.7613  -17.9355  -44.5895 H         1 UNK         0.0600 
    163 H163       -3.2441  -16.2656  -44.3374 H         1 UNK         0.0600 
    164 H164       -0.1781  -15.0237  -44.0761 H         1 UNK         0.3000 
    165 H165        0.1624  -12.6334  -44.9775 H         1 UNK         0.0600 
    166 H166       -1.3128  -11.4500  -46.5594 H         1 UNK         0.0600 
    167 H167       -2.6158  -11.4217  -45.3796 H         1 UNK         0.0600 
    168 H168       -1.1307  -10.5184  -45.0818 H         1 UNK         0.0600 
    169 H169       -0.2104  -12.4888  -42.8309 H         1 UNK         0.3000 
    170 H170       -1.6370  -11.6300  -40.8948 H         1 UNK         0.0600 
    171 H171       -4.0650  -11.9057  -40.6226 H         1 UNK         0.0600 
    172 H172       -3.9142  -13.6538  -40.5547 H         1 UNK         0.0600 
    173 H173       -3.2346  -12.6568  -39.2695 H         1 UNK         0.0600 
    174 H174       -0.2162  -13.2117  -40.2864 H         1 UNK         0.3000 
    175 H175        0.0219  -15.8652  -39.2332 H         1 UNK         0.0600 
    176 H176        0.1765  -17.0765  -42.0459 H         1 UNK         0.0600 
    177 H177        1.0684  -17.6602  -40.6440 H         1 UNK         0.0600 
    178 H178       -0.6853  -17.7371  -40.6661 H         1 UNK         0.0600 
    179 H179        1.8652  -14.7436  -39.7091 H         1 UNK         0.3000 
    180 H180        2.9989  -12.9984  -40.8498 H         1 UNK         0.0600 
    181 H181        4.5456  -15.2823  -42.1886 H         1 UNK         0.0600 
    182 H182        4.2043  -15.1792  -40.4668 H         1 UNK         0.0600 
    183 H183        5.2281  -13.9761  -41.2321 H         1 UNK         0.0600 
    184 H184        4.0814  -13.3008  -43.4980 H         1 UNK         0.3000 
    185 H185        1.9073  -11.1766  -45.2205 H         1 UNK         0.0600 
    186 H186        4.5896  -10.1803  -44.1288 H         1 UNK         0.0600 
    187 H187        3.7634   -9.5753  -45.5658 H         1 UNK         0.0600 
    188 H188        3.0510   -9.3399  -43.9785 H         1 UNK         0.0600 
    189 H189        4.5740  -11.9689  -45.8125 H         1 UNK         0.3000 
    190 H190       -1.0255  -21.2264  -45.9729 H         1 UNK         0.3000 
    191 H191       -2.4126  -22.0754  -43.4564 H         1 UNK         0.0600 
    192 H192       -0.1830  -21.6765  -42.4026 H         1 UNK         0.0600 
    193 H193       -0.8321  -20.2117  -43.1238 H         1 UNK         0.0600 
    194 H194        0.4510  -21.0976  -43.9407 H         1 UNK         0.0600 
    195 H195        0.3015  -22.8731  -45.6929 H         1 UNK         0.3000 
    196 H196        1.0114  -25.2787  -44.3893 H         1 UNK         0.0600 
    197 H197        1.6643  -24.2996  -47.2197 H         1 UNK         0.0600 
    198 H198        2.5638  -23.8950  -45.7585 H         1 UNK         0.0600 
    199 H199        2.5312  -25.5528  -46.3403 H         1 UNK         0.0600 
    200 H200       -1.2618  -24.6986  -47.0435 H         1 UNK         0.3000 
    201 H201       -1.8282  -27.6350  -47.2519 H         1 UNK         0.0600 
    202 H202       -2.1449  -25.4776  -49.4047 H         1 UNK         0.0600 
    203 H203       -2.4723  -27.1964  -49.5831 H         1 UNK         0.0600 
    204 H204       -0.8249  -26.6424  -49.3417 H         1 UNK         0.0600 
    205 H205       -2.8629  -25.2387  -45.5219 H         1 UNK         0.3000 
    206 H206       -4.7327  -24.3892  -44.6810 H         1 UNK         0.0600 
    207 H207       -4.9890  -26.7957  -44.0293 H         1 UNK         0.0600 
    208 H208       -6.5451  -26.0038  -44.2060 H         1 UNK         0.0600 
    209 H209       -5.9661  -27.0837  -45.4684 H         1 UNK         0.0600 
    210 H210       -4.2726  -23.7228  -47.4374 H         1 UNK         0.3000 
    211 H211       -5.0767  -22.5382  -49.0626 H         1 UNK         0.0600 
    212 H212       -7.1441  -21.2641  -48.9136 H         1 UNK         0.0600 
    213 H213       -6.4338  -21.3061  -47.3093 H         1 UNK         0.0600 
    214 H214       -7.8045  -22.3428  -47.6957 H         1 UNK         0.0600 
    215 H215       -5.6618  -25.6331  -48.8423 H         1 UNK         0.3000 
    216 H216       -7.7369  -26.0418  -50.8127 H         1 UNK         0.0600 
    217 H217       -5.4694  -27.9121  -49.9486 H         1 UNK         0.0600 
    218 H218       -6.9304  -28.3661  -50.8134 H         1 UNK         0.0600 
    219 H219       -7.0397  -27.7899  -49.1563 H         1 UNK         0.0600 
    220 H220       -4.1948  -25.7016  -50.9291 H         1 UNK         0.3000 
    221 H221       -4.0779  -26.0443  -53.8573 H         1 UNK         0.0600 
    222 H222       -2.3287  -27.0486  -52.3735 H         1 UNK         0.0600 
    223 H223       -1.8724  -25.4384  -51.8188 H         1 UNK         0.0600 
    224 H224       -1.6442  -25.8895  -53.5005 H         1 UNK         0.0600 
    225 H225       -4.8013  -23.4714  -51.7885 H         1 UNK         0.3000 
    226 H226       -3.1968  -21.3894  -52.8684 H         1 UNK         0.0600 
    227 H227       -5.7602  -21.2571  -51.2148 H         1 UNK         0.0600 
    228 H228       -4.0922  -21.2095  -50.6180 H         1 UNK         0.0600 
    229 H229       -4.7221  -19.8857  -51.5710 H         1 UNK         0.0600 
    230 H230       -5.7933  -22.9239  -54.3723 H         1 UNK         0.3000 
    231 H231       -6.8954  -20.8235  -55.9653 H         1 UNK         0.0600 
    232 H232       -6.4853  -23.8033  -56.5753 H         1 UNK         0.0600 
    233 H233       -7.5215  -22.7106  -57.4862 H         1 UNK         0.0600 
    234 H234       -7.9073  -23.0884  -55.8148 H         1 UNK         0.0600 
    235 H235       -3.7917  -22.5018  -56.0656 H         1 UNK         0.3000 
    236 H236       -3.0151  -21.6581  -58.7258 H         1 UNK         0.0600 
    237 H237       -2.0803  -23.6896  -57.6129 H         1 UNK         0.0600 
    238 H238       -0.8062  -22.5513  -58.0223 H         1 UNK         0.0600 
    239 H239       -1.3596  -22.6825  -56.3575 H         1 UNK         0.0600 
    240 H240       -3.2128  -19.9857  -55.6835 H         1 UNK         0.3000 
    241 H241       -0.9865  -18.1737  -56.1608 H         1 UNK         0.0600 
    242 H242       -4.2010  -16.5033  -57.9125 H         1 UNK         0.3800 
    243 H243       -4.1286  -18.2099  -57.5540 H         1 UNK         0.3800 
    244 H244       -3.1507  -17.9829  -54.0169 H         1 UNK         0.0800 
    245 H245       -1.6739  -17.0688  -54.0756 H         1 UNK         0.0800 
    246 H246        0.5917  -17.8428  -53.3179 H         1 UNK         0.0800 
    247 H247        0.7804  -19.1706  -52.2014 H         1 UNK         0.0800 
@<TRIPOS>BOND
     1    1    2 1    
     2    1  127 1    
     3    1  128 1    
     4    1  129 1    
     5    2    3 2    
     6    2    4 am   BACKBONE|DICT|INTERRES
     7    4    5 1    
     8    4  130 1    
     9    5    6 1    
    10    5   65 1    
    11    5  131 1    
    12    6    7 1    
    13    6  132 1    
    14    6  133 1    
    15    7    8 1    
    16    8    9 1    
    17    8  134 1    
    18    8  135 1    
    19    9   10 ar   
    20    9   14 ar   
    21   10   11 ar   
    22   10  136 1    
    23   11   12 ar   
    24   11  126 1    
    25   12   13 ar   
    26   12  137 1    
    27   13   14 ar   
    28   13   15 1    
    29   14  138 1    
    30   15   16 1    
    31   15  139 1    
    32   15  140 1    
    33   16   17 1    
    34   17   18 1    
    35   17  141 1    
    36   17  142 1    
    37   18   19 1    
    38   18   67 1    
    39   18  143 1    
    40   19   20 am   BACKBONE|DICT|INTERRES
    41   19  144 1    
    42   20   21 2    
    43   20   22 1    
    44   22   23 1    
    45   22   24 1    
    46   22  145 1    
    47   23  146 1    
    48   23  147 1    
    49   23  148 1    
    50   24   25 am   BACKBONE|DICT|INTERRES
    51   24  149 1    
    52   25   26 2    
    53   25   27 1    
    54   27   28 1    
    55   27   29 1    
    56   27  150 1    
    57   28  151 1    
    58   28  152 1    
    59   28  153 1    
    60   29   30 am   BACKBONE|DICT|INTERRES
    61   29  154 1    
    62   30   31 2    
    63   30   32 1    
    64   32   33 1    
    65   32   34 1    
    66   32  155 1    
    67   33  156 1    
    68   33  157 1    
    69   33  158 1    
    70   34   35 am   BACKBONE|DICT|INTERRES
    71   34  159 1    
    72   35   36 2    
    73   35   37 1    
    74   37   38 1    
    75   37   39 1    
    76   37  160 1    
    77   38  161 1    
    78   38  162 1    
    79   38  163 1    
    80   39   40 am   BACKBONE|DICT|INTERRES
    81   39  164 1    
    82   40   41 2    
    83   40   42 1    
    84   42   43 1    
    85   42   44 1    
    86   42  165 1    
    87   43  166 1    
    88   43  167 1    
    89   43  168 1    
    90   44   45 am   BACKBONE|DICT|INTERRES
    91   44  169 1    
    92   45   46 2    
    93   45   47 1    
    94   47   48 1    
    95   47   49 1    
    96   47  170 1    
    97   48  171 1    
    98   48  172 1    
    99   48  173 1    
   100   49   50 am   BACKBONE|DICT|INTERRES
   101   49  174 1    
   102   50   51 2    
   103   50   52 1    
   104   52   53 1    
   105   52   54 1    
   106   52  175 1    
   107   53  176 1    
   108   53  177 1    
   109   53  178 1    
   110   54   55 am   BACKBONE|DICT|INTERRES
   111   54  179 1    
   112   55   56 2    
   113   55   57 1    
   114   57   58 1    
   115   57   59 1    
   116   57  180 1    
   117   58  181 1    
   118   58  182 1    
   119   58  183 1    
   120   59   60 am   BACKBONE|DICT|INTERRES
   121   59  184 1    
   122   60   61 2    
   123   60   62 1    
   124   62   63 1    
   125   62   64 1    
   126   62  185 1    
   127   63  186 1    
   128   63  187 1    
   129   63  188 1    
   130   64   65 am   BACKBONE|DICT|INTERRES
   131   64  189 1    
   132   65   66 2    
   133   67   68 2    
   134   67   69 am   BACKBONE|DICT|INTERRES
   135   69   70 1    
   136   69  190 1    
   137   70   71 1    
   138   70   72 1    
   139   70  191 1    
   140   71  192 1    
   141   71  193 1    
   142   71  194 1    
   143   72   73 2    
   144   72   74 am   BACKBONE|DICT|INTERRES
   145   74   75 1    
   146   74  195 1    
   147   75   76 1    
   148   75   77 1    
   149   75  196 1    
   150   76  197 1    
   151   76  198 1    
   152   76  199 1    
   153   77   78 2    
   154   77   79 am   BACKBONE|DICT|INTERRES
   155   79   80 1    
   156   79  200 1    
   157   80   81 1    
   158   80   82 1    
   159   80  201 1    
   160   81  202 1    
   161   81  203 1    
   162   81  204 1    
   163   82   83 2    
   164   82   84 am   BACKBONE|DICT|INTERRES
   165   84   85 1    
   166   84  205 1    
   167   85   86 1    
   168   85   87 1    
   169   85  206 1    
   170   86  207 1    
   171   86  208 1    
   172   86  209 1    
   173   87   88 2    
   174   87   89 am   BACKBONE|DICT|INTERRES
   175   89   90 1    
   176   89  210 1    
   177   90   91 1    
   178   90   92 1    
   179   90  211 1    
   180   91  212 1    
   181   91  213 1    
   182   91  214 1    
   183   92   93 2    
   184   92   94 am   BACKBONE|DICT|INTERRES
   185   94   95 1    
   186   94  215 1    
   187   95   96 1    
   188   95   97 1    
   189   95  216 1    
   190   96  217 1    
   191   96  218 1    
   192   96  219 1    
   193   97   98 2    
   194   97   99 am   BACKBONE|DICT|INTERRES
   195   99  100 1    
   196   99  220 1    
   197  100  101 1    
   198  100  102 1    
   199  100  221 1    
   200  101  222 1    
   201  101  223 1    
   202  101  224 1    
   203  102  103 2    
   204  102  104 am   BACKBONE|DICT|INTERRES
   205  104  105 1    
   206  104  225 1    
   207  105  106 1    
   208  105  107 1    
   209  105  226 1    
   210  106  227 1    
   211  106  228 1    
   212  106  229 1    
   213  107  108 2    
   214  107  109 am   BACKBONE|DICT|INTERRES
   215  109  110 1    
   216  109  230 1    
   217  110  111 1    
   218  110  112 1    
   219  110  231 1    
   220  111  232 1    
   221  111  233 1    
   222  111  234 1    
   223  112  113 2    
   224  112  114 am   BACKBONE|DICT|INTERRES
   225  114  115 1    
   226  114  235 1    
   227  115  116 1    
   228  115  117 1    
   229  115  236 1    
   230  116  237 1    
   231  116  238 1    
   232  116  239 1    
   233  117  118 2    
   234  117  119 am   BACKBONE|DICT|INTERRES
   235  119  120 1    
   236  119  240 1    
   237  120  121 1    
   238  120  124 1    
   239  120  241 1    
   240  121  122 am   BACKBONE|DICT|INTERRES
   241  121  123 2    
   242  122  242 1    
   243  122  243 1    
   244  124  125 1    
   245  124  244 1    
   246  124  245 1    
   247  125  126 1    
   248  126  246 1    
   249  126  247 1    
@<TRIPOS>SUBSTRUCTURE
     1 UNK         1 GROUP             0       ****    0 ROOT    
