@<TRIPOS>MOLECULE
3R540
247   249    1
SMALL
USER_CHARGES


@<TRIPOS>ATOM
      1 CA          3.5544  -13.0905  -47.1164 C.3       0 UNK        -0.1800 
      2 C           2.0355  -13.1680  -47.1128 C.2       0 UNK         0.5000 
      3 O           1.4039  -12.8202  -46.1146 O.2       0 UNK        -0.5000 
      4 N           1.4371  -13.6010  -48.2310 N.am      1 UNK        -0.5000 
      5 CA         -0.0051  -13.8389  -48.4057 C.3       1 UNK         0.1400 
      6 C6         -0.3075  -14.7575  -49.6146 C.3       23 UNK        -0.0398 
      7 S7          0.0482  -16.5025  -49.2220 S.3       23 UNK        -0.2404 
      8 C8          1.4618  -16.8616  -50.3099 C.3       23 UNK        -0.0205 
      9 C9          1.6052  -18.3554  -50.5587 C.ar      23 UNK        -0.0193 
     10 C10         0.5572  -19.0644  -51.1497 C.ar      23 UNK        -0.1150 
     11 C11         0.6757  -20.4283  -51.4136 C.ar      23 UNK        -0.0193 
     12 C12         1.8608  -21.0891  -51.0774 C.ar      23 UNK        -0.1150 
     13 C13         2.9214  -20.3994  -50.4797 C.ar      23 UNK        -0.0193 
     14 C14         2.7866  -19.0263  -50.2311 C.ar      23 UNK        -0.1150 
     15 C15         4.2057  -21.1606  -50.1475 C.3       23 UNK        -0.0205 
     16 S16         5.1019  -20.5528  -48.6771 S.3       23 UNK        -0.2404 
     17 C17         3.8744  -20.8443  -47.3607 C.3       23 UNK        -0.0398 
     18 CA          4.3479  -21.8528  -46.2822 C.3       11 UNK         0.1400 
     19 N           3.7333  -21.5387  -44.9881 N.am      11 UNK        -0.5000 
     20 C           4.1462  -21.9549  -43.7845 C.2       10 UNK         0.5000 
     21 O           5.1693  -22.6141  -43.6009 O.2       10 UNK        -0.5000 
     22 CA          3.2267  -21.6163  -42.5937 C.3       10 UNK         0.1400 
     23 CB          3.5977  -20.2575  -41.9807 C.3       10 UNK        -0.1800 
     24 N           1.8072  -21.6139  -42.9639 N.am      10 UNK        -0.5000 
     25 C           1.1026  -22.7118  -43.2772 C.2       9 UNK         0.5000 
     26 O           1.5678  -23.8510  -43.2453 O.2       9 UNK        -0.5000 
     27 CA         -0.3457  -22.5012  -43.7594 C.3       9 UNK         0.1400 
     28 CB         -1.3058  -22.3761  -42.5681 C.3       9 UNK        -0.1800 
     29 N          -0.4867  -21.3357  -44.6334 N.am      9 UNK        -0.5000 
     30 C           0.0815  -21.2387  -45.8441 C.2       8 UNK         0.5000 
     31 O           0.7645  -22.1320  -46.3456 O.2       8 UNK        -0.5000 
     32 CA         -0.0805  -19.9034  -46.5943 C.3       8 UNK         0.1400 
     33 CB         -1.4261  -19.8422  -47.3242 C.3       8 UNK        -0.1800 
     34 N           0.0577  -18.7320  -45.7280 N.am      8 UNK        -0.5000 
     35 C           1.1642  -18.4315  -45.0343 C.2       7 UNK         0.5000 
     36 O           2.1649  -19.1440  -45.0029 O.2       7 UNK        -0.5000 
     37 CA          1.1469  -17.1342  -44.2187 C.3       7 UNK         0.1400 
     38 CB          1.3552  -15.9208  -45.1294 C.3       7 UNK        -0.1800 
     39 N          -0.1042  -16.9926  -43.4824 N.am      7 UNK        -0.5000 
     40 C          -0.3372  -17.5656  -42.2945 C.2       6 UNK         0.5000 
     41 O           0.5036  -18.2100  -41.6666 O.2       6 UNK        -0.5000 
     42 CA         -1.7585  -17.4170  -41.7223 C.3       6 UNK         0.1400 
     43 CB         -1.8727  -16.1391  -40.8787 C.3       6 UNK        -0.1800 
     44 N          -2.7939  -17.4067  -42.7561 N.am      6 UNK        -0.5000 
     45 C          -3.0830  -18.4516  -43.5442 C.2       5 UNK         0.5000 
     46 O          -2.4990  -19.5333  -43.4935 O.2       5 UNK        -0.5000 
     47 CA         -4.1943  -18.2482  -44.5857 C.3       5 UNK         0.1400 
     48 CB         -5.5661  -18.5184  -43.9504 C.3       5 UNK        -0.1800 
     49 N          -4.2219  -16.9218  -45.2011 N.am      5 UNK        -0.5000 
     50 C          -3.2043  -16.2858  -45.7968 C.2       4 UNK         0.5000 
     51 O          -2.0494  -16.7155  -45.8413 O.2       4 UNK        -0.5000 
     52 CA         -3.5232  -14.9183  -46.4350 C.3       4 UNK         0.1400 
     53 CB         -5.0257  -14.5607  -46.4622 C.3       4 UNK        -0.1800 
     54 N          -2.7645  -13.8230  -45.8264 N.am      4 UNK        -0.5000 
     55 C          -2.6707  -13.4935  -44.5280 C.2       3 UNK         0.5000 
     56 O          -3.2283  -14.1170  -43.6233 O.2       3 UNK        -0.5000 
     57 CA         -1.8006  -12.2658  -44.1713 C.3       3 UNK         0.1400 
     58 CB         -0.6641  -12.6660  -43.2172 C.3       3 UNK        -0.1800 
     59 N          -1.2124  -11.6212  -45.3496 N.am      3 UNK        -0.5000 
     60 C          -1.8072  -10.6787  -46.0996 C.2       2 UNK         0.5000 
     61 O          -2.8856  -10.1589  -45.8138 O.2       2 UNK        -0.5000 
     62 CA         -1.1048  -10.2972  -47.4245 C.3       2 UNK         0.1400 
     63 CB         -0.1609   -9.1043  -47.2134 C.3       2 UNK        -0.1800 
     64 N          -0.3441  -11.4188  -47.9830 N.am      2 UNK        -0.5000 
     65 C          -0.8957  -12.5725  -48.3816 C.2       1 UNK         0.5000 
     66 O          -2.1006  -12.6843  -48.6058 O.2       1 UNK        -0.5000 
     67 C           4.1087  -23.3195  -46.7245 C.2       11 UNK         0.5000 
     68 O           4.7128  -23.7604  -47.7027 O.2       11 UNK        -0.5000 
     69 N           3.2451  -24.0478  -45.9998 N.am      12 UNK        -0.5000 
     70 CA          2.8248  -25.4317  -46.2285 C.3       12 UNK         0.1400 
     71 CB          4.0145  -26.4094  -46.1215 C.3       12 UNK        -0.1800 
     72 C           2.0012  -25.5978  -47.5212 C.2       12 UNK         0.5000 
     73 O           2.1668  -26.5831  -48.2441 O.2       12 UNK        -0.5000 
     74 N           1.1051  -24.6346  -47.7747 N.am      13 UNK        -0.5000 
     75 CA          0.0717  -24.6991  -48.8072 C.3       13 UNK         0.1400 
     76 CB         -0.4702  -23.2790  -49.0391 C.3       13 UNK        -0.1800 
     77 C          -1.0715  -25.6623  -48.4167 C.2       13 UNK         0.5000 
     78 O          -1.0107  -26.3290  -47.3787 O.2       13 UNK        -0.5000 
     79 N          -2.1229  -25.6981  -49.2461 N.am      14 UNK        -0.5000 
     80 CA         -3.3606  -26.4540  -49.0352 C.3       14 UNK         0.1400 
     81 CB         -4.1110  -26.5432  -50.3765 C.3       14 UNK        -0.1800 
     82 C          -4.2309  -25.8514  -47.9078 C.2       14 UNK         0.5000 
     83 O          -5.3301  -25.3582  -48.1673 O.2       14 UNK        -0.5000 
     84 N          -3.7010  -25.8915  -46.6782 N.am      15 UNK        -0.5000 
     85 CA         -4.2475  -25.3308  -45.4421 C.3       15 UNK         0.1400 
     86 CB         -5.5212  -26.0941  -45.0115 C.3       15 UNK        -0.1800 
     87 C          -4.4178  -23.8013  -45.5496 C.2       15 UNK         0.5000 
     88 O          -3.4501  -23.1091  -45.8735 O.2       15 UNK        -0.5000 
     89 N          -5.6301  -23.2975  -45.2877 N.am      16 UNK        -0.5000 
     90 CA         -6.0116  -21.8856  -45.3346 C.3       16 UNK         0.1400 
     91 CB         -7.2807  -21.7013  -44.4815 C.3       16 UNK        -0.1800 
     92 C          -6.1790  -21.3564  -46.7773 C.2       16 UNK         0.5000 
     93 O          -7.2366  -20.8306  -47.1300 O.2       16 UNK        -0.5000 
     94 N          -5.1316  -21.5242  -47.5895 N.am      17 UNK        -0.5000 
     95 CA         -5.0296  -21.0383  -48.9626 C.3       17 UNK         0.1400 
     96 CB         -4.0718  -21.9693  -49.7314 C.3       17 UNK        -0.1800 
     97 C          -4.5667  -19.5661  -49.0086 C.2       17 UNK         0.5000 
     98 O          -4.4808  -18.8964  -47.9779 O.2       17 UNK        -0.5000 
     99 N          -4.2592  -19.0928  -50.2167 N.am      18 UNK        -0.5000 
    100 CA        -3.6782  -17.7922  -50.5209 C.3       18 UNK         0.1400 
    101 CB        -4.7487  -16.6888  -50.4284 C.3       18 UNK        -0.1800 
    102 C         -3.0908  -17.8808  -51.9357 C.2       18 UNK         0.5000 
    103 O         -3.3854  -18.8386  -52.6585 O.2       18 UNK        -0.5000 
    104 N         -2.2986  -16.8745  -52.3274 N.am      19 UNK        -0.5000 
    105 CA        -1.6511  -16.7878  -53.6429 C.3       19 UNK         0.1400 
    106 CB        -0.7828  -15.5220  -53.6980 C.3       19 UNK        -0.1800 
    107 C         -2.6468  -16.8023  -54.8187 C.2       19 UNK         0.5000 
    108 O         -2.3695  -17.4105  -55.8519 O.2       19 UNK        -0.5000 
    109 N         -3.8110  -16.1715  -54.6152 N.am      20 UNK        -0.5000 
    110 CA        -4.9252  -16.1510  -55.5626 C.3       20 UNK         0.1400 
    111 CB        -5.9263  -15.0711  -55.1236 C.3       20 UNK        -0.1800 
    112 C         -5.6338  -17.5131  -55.7090 C.2       20 UNK         0.5000 
    113 O         -6.2796  -17.7421  -56.7325 O.2       20 UNK        -0.5000 
    114 N         -5.5149  -18.3828  -54.6955 N.am      21 UNK        -0.5000 
    115 CA        -6.0908  -19.7243  -54.6940 C.3       21 UNK         0.1400 
    116 CB        -6.4509  -20.1412  -53.2577 C.3       21 UNK        -0.1800 
    117 C         -5.1348  -20.7368  -55.3430 C.2       21 UNK         0.5000 
    118 O         -5.5708  -21.4991  -56.2072 O.2       21 UNK        -0.5000 
    119 N         -3.8612  -20.7367  -54.9207 N.am      22 UNK        -0.5000 
    120 CA        -2.8435  -21.6717  -55.4311 C.3       22 UNK         0.1400 
    121 C         -2.1854  -21.2621  -56.7806 C.2       22 UNK         0.5000 
    122 N         -2.2417  -20.0052  -57.2024 N.am      22 UNK        -0.7600 
    123 O         -1.6307  -22.1115  -57.4729 O.2       22 UNK        -0.5000 
    124 C124       -1.8023  -22.0685  -54.3542 C.3       23 UNK        -0.0398 
    125 S125       -0.7013  -20.7219  -53.7992 S.3       23 UNK        -0.2404 
    126 C126       -0.4803  -21.1815  -52.0532 C.3       23 UNK        -0.0205 
    127 H127        3.8781  -12.0658  -46.9350 H         1 UNK         0.0600 
    128 H128        3.9752  -13.4192  -48.0668 H         1 UNK         0.0600 
    129 H129        3.9609  -13.7228  -46.3271 H         1 UNK         0.0600 
    130 H130        2.0127  -13.8424  -49.0247 H         1 UNK         0.3000 
    131 H131       -0.3302  -14.3791  -47.5143 H         1 UNK         0.0600 
    132 H132       -1.3622  -14.7270  -49.8917 H         1 UNK         0.0800 
    133 H133        0.2413  -14.4303  -50.4985 H         1 UNK         0.0800 
    134 H134        1.3351  -16.3675  -51.2720 H         1 UNK         0.0800 
    135 H135        2.3668  -16.4486  -49.8622 H         1 UNK         0.0800 
    136 H136       -0.3535  -18.5504  -51.4118 H         1 UNK         0.1150 
    137 H137        1.9586  -22.1459  -51.2830 H         1 UNK         0.1150 
    138 H138        3.6029  -18.4742  -49.7883 H         1 UNK         0.1150 
    139 H139        3.9877  -22.2196  -49.9985 H         1 UNK         0.0800 
    140 H140        4.8722  -21.1011  -51.0085 H         1 UNK         0.0800 
    141 H141        3.7079  -19.8654  -46.9119 H         1 UNK         0.0800 
    142 H142        2.9110  -21.1380  -47.7811 H         1 UNK         0.0800 
    143 H143        5.4257  -21.7358  -46.1517 H         1 UNK         0.0600 
    144 H144        2.9236  -20.9261  -45.0218 H         1 UNK         0.3000 
    145 H145        3.3768  -22.3834  -41.8311 H         1 UNK         0.0600 
    146 H146        2.9818  -20.0370  -41.1085 H         1 UNK         0.0600 
    147 H147        3.4704  -19.4419  -42.6926 H         1 UNK         0.0600 
    148 H148        4.6386  -20.2484  -41.6551 H         1 UNK         0.0600 
    149 H149        1.3622  -20.7108  -43.0478 H         1 UNK         0.3000 
    150 H150       -0.6361  -23.3836  -44.3341 H         1 UNK         0.0600 
    151 H151       -1.2280  -23.2416  -41.9091 H         1 UNK         0.0600 
    152 H152       -2.3411  -22.3155  -42.9051 H         1 UNK         0.0600 
    153 H153       -1.0946  -21.4867  -41.9728 H         1 UNK         0.0600 
    154 H154       -1.0663  -20.5748  -44.2891 H         1 UNK         0.3000 
    155 H155        0.7099  -19.8451  -47.3458 H         1 UNK         0.0600 
    156 H156       -1.4921  -20.6203  -48.0827 H         1 UNK         0.0600 
    157 H157       -1.5586  -18.8866  -47.8322 H         1 UNK         0.0600 
    158 H158       -2.2620  -19.9762  -46.6375 H         1 UNK         0.0600 
    159 H159       -0.7187  -18.0755  -45.7205 H         1 UNK         0.3000 
    160 H160        1.9824  -17.1688  -43.5159 H         1 UNK         0.0600 
    161 H161        0.5151  -15.7738  -45.8077 H         1 UNK         0.0600 
    162 H162        2.2528  -16.0362  -45.7382 H         1 UNK         0.0600 
    163 H163        1.4789  -15.0132  -44.5405 H         1 UNK         0.0600 
    164 H164       -0.8730  -16.5518  -43.9712 H         1 UNK         0.3000 
    165 H165       -1.9428  -18.2740  -41.0710 H         1 UNK         0.0600 
    166 H166       -2.8511  -16.0655  -40.4039 H         1 UNK         0.0600 
    167 H167       -1.1241  -16.1255  -40.0855 H         1 UNK         0.0600 
    168 H168       -1.7263  -15.2449  -41.4847 H         1 UNK         0.0600 
    169 H169       -3.2913  -16.5373  -42.8985 H         1 UNK         0.3000 
    170 H170       -4.0319  -18.9784  -45.3790 H         1 UNK         0.0600 
    171 H171       -5.5752  -19.4676  -43.4138 H         1 UNK         0.0600 
    172 H172       -5.8364  -17.7420  -43.2337 H         1 UNK         0.0600 
    173 H173       -6.3474  -18.5608  -44.7096 H         1 UNK         0.0600 
    174 H174       -5.1201  -16.4624  -45.2077 H         1 UNK         0.3000 
    175 H175       -3.1862  -14.9920  -47.4700 H         1 UNK         0.0600 
    176 H176       -5.4368  -14.4331  -45.4600 H         1 UNK         0.0600 
    177 H177       -5.1892  -13.6286  -47.0035 H         1 UNK         0.0600 
    178 H178       -5.6075  -15.3293  -46.9731 H         1 UNK         0.0600 
    179 H179       -2.2950  -13.2216  -46.4878 H         1 UNK         0.3000 
    180 H180       -2.4427  -11.5514  -43.6523 H         1 UNK         0.0600 
    181 H181       -1.0583  -13.0617  -42.2810 H         1 UNK         0.0600 
    182 H182       -0.0385  -11.8093  -42.9667 H         1 UNK         0.0600 
    183 H183       -0.0238  -13.4313  -43.6554 H         1 UNK         0.0600 
    184 H184       -0.3078  -11.9819  -45.6425 H         1 UNK         0.3000 
    185 H185       -1.8741  -10.0087  -48.1439 H         1 UNK         0.0600 
    186 H186       -0.7020   -8.2445  -46.8163 H         1 UNK         0.0600 
    187 H187        0.6386   -9.3429  -46.5107 H         1 UNK         0.0600 
    188 H188        0.2980   -8.7938  -48.1522 H         1 UNK         0.0600 
    189 H189        0.6466  -11.4264  -47.7851 H         1 UNK         0.3000 
    190 H190        2.7856  -23.5852  -45.2265 H         1 UNK         0.3000 
    191 H191        2.1411  -25.6698  -45.4125 H         1 UNK         0.0600 
    192 H192        3.6689  -27.4437  -46.1306 H         1 UNK         0.0600 
    193 H193        4.5646  -26.2602  -45.1923 H         1 UNK         0.0600 
    194 H194        4.7145  -26.2944  -46.9493 H         1 UNK         0.0600 
    195 H195        1.0447  -23.8418  -47.1407 H         1 UNK         0.3000 
    196 H196        0.5247  -25.0595  -49.7328 H         1 UNK         0.0600 
    197 H197        0.3372  -22.5579  -49.1628 H         1 UNK         0.0600 
    198 H198       -1.0883  -23.2319  -49.9347 H         1 UNK         0.0600 
    199 H199       -1.0837  -22.9513  -48.1991 H         1 UNK         0.0600 
    200 H200       -2.1067  -25.1109  -50.0663 H         1 UNK         0.3000 
    201 H201       -3.0985  -27.4704  -48.7341 H         1 UNK         0.0600 
    202 H202       -5.0296  -27.1221  -50.2727 H         1 UNK         0.0600 
    203 H203       -3.5038  -27.0355  -51.1363 H         1 UNK         0.0600 
    204 H204       -4.3847  -25.5566  -50.7528 H         1 UNK         0.0600 
    205 H205       -2.7446  -26.2318  -46.6172 H         1 UNK         0.3000 
    206 H206       -3.4911  -25.4938  -44.6731 H         1 UNK         0.0600 
    207 H207       -5.3209  -27.1621  -44.9243 H         1 UNK         0.0600 
    208 H208       -5.8728  -25.7575  -44.0354 H         1 UNK         0.0600 
    209 H209       -6.3385  -25.9717  -45.7231 H         1 UNK         0.0600 
    210 H210       -6.3735  -23.9474  -45.0782 H         1 UNK         0.3000 
    211 H211       -5.2098  -21.3039  -44.8766 H         1 UNK         0.0600 
    212 H212       -8.1106  -22.2971  -44.8633 H         1 UNK         0.0600 
    213 H213       -7.6058  -20.6607  -44.4703 H         1 UNK         0.0600 
    214 H214       -7.1052  -21.9946  -43.4464 H         1 UNK         0.0600 
    215 H215       -4.3075  -21.9689  -47.1976 H         1 UNK         0.3000 
    216 H216       -6.0126  -21.0919  -49.4349 H         1 UNK         0.0600 
    217 H217       -3.0515  -21.8837  -49.3607 H         1 UNK         0.0600 
    218 H218       -4.0567  -21.7432  -50.7981 H         1 UNK         0.0600 
    219 H219       -4.3746  -23.0121  -49.6332 H         1 UNK         0.0600 
    220 H220       -4.3095  -19.6972  -51.0272 H         1 UNK         0.3000 
    221 H221       -2.8670  -17.5881  -49.8190 H         1 UNK         0.0600 
    222 H222       -5.1701  -16.6280  -49.4249 H         1 UNK         0.0600 
    223 H223       -4.3287  -15.7088  -50.6569 H         1 UNK         0.0600 
    224 H224       -5.5695  -16.8678  -51.1242 H         1 UNK         0.0600 
    225 H225       -2.1092  -16.1206  -51.6850 H         1 UNK         0.3000 
    226 H226       -0.9994  -17.6568  -53.7521 H         1 UNK         0.0600 
    227 H227       -0.0147  -15.5332  -52.9271 H         1 UNK         0.0600 
    228 H228       -0.2731  -15.4407  -54.6590 H         1 UNK         0.0600 
    229 H229       -1.3781  -14.6179  -53.5647 H         1 UNK         0.0600 
    230 H230       -3.9542  -15.6991  -53.7352 H         1 UNK         0.3000 
    231 H231       -4.5339  -15.8769  -56.5446 H         1 UNK         0.0600 
    232 H232       -6.7604  -15.0034  -55.8234 H         1 UNK         0.0600 
    233 H233       -5.4559  -14.0884  -55.0857 H         1 UNK         0.0600 
    234 H234       -6.3415  -15.2843  -54.1377 H         1 UNK         0.0600 
    235 H235       -4.9042  -18.1556  -53.9217 H         1 UNK         0.3000 
    236 H236       -7.0180  -19.7175  -55.2714 H         1 UNK         0.0600 
    237 H237       -5.5700  -20.2553  -52.6281 H         1 UNK         0.0600 
    238 H238       -7.1079  -19.4098  -52.7867 H         1 UNK         0.0600 
    239 H239       -6.9746  -21.0978  -53.2547 H         1 UNK         0.0600 
    240 H240       -3.5634  -20.0778  -54.2078 H         1 UNK         0.3000 
    241 H241       -3.3644  -22.6034  -55.6617 H         1 UNK         0.0600 
    242 H242       -2.5977  -19.2629  -56.6109 H         1 UNK         0.3800 
    243 H243       -1.8168  -19.7663  -58.0837 H         1 UNK         0.3800 
    244 H244       -1.1761  -22.8832  -54.7216 H         1 UNK         0.0800 
    245 H245       -2.3304  -22.4739  -53.4900 H         1 UNK         0.0800 
    246 H246       -0.3075  -22.2564  -51.9889 H         1 UNK         0.0800 
    247 H247       -1.4010  -20.9757  -51.5049 H         1 UNK         0.0800 
@<TRIPOS>BOND
     1    1    2 1    
     2    1  127 1    
     3    1  128 1    
     4    1  129 1    
     5    2    3 2    
     6    2    4 am   BACKBONE|DICT|INTERRES
     7    4    5 1    
     8    4  130 1    
     9    5    6 1    
    10    5   65 1    
    11    5  131 1    
    12    6    7 1    
    13    6  132 1    
    14    6  133 1    
    15    7    8 1    
    16    8    9 1    
    17    8  134 1    
    18    8  135 1    
    19    9   10 ar   
    20    9   14 ar   
    21   10   11 ar   
    22   10  136 1    
    23   11   12 ar   
    24   11  126 1    
    25   12   13 ar   
    26   12  137 1    
    27   13   14 ar   
    28   13   15 1    
    29   14  138 1    
    30   15   16 1    
    31   15  139 1    
    32   15  140 1    
    33   16   17 1    
    34   17   18 1    
    35   17  141 1    
    36   17  142 1    
    37   18   19 1    
    38   18   67 1    
    39   18  143 1    
    40   19   20 am   BACKBONE|DICT|INTERRES
    41   19  144 1    
    42   20   21 2    
    43   20   22 1    
    44   22   23 1    
    45   22   24 1    
    46   22  145 1    
    47   23  146 1    
    48   23  147 1    
    49   23  148 1    
    50   24   25 am   BACKBONE|DICT|INTERRES
    51   24  149 1    
    52   25   26 2    
    53   25   27 1    
    54   27   28 1    
    55   27   29 1    
    56   27  150 1    
    57   28  151 1    
    58   28  152 1    
    59   28  153 1    
    60   29   30 am   BACKBONE|DICT|INTERRES
    61   29  154 1    
    62   30   31 2    
    63   30   32 1    
    64   32   33 1    
    65   32   34 1    
    66   32  155 1    
    67   33  156 1    
    68   33  157 1    
    69   33  158 1    
    70   34   35 am   BACKBONE|DICT|INTERRES
    71   34  159 1    
    72   35   36 2    
    73   35   37 1    
    74   37   38 1    
    75   37   39 1    
    76   37  160 1    
    77   38  161 1    
    78   38  162 1    
    79   38  163 1    
    80   39   40 am   BACKBONE|DICT|INTERRES
    81   39  164 1    
    82   40   41 2    
    83   40   42 1    
    84   42   43 1    
    85   42   44 1    
    86   42  165 1    
    87   43  166 1    
    88   43  167 1    
    89   43  168 1    
    90   44   45 am   BACKBONE|DICT|INTERRES
    91   44  169 1    
    92   45   46 2    
    93   45   47 1    
    94   47   48 1    
    95   47   49 1    
    96   47  170 1    
    97   48  171 1    
    98   48  172 1    
    99   48  173 1    
   100   49   50 am   BACKBONE|DICT|INTERRES
   101   49  174 1    
   102   50   51 2    
   103   50   52 1    
   104   52   53 1    
   105   52   54 1    
   106   52  175 1    
   107   53  176 1    
   108   53  177 1    
   109   53  178 1    
   110   54   55 am   BACKBONE|DICT|INTERRES
   111   54  179 1    
   112   55   56 2    
   113   55   57 1    
   114   57   58 1    
   115   57   59 1    
   116   57  180 1    
   117   58  181 1    
   118   58  182 1    
   119   58  183 1    
   120   59   60 am   BACKBONE|DICT|INTERRES
   121   59  184 1    
   122   60   61 2    
   123   60   62 1    
   124   62   63 1    
   125   62   64 1    
   126   62  185 1    
   127   63  186 1    
   128   63  187 1    
   129   63  188 1    
   130   64   65 am   BACKBONE|DICT|INTERRES
   131   64  189 1    
   132   65   66 2    
   133   67   68 2    
   134   67   69 am   BACKBONE|DICT|INTERRES
   135   69   70 1    
   136   69  190 1    
   137   70   71 1    
   138   70   72 1    
   139   70  191 1    
   140   71  192 1    
   141   71  193 1    
   142   71  194 1    
   143   72   73 2    
   144   72   74 am   BACKBONE|DICT|INTERRES
   145   74   75 1    
   146   74  195 1    
   147   75   76 1    
   148   75   77 1    
   149   75  196 1    
   150   76  197 1    
   151   76  198 1    
   152   76  199 1    
   153   77   78 2    
   154   77   79 am   BACKBONE|DICT|INTERRES
   155   79   80 1    
   156   79  200 1    
   157   80   81 1    
   158   80   82 1    
   159   80  201 1    
   160   81  202 1    
   161   81  203 1    
   162   81  204 1    
   163   82   83 2    
   164   82   84 am   BACKBONE|DICT|INTERRES
   165   84   85 1    
   166   84  205 1    
   167   85   86 1    
   168   85   87 1    
   169   85  206 1    
   170   86  207 1    
   171   86  208 1    
   172   86  209 1    
   173   87   88 2    
   174   87   89 am   BACKBONE|DICT|INTERRES
   175   89   90 1    
   176   89  210 1    
   177   90   91 1    
   178   90   92 1    
   179   90  211 1    
   180   91  212 1    
   181   91  213 1    
   182   91  214 1    
   183   92   93 2    
   184   92   94 am   BACKBONE|DICT|INTERRES
   185   94   95 1    
   186   94  215 1    
   187   95   96 1    
   188   95   97 1    
   189   95  216 1    
   190   96  217 1    
   191   96  218 1    
   192   96  219 1    
   193   97   98 2    
   194   97   99 am   BACKBONE|DICT|INTERRES
   195   99  100 1    
   196   99  220 1    
   197  100  101 1    
   198  100  102 1    
   199  100  221 1    
   200  101  222 1    
   201  101  223 1    
   202  101  224 1    
   203  102  103 2    
   204  102  104 am   BACKBONE|DICT|INTERRES
   205  104  105 1    
   206  104  225 1    
   207  105  106 1    
   208  105  107 1    
   209  105  226 1    
   210  106  227 1    
   211  106  228 1    
   212  106  229 1    
   213  107  108 2    
   214  107  109 am   BACKBONE|DICT|INTERRES
   215  109  110 1    
   216  109  230 1    
   217  110  111 1    
   218  110  112 1    
   219  110  231 1    
   220  111  232 1    
   221  111  233 1    
   222  111  234 1    
   223  112  113 2    
   224  112  114 am   BACKBONE|DICT|INTERRES
   225  114  115 1    
   226  114  235 1    
   227  115  116 1    
   228  115  117 1    
   229  115  236 1    
   230  116  237 1    
   231  116  238 1    
   232  116  239 1    
   233  117  118 2    
   234  117  119 am   BACKBONE|DICT|INTERRES
   235  119  120 1    
   236  119  240 1    
   237  120  121 1    
   238  120  124 1    
   239  120  241 1    
   240  121  122 am   BACKBONE|DICT|INTERRES
   241  121  123 2    
   242  122  242 1    
   243  122  243 1    
   244  124  125 1    
   245  124  244 1    
   246  124  245 1    
   247  125  126 1    
   248  126  246 1    
   249  126  247 1    
@<TRIPOS>SUBSTRUCTURE
     1 UNK         1 GROUP             0       ****    0 ROOT    
