@<TRIPOS>MOLECULE
3R540
247   249    1
SMALL
USER_CHARGES


@<TRIPOS>ATOM
      1 CA         -6.1647  -14.9731  -48.8118 C.3       0 UNK        -0.1800 
      2 C          -4.7457  -14.8494  -48.2774 C.2       0 UNK         0.5000 
      3 O          -4.5206  -15.0498  -47.0838 O.2       0 UNK        -0.5000 
      4 N          -3.7871  -14.5073  -49.1498 N.am      1 UNK        -0.5000 
      5 CA         -2.3468  -14.3442  -48.8888 C.3       1 UNK         0.1400 
      6 C6         -1.6949  -15.5973  -48.2394 C.3       23 UNK        -0.0398 
      7 S7         -0.0469  -15.9939  -48.9145 S.3       23 UNK        -0.2404 
      8 C8         -0.4641  -17.4442  -49.9326 C.3       23 UNK        -0.0205 
      9 C9          0.7640  -18.1390  -50.4962 C.ar      23 UNK        -0.0193 
     10 C10         1.0309  -18.0954  -51.8680 C.ar      23 UNK        -0.1150 
     11 C11         2.1254  -18.7839  -52.3980 C.ar      23 UNK        -0.0193 
     12 C12         2.9580  -19.5132  -51.5456 C.ar      23 UNK        -0.1150 
     13 C13         2.7061  -19.5605  -50.1717 C.ar      23 UNK        -0.0193 
     14 C14         1.6070  -18.8690  -49.6517 C.ar      23 UNK        -0.1150 
     15 C15         3.6324  -20.3538  -49.2620 C.3       23 UNK        -0.0205 
     16 S16         2.9147  -21.9611  -48.7923 S.3       23 UNK        -0.2404 
     17 C17         2.2450  -21.5626  -47.1457 C.3       23 UNK        -0.0398 
     18 CA          0.9871  -22.3732  -46.7570 C.3       11 UNK         0.1400 
     19 N           0.7701  -22.3330  -45.3081 N.am      11 UNK        -0.5000 
     20 C          -0.1447  -23.0465  -44.6384 C.2       10 UNK         0.5000 
     21 O          -0.8728  -23.8883  -45.1629 O.2       10 UNK        -0.5000 
     22 CA         -0.3090  -22.7243  -43.1407 C.3       10 UNK         0.1400 
     23 CB          0.7493  -23.4550  -42.3014 C.3       10 UNK        -0.1800 
     24 N          -0.2502  -21.2857  -42.8699 N.am      10 UNK        -0.5000 
     25 C          -1.1539  -20.3979  -43.3100 C.2       9 UNK         0.5000 
     26 O          -2.1706  -20.7163  -43.9253 O.2       9 UNK        -0.5000 
     27 CA         -0.8475  -18.9056  -43.0774 C.3       9 UNK         0.1400 
     28 CB         -1.2507  -18.4720  -41.6609 C.3       9 UNK        -0.1800 
     29 N           0.5594  -18.5789  -43.3139 N.am      9 UNK        -0.5000 
     30 C           1.1691  -18.6775  -44.5035 C.2       8 UNK         0.5000 
     31 O           0.5885  -18.9870  -45.5416 O.2       8 UNK        -0.5000 
     32 CA          2.6908  -18.4565  -44.5339 C.3       8 UNK         0.1400 
     33 CB          3.0336  -16.9696  -44.6710 C.3       8 UNK        -0.1800 
     34 N           3.3479  -19.0078  -43.3505 N.am      8 UNK        -0.5000 
     35 C           3.4868  -20.3193  -43.1135 C.2       7 UNK         0.5000 
     36 O           3.1014  -21.1961  -43.8860 O.2       7 UNK        -0.5000 
     37 CA          4.1200  -20.7127  -41.7673 C.3       7 UNK         0.1400 
     38 CB          5.6523  -20.6486  -41.8484 C.3       7 UNK        -0.1800 
     39 N           3.6541  -19.8674  -40.6669 N.am      7 UNK        -0.5000 
     40 C           2.3940  -19.8514  -40.2101 C.2       6 UNK         0.5000 
     41 O           1.5022  -20.5802  -40.6432 O.2       6 UNK        -0.5000 
     42 CA          2.0660  -18.8151  -39.1197 C.3       6 UNK         0.1400 
     43 CB          2.3665  -19.3852  -37.7257 C.3       6 UNK        -0.1800 
     44 N           2.7802  -17.5463  -39.2917 N.am      6 UNK        -0.5000 
     45 C           2.6202  -16.7188  -40.3327 C.2       5 UNK         0.5000 
     46 O           1.8835  -16.9584  -41.2916 O.2       5 UNK        -0.5000 
     47 CA          3.4692  -15.4366  -40.3280 C.3       5 UNK         0.1400 
     48 CB          4.6953  -15.6017  -41.2394 C.3       5 UNK        -0.1800 
     49 N           2.6991  -14.2727  -40.7657 N.am      5 UNK        -0.5000 
     50 C           1.7396  -13.6801  -40.0411 C.2       4 UNK         0.5000 
     51 O           1.4053  -14.0576  -38.9170 O.2       4 UNK        -0.5000 
     52 CA          1.0579  -12.4388  -40.6490 C.3       4 UNK         0.1400 
     53 CB          1.6595  -11.1568  -40.0513 C.3       4 UNK        -0.1800 
     54 N           1.1702  -12.3736  -42.1084 N.am      4 UNK        -0.5000 
     55 C           0.3213  -12.9692  -42.9539 C.2       3 UNK         0.5000 
     56 O          -0.6372  -13.6578  -42.5953 O.2       3 UNK        -0.5000 
     57 CA          0.6051  -12.7768  -44.4536 C.3       3 UNK         0.1400 
     58 CB          1.4031  -13.9632  -45.0086 C.3       3 UNK        -0.1800 
     59 N          -0.6400  -12.6617  -45.2061 N.am      3 UNK        -0.5000 
     60 C          -1.3595  -11.5400  -45.3303 C.2       2 UNK         0.5000 
     61 O          -1.0167  -10.4603  -44.8445 O.2       2 UNK        -0.5000 
     62 CA         -2.6873  -11.6450  -46.1142 C.3       2 UNK         0.1400 
     63 CB         -3.0452  -10.3397  -46.8552 C.3       2 UNK        -0.1800 
     64 N          -2.7618  -12.7969  -47.0234 N.am      2 UNK        -0.5000 
     65 C          -2.0136  -13.0525  -48.1075 C.2       1 UNK         0.5000 
     66 O          -1.1088  -12.3192  -48.5069 O.2       1 UNK        -0.5000 
     67 C          -0.2697  -21.9209  -47.5345 C.2       11 UNK         0.5000 
     68 O          -0.6754  -22.5951  -48.4807 O.2       11 UNK        -0.5000 
     69 N          -0.9026  -20.8285  -47.0812 N.am      12 UNK        -0.5000 
     70 CA         -2.1700  -20.3216  -47.6047 C.3       12 UNK         0.1400 
     71 CB         -2.5081  -18.9748  -46.9493 C.3       12 UNK        -0.1800 
     72 C          -3.3257  -21.3165  -47.4204 C.2       12 UNK         0.5000 
     73 O          -4.0856  -21.5302  -48.3638 O.2       12 UNK        -0.5000 
     74 N          -3.4220  -21.9315  -46.2336 N.am      13 UNK        -0.5000 
     75 CA         -4.4028  -22.9697  -45.9116 C.3       13 UNK         0.1400 
     76 CB         -4.3254  -23.3175  -44.4180 C.3       13 UNK        -0.1800 
     77 C          -4.2423  -24.2285  -46.7836 C.2       13 UNK         0.5000 
     78 O          -5.2406  -24.7433  -47.2881 O.2       13 UNK        -0.5000 
     79 N          -2.9919  -24.6615  -47.0022 N.am      14 UNK        -0.5000 
     80 CA         -2.6319  -25.7528  -47.9135 C.3       14 UNK         0.1400 
     81 CB         -1.1409  -26.0847  -47.7524 C.3       14 UNK        -0.1800 
     82 C          -2.9710  -25.4464  -49.3871 C.2       14 UNK         0.5000 
     83 O          -3.3343  -26.3579  -50.1302 O.2       14 UNK        -0.5000 
     84 N          -2.9036  -24.1630  -49.7639 N.am      15 UNK        -0.5000 
     85 CA         -3.3312  -23.6188  -51.0537 C.3       15 UNK         0.1400 
     86 CB         -2.4843  -22.3723  -51.3675 C.3       15 UNK        -0.1800 
     87 C          -4.8466  -23.3142  -51.1178 C.2       15 UNK         0.5000 
     88 O          -5.2749  -22.5973  -52.0235 O.2       15 UNK        -0.5000 
     89 N          -5.6322  -23.8474  -50.1685 N.am      16 UNK        -0.5000 
     90 CA         -7.0900  -23.7401  -50.0477 C.3       16 UNK         0.1400 
     91 CB         -7.7903  -24.4364  -51.2339 C.3       16 UNK        -0.1800 
     92 C          -7.5594  -22.2893  -49.8237 C.2       16 UNK         0.5000 
     93 O          -8.4537  -21.8101  -50.5203 O.2       16 UNK        -0.5000 
     94 N          -6.9148  -21.6159  -48.8606 N.am      17 UNK        -0.5000 
     95 CA         -7.0515  -20.1945  -48.5202 C.3       17 UNK         0.1400 
     96 CB         -8.4805  -19.8525  -48.0488 C.3       17 UNK        -0.1800 
     97 C          -6.5409  -19.2907  -49.6601 C.2       17 UNK         0.5000 
     98 O          -7.1793  -18.2950  -50.0036 O.2       17 UNK        -0.5000 
     99 N          -5.3911  -19.6854  -50.2283 N.am      18 UNK        -0.5000 
    100 CA        -4.6860  -19.0626  -51.3540 C.3       18 UNK         0.1400 
    101 CB        -4.1386  -17.6798  -50.9465 C.3       18 UNK        -0.1800 
    102 C         -5.5068  -19.0220  -52.6632 C.2       18 UNK         0.5000 
    103 O         -5.2933  -18.1367  -53.4936 O.2       18 UNK        -0.5000 
    104 N         -6.4274  -19.9806  -52.8323 N.am      19 UNK        -0.5000 
    105 CA        -7.2342  -20.1498  -54.0393 C.3       19 UNK         0.1400 
    106 CB        -8.5037  -20.9434  -53.7005 C.3       19 UNK        -0.1800 
    107 C         -6.4459  -20.8447  -55.1621 C.2       19 UNK         0.5000 
    108 O         -6.6519  -20.5226  -56.3333 O.2       19 UNK        -0.5000 
    109 N         -5.5552  -21.7756  -54.7926 N.am      20 UNK        -0.5000 
    110 CA        -4.6306  -22.4381  -55.7082 C.3       20 UNK         0.1400 
    111 CB        -4.0548  -23.6920  -55.0325 C.3       20 UNK        -0.1800 
    112 C         -3.5066  -21.4730  -56.1235 C.2       20 UNK         0.5000 
    113 O         -2.9034  -20.8318  -55.2595 O.2       20 UNK        -0.5000 
    114 N         -3.2469  -21.3888  -57.4326 N.am      21 UNK        -0.5000 
    115 CA        -2.1804  -20.5715  -58.0069 C.3       21 UNK         0.1400 
    116 CB        -2.4839  -20.3263  -59.4933 C.3       21 UNK        -0.1800 
    117 C         -0.8108  -21.2524  -57.8398 C.2       21 UNK         0.5000 
    118 O         -0.7150  -22.4755  -57.9718 O.2       21 UNK        -0.5000 
    119 N          0.2223  -20.4430  -57.5873 N.am      22 UNK        -0.5000 
    120 CA         1.6188  -20.8889  -57.4327 C.3       22 UNK         0.1400 
    121 C          2.4122  -20.9661  -58.7711 C.2       22 UNK         0.5000 
    122 N          1.8496  -20.5735  -59.9080 N.am      22 UNK        -0.7600 
    123 O          3.5594  -21.4040  -58.7825 O.2       22 UNK        -0.5000 
    124 C124        2.3746  -20.0358  -56.3818 C.3       23 UNK        -0.0398 
    125 S125        1.6318  -20.1726  -54.7219 S.3       23 UNK        -0.2404 
    126 C126        2.4073  -18.7549  -53.8911 C.3       23 UNK        -0.0205 
    127 H127       -6.5633  -15.9623  -48.5869 H         1 UNK         0.0600 
    128 H128       -6.2067  -14.8289  -49.8916 H         1 UNK         0.0600 
    129 H129       -6.8088  -14.2300  -48.3420 H         1 UNK         0.0600 
    130 H130       -4.0591  -14.3180  -50.1046 H         1 UNK         0.3000 
    131 H131       -1.9162  -14.2171  -49.8837 H         1 UNK         0.0600 
    132 H132       -1.6172  -15.5025  -47.1548 H         1 UNK         0.0800 
    133 H133       -2.3367  -16.4627  -48.3942 H         1 UNK         0.0800 
    134 H134       -1.0186  -18.1647  -49.3345 H         1 UNK         0.0800 
    135 H135       -1.1311  -17.1309  -50.7368 H         1 UNK         0.0800 
    136 H136        0.3777  -17.5414  -52.5275 H         1 UNK         0.1150 
    137 H137        3.8009  -20.0512  -51.9566 H         1 UNK         0.1150 
    138 H138        1.3968  -18.9013  -48.5921 H         1 UNK         0.1150 
    139 H139        4.5818  -20.5392  -49.7668 H         1 UNK         0.0800 
    140 H140        3.8800  -19.7665  -48.3766 H         1 UNK         0.0800 
    141 H141        2.0509  -20.4942  -47.0686 H         1 UNK         0.0800 
    142 H142        3.0487  -21.7697  -46.4387 H         1 UNK         0.0800 
    143 H143        1.1679  -23.4194  -47.0130 H         1 UNK         0.0600 
    144 H144        1.3700  -21.7076  -44.7806 H         1 UNK         0.3000 
    145 H145       -1.2922  -23.0830  -42.8299 H         1 UNK         0.0600 
    146 H146        0.5930  -23.2838  -41.2362 H         1 UNK         0.0600 
    147 H147        0.7042  -24.5318  -42.4685 H         1 UNK         0.0600 
    148 H148        1.7591  -23.1264  -42.5469 H         1 UNK         0.0600 
    149 H149        0.5266  -20.9567  -42.3044 H         1 UNK         0.3000 
    150 H150       -1.4440  -18.3299  -43.7881 H         1 UNK         0.0600 
    151 H151       -2.3142  -18.6431  -41.4902 H         1 UNK         0.0600 
    152 H152       -1.0614  -17.4095  -41.5048 H         1 UNK         0.0600 
    153 H153       -0.7040  -19.0251  -40.8980 H         1 UNK         0.0600 
    154 H154        1.0934  -18.2429  -42.5178 H         1 UNK         0.3000 
    155 H155        3.0858  -18.9709  -45.4122 H         1 UNK         0.0600 
    156 H156        2.6108  -16.5614  -45.5898 H         1 UNK         0.0600 
    157 H157        2.6400  -16.3904  -43.8361 H         1 UNK         0.0600 
    158 H158        4.1115  -16.8130  -44.7132 H         1 UNK         0.0600 
    159 H159        3.6412  -18.3511  -42.6435 H         1 UNK         0.3000 
    160 H160        3.8313  -21.7437  -41.5516 H         1 UNK         0.0600 
    161 H161        6.0059  -19.6341  -42.0372 H         1 UNK         0.0600 
    162 H162        6.0266  -21.2822  -42.6536 H         1 UNK         0.0600 
    163 H163        6.1106  -20.9971  -40.9227 H         1 UNK         0.0600 
    164 H164        4.3267  -19.2399  -40.2518 H         1 UNK         0.3000 
    165 H165        0.9963  -18.6044  -39.1764 H         1 UNK         0.0600 
    166 H166        2.0555  -18.6946  -36.9416 H         1 UNK         0.0600 
    167 H167        1.8304  -20.3213  -37.5633 H         1 UNK         0.0600 
    168 H168        3.4298  -19.5885  -37.5929 H         1 UNK         0.0600 
    169 H169        3.4107  -17.2826  -38.5481 H         1 UNK         0.3000 
    170 H170        3.8217  -15.2500  -39.3113 H         1 UNK         0.0600 
    171 H171        4.4097  -15.7487  -42.2809 H         1 UNK         0.0600 
    172 H172        5.3409  -14.7246  -41.1917 H         1 UNK         0.0600 
    173 H173        5.2957  -16.4612  -40.9385 H         1 UNK         0.0600 
    174 H174        2.8873  -13.9240  -41.6926 H         1 UNK         0.3000 
    175 H175        0.0026  -12.4747  -40.3695 H         1 UNK         0.0600 
    176 H176        1.1453  -10.2699  -40.4223 H         1 UNK         0.0600 
    177 H177        2.7186  -11.0572  -40.2923 H         1 UNK         0.0600 
    178 H178        1.5686  -11.1518  -38.9642 H         1 UNK         0.0600 
    179 H179        1.9292  -11.8188  -42.4779 H         1 UNK         0.3000 
    180 H180        1.1937  -11.8677  -44.5960 H         1 UNK         0.0600 
    181 H181        0.8672  -14.9037  -44.8724 H         1 UNK         0.0600 
    182 H182        2.3668  -14.0510  -44.5059 H         1 UNK         0.0600 
    183 H183        1.6026  -13.8432  -46.0738 H         1 UNK         0.0600 
    184 H184       -1.0176  -13.5151  -45.5875 H         1 UNK         0.3000 
    185 H185       -3.4592  -11.8126  -45.3619 H         1 UNK         0.0600 
    186 H186       -3.1523   -9.5088  -46.1571 H         1 UNK         0.0600 
    187 H187       -2.2783  -10.0607  -47.5782 H         1 UNK         0.0600 
    188 H188       -3.9909  -10.4357  -47.3887 H         1 UNK         0.0600 
    189 H189       -3.4733  -13.4885  -46.7985 H         1 UNK         0.3000 
    190 H190       -0.4738  -20.2899  -46.3325 H         1 UNK         0.3000 
    191 H191       -2.0400  -20.1604  -48.6760 H         1 UNK         0.0600 
    192 H192       -1.6690  -18.2830  -47.0107 H         1 UNK         0.0600 
    193 H193       -3.3631  -18.5080  -47.4400 H         1 UNK         0.0600 
    194 H194       -2.7607  -19.0858  -45.8955 H         1 UNK         0.0600 
    195 H195       -2.7923  -21.6509  -45.4866 H         1 UNK         0.3000 
    196 H196       -5.3941  -22.5562  -46.1079 H         1 UNK         0.0600 
    197 H197       -5.0812  -24.0568  -44.1504 H         1 UNK         0.0600 
    198 H198       -4.4978  -22.4368  -43.7991 H         1 UNK         0.0600 
    199 H199       -3.3538  -23.7301  -44.1479 H         1 UNK         0.0600 
    200 H200       -2.2263  -24.2100  -46.5085 H         1 UNK         0.3000 
    201 H201       -3.2085  -26.6324  -47.6202 H         1 UNK         0.0600 
    202 H202       -0.9089  -26.3671  -46.7253 H         1 UNK         0.0600 
    203 H203       -0.5081  -25.2374  -48.0163 H         1 UNK         0.0600 
    204 H204       -0.8552  -26.9200  -48.3927 H         1 UNK         0.0600 
    205 H205       -2.5452  -23.4894  -49.0965 H         1 UNK         0.3000 
    206 H206       -3.1299  -24.3594  -51.8298 H         1 UNK         0.0600 
    207 H207       -1.4217  -22.6154  -51.3857 H         1 UNK         0.0600 
    208 H208       -2.7338  -21.9510  -52.3420 H         1 UNK         0.0600 
    209 H209       -2.6296  -21.5907  -50.6233 H         1 UNK         0.0600 
    210 H210       -5.1837  -24.3725  -49.4281 H         1 UNK         0.3000 
    211 H211       -7.3626  -24.2875  -49.1444 H         1 UNK         0.0600 
    212 H212       -7.5772  -23.9432  -52.1821 H         1 UNK         0.0600 
    213 H213       -8.8729  -24.4375  -51.1025 H         1 UNK         0.0600 
    214 H214       -7.4737  -25.4756  -51.3206 H         1 UNK         0.0600 
    215 H215       -6.1238  -22.0768  -48.4271 H         1 UNK         0.3000 
    216 H216       -6.3837  -20.0199  -47.6753 H         1 UNK         0.0600 
    217 H217       -8.5259  -18.8351  -47.6588 H         1 UNK         0.0600 
    218 H218       -8.8030  -20.5208  -47.2505 H         1 UNK         0.0600 
    219 H219       -9.2069  -19.9205  -48.8588 H         1 UNK         0.0600 
    220 H220       -4.9517  -20.5132  -49.8378 H         1 UNK         0.3000 
    221 H221       -3.8292  -19.7025  -51.5645 H         1 UNK         0.0600 
    222 H222       -4.9409  -16.9554  -50.8073 H         1 UNK         0.0600 
    223 H223       -3.5754  -17.7396  -50.0164 H         1 UNK         0.0600 
    224 H224       -3.4687  -17.2820  -51.7094 H         1 UNK         0.0600 
    225 H225       -6.5076  -20.7021  -52.1269 H         1 UNK         0.3000 
    226 H226       -7.5390  -19.1654  -54.4008 H         1 UNK         0.0600 
    227 H227       -9.0916  -20.4375  -52.9343 H         1 UNK         0.0600 
    228 H228       -9.1404  -21.0564  -54.5788 H         1 UNK         0.0600 
    229 H229       -8.2669  -21.9428  -53.3351 H         1 UNK         0.0600 
    230 H230       -5.4353  -21.9747  -53.8024 H         1 UNK         0.3000 
    231 H231       -5.1861  -22.7529  -56.5943 H         1 UNK         0.0600 
    232 H232       -3.4556  -23.4374  -54.1586 H         1 UNK         0.0600 
    233 H233       -3.4121  -24.2432  -55.7199 H         1 UNK         0.0600 
    234 H234       -4.8470  -24.3681  -54.7104 H         1 UNK         0.0600 
    235 H235       -3.7596  -21.9729  -58.0769 H         1 UNK         0.3000 
    236 H236       -2.1643  -19.6060  -57.4959 H         1 UNK         0.0600 
    237 H237       -3.4449  -19.8280  -59.6225 H         1 UNK         0.0600 
    238 H238       -1.7252  -19.6879  -59.9474 H         1 UNK         0.0600 
    239 H239       -2.5102  -21.2586  -60.0591 H         1 UNK         0.0600 
    240 H240        0.0631  -19.4502  -57.4965 H         1 UNK         0.3000 
    241 H241        1.6088  -21.9134  -57.0553 H         1 UNK         0.0600 
    242 H242        0.9073  -20.2189  -59.9199 H         1 UNK         0.3800 
    243 H243        2.3731  -20.6349  -60.7676 H         1 UNK         0.3800 
    244 H244        2.3937  -18.9878  -56.6856 H         1 UNK         0.0800 
    245 H245        3.4158  -20.3529  -56.2997 H         1 UNK         0.0800 
    246 H246        2.0376  -17.8271  -54.3305 H         1 UNK         0.0800 
    247 H247        3.4847  -18.7732  -54.0639 H         1 UNK         0.0800 
@<TRIPOS>BOND
     1    1    2 1    
     2    1  127 1    
     3    1  128 1    
     4    1  129 1    
     5    2    3 2    
     6    2    4 am   BACKBONE|DICT|INTERRES
     7    4    5 1    
     8    4  130 1    
     9    5    6 1    
    10    5   65 1    
    11    5  131 1    
    12    6    7 1    
    13    6  132 1    
    14    6  133 1    
    15    7    8 1    
    16    8    9 1    
    17    8  134 1    
    18    8  135 1    
    19    9   10 ar   
    20    9   14 ar   
    21   10   11 ar   
    22   10  136 1    
    23   11   12 ar   
    24   11  126 1    
    25   12   13 ar   
    26   12  137 1    
    27   13   14 ar   
    28   13   15 1    
    29   14  138 1    
    30   15   16 1    
    31   15  139 1    
    32   15  140 1    
    33   16   17 1    
    34   17   18 1    
    35   17  141 1    
    36   17  142 1    
    37   18   19 1    
    38   18   67 1    
    39   18  143 1    
    40   19   20 am   BACKBONE|DICT|INTERRES
    41   19  144 1    
    42   20   21 2    
    43   20   22 1    
    44   22   23 1    
    45   22   24 1    
    46   22  145 1    
    47   23  146 1    
    48   23  147 1    
    49   23  148 1    
    50   24   25 am   BACKBONE|DICT|INTERRES
    51   24  149 1    
    52   25   26 2    
    53   25   27 1    
    54   27   28 1    
    55   27   29 1    
    56   27  150 1    
    57   28  151 1    
    58   28  152 1    
    59   28  153 1    
    60   29   30 am   BACKBONE|DICT|INTERRES
    61   29  154 1    
    62   30   31 2    
    63   30   32 1    
    64   32   33 1    
    65   32   34 1    
    66   32  155 1    
    67   33  156 1    
    68   33  157 1    
    69   33  158 1    
    70   34   35 am   BACKBONE|DICT|INTERRES
    71   34  159 1    
    72   35   36 2    
    73   35   37 1    
    74   37   38 1    
    75   37   39 1    
    76   37  160 1    
    77   38  161 1    
    78   38  162 1    
    79   38  163 1    
    80   39   40 am   BACKBONE|DICT|INTERRES
    81   39  164 1    
    82   40   41 2    
    83   40   42 1    
    84   42   43 1    
    85   42   44 1    
    86   42  165 1    
    87   43  166 1    
    88   43  167 1    
    89   43  168 1    
    90   44   45 am   BACKBONE|DICT|INTERRES
    91   44  169 1    
    92   45   46 2    
    93   45   47 1    
    94   47   48 1    
    95   47   49 1    
    96   47  170 1    
    97   48  171 1    
    98   48  172 1    
    99   48  173 1    
   100   49   50 am   BACKBONE|DICT|INTERRES
   101   49  174 1    
   102   50   51 2    
   103   50   52 1    
   104   52   53 1    
   105   52   54 1    
   106   52  175 1    
   107   53  176 1    
   108   53  177 1    
   109   53  178 1    
   110   54   55 am   BACKBONE|DICT|INTERRES
   111   54  179 1    
   112   55   56 2    
   113   55   57 1    
   114   57   58 1    
   115   57   59 1    
   116   57  180 1    
   117   58  181 1    
   118   58  182 1    
   119   58  183 1    
   120   59   60 am   BACKBONE|DICT|INTERRES
   121   59  184 1    
   122   60   61 2    
   123   60   62 1    
   124   62   63 1    
   125   62   64 1    
   126   62  185 1    
   127   63  186 1    
   128   63  187 1    
   129   63  188 1    
   130   64   65 am   BACKBONE|DICT|INTERRES
   131   64  189 1    
   132   65   66 2    
   133   67   68 2    
   134   67   69 am   BACKBONE|DICT|INTERRES
   135   69   70 1    
   136   69  190 1    
   137   70   71 1    
   138   70   72 1    
   139   70  191 1    
   140   71  192 1    
   141   71  193 1    
   142   71  194 1    
   143   72   73 2    
   144   72   74 am   BACKBONE|DICT|INTERRES
   145   74   75 1    
   146   74  195 1    
   147   75   76 1    
   148   75   77 1    
   149   75  196 1    
   150   76  197 1    
   151   76  198 1    
   152   76  199 1    
   153   77   78 2    
   154   77   79 am   BACKBONE|DICT|INTERRES
   155   79   80 1    
   156   79  200 1    
   157   80   81 1    
   158   80   82 1    
   159   80  201 1    
   160   81  202 1    
   161   81  203 1    
   162   81  204 1    
   163   82   83 2    
   164   82   84 am   BACKBONE|DICT|INTERRES
   165   84   85 1    
   166   84  205 1    
   167   85   86 1    
   168   85   87 1    
   169   85  206 1    
   170   86  207 1    
   171   86  208 1    
   172   86  209 1    
   173   87   88 2    
   174   87   89 am   BACKBONE|DICT|INTERRES
   175   89   90 1    
   176   89  210 1    
   177   90   91 1    
   178   90   92 1    
   179   90  211 1    
   180   91  212 1    
   181   91  213 1    
   182   91  214 1    
   183   92   93 2    
   184   92   94 am   BACKBONE|DICT|INTERRES
   185   94   95 1    
   186   94  215 1    
   187   95   96 1    
   188   95   97 1    
   189   95  216 1    
   190   96  217 1    
   191   96  218 1    
   192   96  219 1    
   193   97   98 2    
   194   97   99 am   BACKBONE|DICT|INTERRES
   195   99  100 1    
   196   99  220 1    
   197  100  101 1    
   198  100  102 1    
   199  100  221 1    
   200  101  222 1    
   201  101  223 1    
   202  101  224 1    
   203  102  103 2    
   204  102  104 am   BACKBONE|DICT|INTERRES
   205  104  105 1    
   206  104  225 1    
   207  105  106 1    
   208  105  107 1    
   209  105  226 1    
   210  106  227 1    
   211  106  228 1    
   212  106  229 1    
   213  107  108 2    
   214  107  109 am   BACKBONE|DICT|INTERRES
   215  109  110 1    
   216  109  230 1    
   217  110  111 1    
   218  110  112 1    
   219  110  231 1    
   220  111  232 1    
   221  111  233 1    
   222  111  234 1    
   223  112  113 2    
   224  112  114 am   BACKBONE|DICT|INTERRES
   225  114  115 1    
   226  114  235 1    
   227  115  116 1    
   228  115  117 1    
   229  115  236 1    
   230  116  237 1    
   231  116  238 1    
   232  116  239 1    
   233  117  118 2    
   234  117  119 am   BACKBONE|DICT|INTERRES
   235  119  120 1    
   236  119  240 1    
   237  120  121 1    
   238  120  124 1    
   239  120  241 1    
   240  121  122 am   BACKBONE|DICT|INTERRES
   241  121  123 2    
   242  122  242 1    
   243  122  243 1    
   244  124  125 1    
   245  124  244 1    
   246  124  245 1    
   247  125  126 1    
   248  126  246 1    
   249  126  247 1    
@<TRIPOS>SUBSTRUCTURE
     1 UNK         1 GROUP             0       ****    0 ROOT    
