@<TRIPOS>MOLECULE
3R540
247   249    1
SMALL
USER_CHARGES


@<TRIPOS>ATOM
      1 CA          3.0434  -18.5195  -49.1228 C.3       0 UNK        -0.1800 
      2 C           1.9176  -17.5325  -48.8477 C.2       0 UNK         0.5000 
      3 O           1.2924  -17.5920  -47.7904 O.2       0 UNK        -0.5000 
      4 N           1.6407  -16.6409  -49.8076 N.am      1 UNK        -0.5000 
      5 CA          0.5896  -15.6234  -49.7324 C.3       1 UNK         0.1400 
      6 C6          0.3071  -15.0199  -51.1348 C.3       23 UNK        -0.0398 
      7 S7         -0.9273  -13.6708  -51.1692 S.3       23 UNK        -0.2404 
      8 C8         -2.4548  -14.5449  -51.6531 C.3       23 UNK        -0.0205 
      9 C9         -3.0154  -15.4783  -50.5826 C.ar      23 UNK        -0.0193 
     10 C10        -3.6397  -16.6683  -50.9707 C.ar      23 UNK        -0.1150 
     11 C11        -4.1854  -17.5289  -50.0148 C.ar      23 UNK        -0.0193 
     12 C12        -4.1028  -17.1953  -48.6613 C.ar      23 UNK        -0.1150 
     13 C13        -3.4822  -16.0122  -48.2543 C.ar      23 UNK        -0.0193 
     14 C14        -2.9537  -15.1527  -49.2211 C.ar      23 UNK        -0.1150 
     15 C15        -3.4015  -15.6457  -46.7785 C.3       23 UNK        -0.0205 
     16 S16        -2.1760  -16.6515  -45.8779 S.3       23 UNK        -0.2404 
     17 C17        -3.1602  -18.1201  -45.4068 C.3       23 UNK        -0.0398 
     18 CA         -2.5663  -19.4350  -45.9658 C.3       11 UNK         0.1400 
     19 N          -1.2500  -19.7444  -45.3962 N.am      11 UNK        -0.5000 
     20 C          -0.4138  -20.6634  -45.8977 C.2       10 UNK         0.5000 
     21 O          -0.6772  -21.3498  -46.8842 O.2       10 UNK        -0.5000 
     22 CA          0.9082  -20.9052  -45.1495 C.3       10 UNK         0.1400 
     23 CB          1.9358  -19.8108  -45.4647 C.3       10 UNK        -0.1800 
     24 N           0.7467  -21.0218  -43.7014 N.am      10 UNK        -0.5000 
     25 C           0.0792  -22.0087  -43.0881 C.2       9 UNK         0.5000 
     26 O          -0.5640  -22.8701  -43.6860 O.2       9 UNK        -0.5000 
     27 CA          0.1387  -22.0379  -41.5533 C.3       9 UNK         0.1400 
     28 CB          1.5005  -22.5636  -41.0725 C.3       9 UNK        -0.1800 
     29 N          -0.0878  -20.7060  -41.0006 N.am      9 UNK        -0.5000 
     30 C          -1.2820  -20.2424  -40.6090 C.2       8 UNK         0.5000 
     31 O          -2.3075  -20.9228  -40.5868 O.2       8 UNK        -0.5000 
     32 CA         -1.3541  -18.7612  -40.1846 C.3       8 UNK         0.1400 
     33 CB         -1.1839  -18.6291  -38.6637 C.3       8 UNK        -0.1800 
     34 N          -0.3705  -17.9032  -40.8490 N.am      8 UNK        -0.5000 
     35 C          -0.2955  -17.7041  -42.1722 C.2       7 UNK         0.5000 
     36 O          -1.0485  -18.2311  -42.9871 O.2       7 UNK        -0.5000 
     37 CA          0.8565  -16.8195  -42.6759 C.3       7 UNK         0.1400 
     38 CB          0.4278  -15.3462  -42.6561 C.3       7 UNK        -0.1800 
     39 N           2.1082  -16.9890  -41.9279 N.am      7 UNK        -0.5000 
     40 C           2.7499  -18.1559  -41.7428 C.2       6 UNK         0.5000 
     41 O           2.3120  -19.2364  -42.1401 O.2       6 UNK        -0.5000 
     42 CA          4.0917  -18.1402  -40.9882 C.3       6 UNK         0.1400 
     43 CB          5.2256  -18.6563  -41.8891 C.3       6 UNK        -0.1800 
     44 N           4.4440  -16.8125  -40.4848 N.am      6 UNK        -0.5000 
     45 C           4.1036  -16.3428  -39.2762 C.2       5 UNK         0.5000 
     46 O           3.4640  -16.9944  -38.4499 O.2       5 UNK        -0.5000 
     47 CA          4.5348  -14.9032  -38.9263 C.3       5 UNK         0.1400 
     48 CB          5.8097  -14.9189  -38.0692 C.3       5 UNK        -0.1800 
     49 N           4.7614  -14.0518  -40.0963 N.am      5 UNK        -0.5000 
     50 C           3.8080  -13.6519  -40.9475 C.2       4 UNK         0.5000 
     51 O           2.6207  -13.9498  -40.8171 O.2       4 UNK        -0.5000 
     52 CA          4.2435  -12.8135  -42.1686 C.3       4 UNK         0.1400 
     53 CB          5.7274  -12.3833  -42.1432 C.3       4 UNK        -0.1800 
     54 N           3.9405  -13.4906  -43.4336 N.am      4 UNK        -0.5000 
     55 C           4.3111  -14.7201  -43.8134 C.2       3 UNK         0.5000 
     56 O           4.9677  -15.4723  -43.0912 O.2       3 UNK        -0.5000 
     57 CA          3.8955  -15.1841  -45.2329 C.3       3 UNK         0.1400 
     58 CB          4.1731  -16.6828  -45.4515 C.3       3 UNK        -0.1800 
     59 N           2.4989  -14.9248  -45.6066 N.am      3 UNK        -0.5000 
     60 C           1.9200  -13.7344  -45.8193 C.2       2 UNK         0.5000 
     61 O           2.4887  -12.6546  -45.6464 O.2       2 UNK        -0.5000 
     62 CA          0.4653  -13.7773  -46.3340 C.3       2 UNK         0.1400 
     63 CB         -0.1182  -12.3805  -46.6286 C.3       2 UNK        -0.1800 
     64 N           0.3077  -14.6502  -47.5014 N.am      2 UNK        -0.5000 
     65 C           0.9630  -14.5679  -48.6702 C.2       1 UNK         0.5000 
     66 O           1.8373  -13.7373  -48.9262 O.2       1 UNK        -0.5000 
     67 C          -3.5516  -20.6068  -45.7745 C.2       11 UNK         0.5000 
     68 O          -4.3580  -20.8677  -46.6674 O.2       11 UNK        -0.5000 
     69 N          -3.4390  -21.3249  -44.6456 N.am      12 UNK        -0.5000 
     70 CA         -4.2153  -22.5327  -44.3463 C.3       12 UNK         0.1400 
     71 CB         -4.0414  -22.9031  -42.8663 C.3       12 UNK        -0.1800 
     72 C          -3.8484  -23.7194  -45.2598 C.2       12 UNK         0.5000 
     73 O          -4.7177  -24.5267  -45.5873 O.2       12 UNK        -0.5000 
     74 N          -2.5845  -23.7690  -45.7013 N.am      13 UNK        -0.5000 
     75 CA         -2.0605  -24.6978  -46.7055 C.3       13 UNK         0.1400 
     76 CB         -0.5479  -24.8637  -46.4791 C.3       13 UNK        -0.1800 
     77 C          -2.3707  -24.2682  -48.1592 C.2       13 UNK         0.5000 
     78 O          -1.8520  -24.8857  -49.0895 O.2       13 UNK        -0.5000 
     79 N          -3.2028  -23.2297  -48.3302 N.am      14 UNK        -0.5000 
     80 CA         -3.6615  -22.6306  -49.5860 C.3       14 UNK         0.1400 
     81 CB         -4.4037  -23.6481  -50.4769 C.3       14 UNK        -0.1800 
     82 C          -2.5775  -21.8287  -50.3347 C.2       14 UNK         0.5000 
     83 O          -2.7136  -21.5949  -51.5375 O.2       14 UNK        -0.5000 
     84 N          -1.5570  -21.3600  -49.6007 N.am      15 UNK        -0.5000 
     85 CA         -0.4853  -20.4682  -50.0472 C.3       15 UNK         0.1400 
     86 CB         -1.0712  -19.0642  -50.3215 C.3       15 UNK        -0.1800 
     87 C           0.3291  -21.0422  -51.2273 C.2       15 UNK         0.5000 
     88 O           0.4561  -22.2612  -51.3602 O.2       15 UNK        -0.5000 
     89 N           0.8666  -20.1513  -52.0693 N.am      16 UNK        -0.5000 
     90 CA          1.5029  -20.4922  -53.3421 C.3       16 UNK         0.1400 
     91 CB          2.4365  -19.3401  -53.7459 C.3       16 UNK        -0.1800 
     92 C           0.4713  -20.7719  -54.4558 C.2       16 UNK         0.5000 
     93 O           0.8375  -21.3334  -55.4886 O.2       16 UNK        -0.5000 
     94 N          -0.7882  -20.3623  -54.2380 N.am      17 UNK        -0.5000 
     95 CA         -1.9051  -20.5381  -55.1638 C.3       17 UNK         0.1400 
     96 CB         -3.0795  -19.6634  -54.7033 C.3       17 UNK        -0.1800 
     97 C          -2.3354  -22.0091  -55.2966 C.2       17 UNK         0.5000 
     98 O          -2.6226  -22.4530  -56.4103 O.2       17 UNK        -0.5000 
     99 N          -2.3605  -22.7278  -54.1639 N.am      18 UNK        -0.5000 
    100 CA        -2.6196  -24.1598  -53.9651 C.3       18 UNK         0.1400 
    101 CB        -1.5421  -25.0152  -54.6578 C.3       18 UNK        -0.1800 
    102 C         -4.0374  -24.6265  -54.3519 C.2       18 UNK         0.5000 
    103 O         -4.7192  -25.2462  -53.5355 O.2       18 UNK        -0.5000 
    104 N         -4.4433  -24.3314  -55.5881 N.am      19 UNK        -0.5000 
    105 CA        -5.7528  -24.6239  -56.1643 C.3       19 UNK         0.1400 
    106 CB        -5.6482  -25.8822  -57.0416 C.3       19 UNK        -0.1800 
    107 C         -6.3061  -23.4339  -56.9699 C.2       19 UNK         0.5000 
    108 O         -7.5040  -23.4176  -57.2557 O.2       19 UNK        -0.5000 
    109 N         -5.4556  -22.4534  -57.3184 N.am      20 UNK        -0.5000 
    110 CA        -5.8474  -21.2340  -58.0342 C.3       20 UNK         0.1400 
    111 CB        -4.5869  -20.5557  -58.5931 C.3       20 UNK        -0.1800 
    112 C         -6.6514  -20.2494  -57.1602 C.2       20 UNK         0.5000 
    113 O         -7.3888  -19.4211  -57.6959 O.2       20 UNK        -0.5000 
    114 N         -6.5036  -20.3679  -55.8377 N.am      21 UNK        -0.5000 
    115 CA        -7.2271  -19.6391  -54.8070 C.3       21 UNK         0.1400 
    116 CB        -6.5964  -18.2522  -54.5843 C.3       21 UNK        -0.1800 
    117 C         -7.1752  -20.4834  -53.5273 C.2       21 UNK         0.5000 
    118 O         -6.2995  -21.3445  -53.4007 O.2       21 UNK        -0.5000 
    119 N         -8.1077  -20.2126  -52.6073 N.am      22 UNK        -0.5000 
    120 CA        -8.2323  -20.8563  -51.2850 C.3       22 UNK         0.1400 
    121 C         -8.6513  -22.3598  -51.3203 C.2       22 UNK         0.5000 
    122 N         -9.1679  -22.8779  -52.4280 N.am      22 UNK        -0.7600 
    123 O         -8.5430  -23.0632  -50.3195 O.2       22 UNK        -0.5000 
    124 C124       -7.0019  -20.6095  -50.3672 C.3       23 UNK        -0.0398 
    125 S125       -6.6233  -18.8382  -50.1346 S.3       23 UNK        -0.2404 
    126 C126       -4.8290  -18.8419  -50.4257 C.3       23 UNK        -0.0205 
    127 H127        3.8265  -18.4207  -48.3721 H         1 UNK         0.0600 
    128 H128        3.4910  -18.3615  -50.1043 H         1 UNK         0.0600 
    129 H129        2.6635  -19.5402  -49.0851 H         1 UNK         0.0600 
    130 H130        2.2260  -16.6051  -50.6296 H         1 UNK         0.3000 
    131 H131       -0.3241  -16.1242  -49.4065 H         1 UNK         0.0600 
    132 H132       -0.0142  -15.8085  -51.8164 H         1 UNK         0.0800 
    133 H133        1.2301  -14.6206  -51.5586 H         1 UNK         0.0800 
    134 H134       -2.2674  -15.0906  -52.5793 H         1 UNK         0.0800 
    135 H135       -3.2174  -13.8006  -51.8853 H         1 UNK         0.0800 
    136 H136       -3.7010  -16.9270  -52.0186 H         1 UNK         0.1150 
    137 H137       -4.5297  -17.8657  -47.9313 H         1 UNK         0.1150 
    138 H138       -2.4925  -14.2263  -48.9098 H         1 UNK         0.1150 
    139 H139       -3.1220  -14.5966  -46.6697 H         1 UNK         0.0800 
    140 H140       -4.3851  -15.7383  -46.3163 H         1 UNK         0.0800 
    141 H141       -4.1887  -17.9887  -45.7429 H         1 UNK         0.0800 
    142 H142       -3.2237  -18.1596  -44.3191 H         1 UNK         0.0800 
    143 H143       -2.4363  -19.3081  -47.0432 H         1 UNK         0.0600 
    144 H144       -0.9948  -19.2265  -44.5584 H         1 UNK         0.3000 
    145 H145        1.3160  -21.8536  -45.5056 H         1 UNK         0.0600 
    146 H146        2.8699  -19.9729  -44.9266 H         1 UNK         0.0600 
    147 H147        1.5637  -18.8209  -45.2027 H         1 UNK         0.0600 
    148 H148        2.1726  -19.8023  -46.5282 H         1 UNK         0.0600 
    149 H149        1.2654  -20.3548  -43.1349 H         1 UNK         0.3000 
    150 H150       -0.6296  -22.7286  -41.1992 H         1 UNK         0.0600 
    151 H151        1.6954  -23.5605  -41.4699 H         1 UNK         0.0600 
    152 H152        1.5313  -22.6354  -39.9853 H         1 UNK         0.0600 
    153 H153        2.3213  -21.9182  -41.3877 H         1 UNK         0.0600 
    154 H154        0.6930  -20.0629  -41.0434 H         1 UNK         0.3000 
    155 H155       -2.3469  -18.3940  -40.4525 H         1 UNK         0.0600 
    156 H156       -1.9171  -19.2387  -38.1338 H         1 UNK         0.0600 
    157 H157       -1.3248  -17.5982  -38.3384 H         1 UNK         0.0600 
    158 H158       -0.1932  -18.9517  -38.3407 H         1 UNK         0.0600 
    159 H159        0.3067  -17.4444  -40.2573 H         1 UNK         0.3000 
    160 H160        1.0570  -17.0973  -43.7114 H         1 UNK         0.0600 
    161 H161        1.2054  -14.6986  -43.0571 H         1 UNK         0.0600 
    162 H162       -0.4690  -15.1928  -43.2578 H         1 UNK         0.0600 
    163 H163        0.2042  -15.0073  -41.6439 H         1 UNK         0.0600 
    164 H164        2.5222  -16.1475  -41.5480 H         1 UNK         0.3000 
    165 H165        3.9953  -18.8342  -40.1508 H         1 UNK         0.0600 
    166 H166        6.1783  -18.6627  -41.3596 H         1 UNK         0.0600 
    167 H167        5.0303  -19.6785  -42.2158 H         1 UNK         0.0600 
    168 H168        5.3437  -18.0470  -42.7849 H         1 UNK         0.0600 
    169 H169        4.9160  -16.2008  -41.1430 H         1 UNK         0.3000 
    170 H170        3.7319  -14.4571  -38.3357 H         1 UNK         0.0600 
    171 H171        6.6561  -15.3375  -38.6152 H         1 UNK         0.0600 
    172 H172        6.0811  -13.9136  -37.7462 H         1 UNK         0.0600 
    173 H173        5.6692  -15.5204  -37.1700 H         1 UNK         0.0600 
    174 H174        5.7173  -13.7876  -40.2857 H         1 UNK         0.3000 
    175 H175        3.6351  -11.9083  -42.1478 H         1 UNK         0.0600 
    176 H176        6.4058  -13.2360  -42.1900 H         1 UNK         0.0600 
    177 H177        5.9566  -11.7376  -42.9911 H         1 UNK         0.0600 
    178 H178        5.9602  -11.8161  -41.2410 H         1 UNK         0.0600 
    179 H179        3.3906  -12.9576  -44.1041 H         1 UNK         0.3000 
    180 H180        4.5251  -14.6287  -45.9305 H         1 UNK         0.0600 
    181 H181        3.9300  -16.9844  -46.4691 H         1 UNK         0.0600 
    182 H182        3.5891  -17.3014  -44.7693 H         1 UNK         0.0600 
    183 H183        5.2257  -16.9187  -45.2906 H         1 UNK         0.0600 
    184 H184        1.9494  -15.7468  -45.8145 H         1 UNK         0.3000 
    185 H185       -0.1312  -14.2184  -45.5349 H         1 UNK         0.0600 
    186 H186       -1.1571  -12.4489  -46.9513 H         1 UNK         0.0600 
    187 H187       -0.0959  -11.7518  -45.7377 H         1 UNK         0.0600 
    188 H188        0.4411  -11.8635  -47.4091 H         1 UNK         0.0600 
    189 H189       -0.3343  -15.4224  -47.3759 H         1 UNK         0.3000 
    190 H190       -2.7294  -21.0644  -43.9760 H         1 UNK         0.3000 
    191 H191       -5.2697  -22.3039  -44.5146 H         1 UNK         0.0600 
    192 H192       -4.3677  -22.0913  -42.2160 H         1 UNK         0.0600 
    193 H193       -3.0033  -23.1291  -42.6227 H         1 UNK         0.0600 
    194 H194       -4.6357  -23.7815  -42.6117 H         1 UNK         0.0600 
    195 H195       -1.9203  -23.0996  -45.3295 H         1 UNK         0.3000 
    196 H196       -2.5292  -25.6724  -46.5557 H         1 UNK         0.0600 
    197 H197       -0.3352  -25.1873  -45.4600 H         1 UNK         0.0600 
    198 H198       -0.0099  -23.9316  -46.6518 H         1 UNK         0.0600 
    199 H199       -0.1282  -25.6138  -47.1501 H         1 UNK         0.0600 
    200 H200       -3.5506  -22.7719  -47.4973 H         1 UNK         0.3000 
    201 H201       -4.4009  -21.8914  -49.2805 H         1 UNK         0.0600 
    202 H202       -5.2232  -24.1202  -49.9353 H         1 UNK         0.0600 
    203 H203       -3.7432  -24.4355  -50.8375 H         1 UNK         0.0600 
    204 H204       -4.8367  -23.1644  -51.3538 H         1 UNK         0.0600 
    205 H205       -1.4972  -21.6241  -48.6216 H         1 UNK         0.3000 
    206 H206        0.2142  -20.3803  -49.2154 H         1 UNK         0.0600 
    207 H207       -1.8051  -19.0786  -51.1273 H         1 UNK         0.0600 
    208 H208       -1.5612  -18.6724  -49.4302 H         1 UNK         0.0600 
    209 H209       -0.3070  -18.3421  -50.5968 H         1 UNK         0.0600 
    210 H210        0.7371  -19.1682  -51.8835 H         1 UNK         0.3000 
    211 H211        2.1061  -21.3934  -53.2132 H         1 UNK         0.0600 
    212 H212        1.8877  -18.4097  -53.8976 H         1 UNK         0.0600 
    213 H213        2.9585  -19.5682  -54.6761 H         1 UNK         0.0600 
    214 H214        3.1961  -19.1626  -52.9842 H         1 UNK         0.0600 
    215 H215       -1.0051  -19.9378  -53.3497 H         1 UNK         0.3000 
    216 H216       -1.5864  -20.1911  -56.1491 H         1 UNK         0.0600 
    217 H217       -3.8906  -19.6987  -55.4283 H         1 UNK         0.0600 
    218 H218       -2.7829  -18.6191  -54.6047 H         1 UNK         0.0600 
    219 H219       -3.4807  -19.9912  -53.7429 H         1 UNK         0.0600 
    220 H220       -2.2190  -22.2183  -53.2948 H         1 UNK         0.3000 
    221 H221       -2.5179  -24.3235  -52.8917 H         1 UNK         0.0600 
    222 H222       -1.5572  -24.8957  -55.7414 H         1 UNK         0.0600 
    223 H223       -0.5453  -24.7483  -54.3063 H         1 UNK         0.0600 
    224 H224       -1.6897  -26.0745  -54.4442 H         1 UNK         0.0600 
    225 H225       -3.7897  -23.8042  -56.1607 H         1 UNK         0.3000 
    226 H226       -6.4707  -24.8153  -55.3639 H         1 UNK         0.0600 
    227 H227       -5.3238  -26.7432  -56.4569 H         1 UNK         0.0600 
    228 H228       -6.6132  -26.1345  -57.4830 H         1 UNK         0.0600 
    229 H229       -4.9378  -25.7438  -57.8575 H         1 UNK         0.0600 
    230 H230       -4.4772  -22.5182  -57.0635 H         1 UNK         0.3000 
    231 H231       -6.4815  -21.5181  -58.8767 H         1 UNK         0.0600 
    232 H232       -4.8439  -19.6617  -59.1625 H         1 UNK         0.0600 
    233 H233       -4.0452  -21.2228  -59.2639 H         1 UNK         0.0600 
    234 H234       -3.9036  -20.2536  -57.7994 H         1 UNK         0.0600 
    235 H235       -5.9208  -21.1093  -55.4688 H         1 UNK         0.3000 
    236 H236       -8.2696  -19.5279  -55.1124 H         1 UNK         0.0600 
    237 H237       -5.5733  -18.3277  -54.2163 H         1 UNK         0.0600 
    238 H238       -6.5803  -17.6686  -55.5047 H         1 UNK         0.0600 
    239 H239       -7.1630  -17.6807  -53.8483 H         1 UNK         0.0600 
    240 H240       -8.7873  -19.4909  -52.8004 H         1 UNK         0.3000 
    241 H241       -9.0793  -20.3602  -50.8101 H         1 UNK         0.0600 
    242 H242       -9.2785  -22.3152  -53.2557 H         1 UNK         0.3800 
    243 H243       -9.4471  -23.8462  -52.4376 H         1 UNK         0.3800 
    244 H244       -6.1303  -21.1235  -50.7718 H         1 UNK         0.0800 
    245 H245       -7.1686  -21.0338  -49.3757 H         1 UNK         0.0800 
    246 H246       -4.6274  -19.0735  -51.4732 H         1 UNK         0.0800 
    247 H247       -4.3747  -19.6347  -49.8343 H         1 UNK         0.0800 
@<TRIPOS>BOND
     1    1    2 1    
     2    1  127 1    
     3    1  128 1    
     4    1  129 1    
     5    2    3 2    
     6    2    4 am   BACKBONE|DICT|INTERRES
     7    4    5 1    
     8    4  130 1    
     9    5    6 1    
    10    5   65 1    
    11    5  131 1    
    12    6    7 1    
    13    6  132 1    
    14    6  133 1    
    15    7    8 1    
    16    8    9 1    
    17    8  134 1    
    18    8  135 1    
    19    9   10 ar   
    20    9   14 ar   
    21   10   11 ar   
    22   10  136 1    
    23   11   12 ar   
    24   11  126 1    
    25   12   13 ar   
    26   12  137 1    
    27   13   14 ar   
    28   13   15 1    
    29   14  138 1    
    30   15   16 1    
    31   15  139 1    
    32   15  140 1    
    33   16   17 1    
    34   17   18 1    
    35   17  141 1    
    36   17  142 1    
    37   18   19 1    
    38   18   67 1    
    39   18  143 1    
    40   19   20 am   BACKBONE|DICT|INTERRES
    41   19  144 1    
    42   20   21 2    
    43   20   22 1    
    44   22   23 1    
    45   22   24 1    
    46   22  145 1    
    47   23  146 1    
    48   23  147 1    
    49   23  148 1    
    50   24   25 am   BACKBONE|DICT|INTERRES
    51   24  149 1    
    52   25   26 2    
    53   25   27 1    
    54   27   28 1    
    55   27   29 1    
    56   27  150 1    
    57   28  151 1    
    58   28  152 1    
    59   28  153 1    
    60   29   30 am   BACKBONE|DICT|INTERRES
    61   29  154 1    
    62   30   31 2    
    63   30   32 1    
    64   32   33 1    
    65   32   34 1    
    66   32  155 1    
    67   33  156 1    
    68   33  157 1    
    69   33  158 1    
    70   34   35 am   BACKBONE|DICT|INTERRES
    71   34  159 1    
    72   35   36 2    
    73   35   37 1    
    74   37   38 1    
    75   37   39 1    
    76   37  160 1    
    77   38  161 1    
    78   38  162 1    
    79   38  163 1    
    80   39   40 am   BACKBONE|DICT|INTERRES
    81   39  164 1    
    82   40   41 2    
    83   40   42 1    
    84   42   43 1    
    85   42   44 1    
    86   42  165 1    
    87   43  166 1    
    88   43  167 1    
    89   43  168 1    
    90   44   45 am   BACKBONE|DICT|INTERRES
    91   44  169 1    
    92   45   46 2    
    93   45   47 1    
    94   47   48 1    
    95   47   49 1    
    96   47  170 1    
    97   48  171 1    
    98   48  172 1    
    99   48  173 1    
   100   49   50 am   BACKBONE|DICT|INTERRES
   101   49  174 1    
   102   50   51 2    
   103   50   52 1    
   104   52   53 1    
   105   52   54 1    
   106   52  175 1    
   107   53  176 1    
   108   53  177 1    
   109   53  178 1    
   110   54   55 am   BACKBONE|DICT|INTERRES
   111   54  179 1    
   112   55   56 2    
   113   55   57 1    
   114   57   58 1    
   115   57   59 1    
   116   57  180 1    
   117   58  181 1    
   118   58  182 1    
   119   58  183 1    
   120   59   60 am   BACKBONE|DICT|INTERRES
   121   59  184 1    
   122   60   61 2    
   123   60   62 1    
   124   62   63 1    
   125   62   64 1    
   126   62  185 1    
   127   63  186 1    
   128   63  187 1    
   129   63  188 1    
   130   64   65 am   BACKBONE|DICT|INTERRES
   131   64  189 1    
   132   65   66 2    
   133   67   68 2    
   134   67   69 am   BACKBONE|DICT|INTERRES
   135   69   70 1    
   136   69  190 1    
   137   70   71 1    
   138   70   72 1    
   139   70  191 1    
   140   71  192 1    
   141   71  193 1    
   142   71  194 1    
   143   72   73 2    
   144   72   74 am   BACKBONE|DICT|INTERRES
   145   74   75 1    
   146   74  195 1    
   147   75   76 1    
   148   75   77 1    
   149   75  196 1    
   150   76  197 1    
   151   76  198 1    
   152   76  199 1    
   153   77   78 2    
   154   77   79 am   BACKBONE|DICT|INTERRES
   155   79   80 1    
   156   79  200 1    
   157   80   81 1    
   158   80   82 1    
   159   80  201 1    
   160   81  202 1    
   161   81  203 1    
   162   81  204 1    
   163   82   83 2    
   164   82   84 am   BACKBONE|DICT|INTERRES
   165   84   85 1    
   166   84  205 1    
   167   85   86 1    
   168   85   87 1    
   169   85  206 1    
   170   86  207 1    
   171   86  208 1    
   172   86  209 1    
   173   87   88 2    
   174   87   89 am   BACKBONE|DICT|INTERRES
   175   89   90 1    
   176   89  210 1    
   177   90   91 1    
   178   90   92 1    
   179   90  211 1    
   180   91  212 1    
   181   91  213 1    
   182   91  214 1    
   183   92   93 2    
   184   92   94 am   BACKBONE|DICT|INTERRES
   185   94   95 1    
   186   94  215 1    
   187   95   96 1    
   188   95   97 1    
   189   95  216 1    
   190   96  217 1    
   191   96  218 1    
   192   96  219 1    
   193   97   98 2    
   194   97   99 am   BACKBONE|DICT|INTERRES
   195   99  100 1    
   196   99  220 1    
   197  100  101 1    
   198  100  102 1    
   199  100  221 1    
   200  101  222 1    
   201  101  223 1    
   202  101  224 1    
   203  102  103 2    
   204  102  104 am   BACKBONE|DICT|INTERRES
   205  104  105 1    
   206  104  225 1    
   207  105  106 1    
   208  105  107 1    
   209  105  226 1    
   210  106  227 1    
   211  106  228 1    
   212  106  229 1    
   213  107  108 2    
   214  107  109 am   BACKBONE|DICT|INTERRES
   215  109  110 1    
   216  109  230 1    
   217  110  111 1    
   218  110  112 1    
   219  110  231 1    
   220  111  232 1    
   221  111  233 1    
   222  111  234 1    
   223  112  113 2    
   224  112  114 am   BACKBONE|DICT|INTERRES
   225  114  115 1    
   226  114  235 1    
   227  115  116 1    
   228  115  117 1    
   229  115  236 1    
   230  116  237 1    
   231  116  238 1    
   232  116  239 1    
   233  117  118 2    
   234  117  119 am   BACKBONE|DICT|INTERRES
   235  119  120 1    
   236  119  240 1    
   237  120  121 1    
   238  120  124 1    
   239  120  241 1    
   240  121  122 am   BACKBONE|DICT|INTERRES
   241  121  123 2    
   242  122  242 1    
   243  122  243 1    
   244  124  125 1    
   245  124  244 1    
   246  124  245 1    
   247  125  126 1    
   248  126  246 1    
   249  126  247 1    
@<TRIPOS>SUBSTRUCTURE
     1 UNK         1 GROUP             0       ****    0 ROOT    
