@<TRIPOS>MOLECULE
3R540
247   249    1
SMALL
USER_CHARGES


@<TRIPOS>ATOM
      1 CA         -3.9422   -8.6344  -47.7572 C.3       0 UNK        -0.1800 
      2 C          -3.0583   -9.5510  -48.5911 C.2       0 UNK         0.5000 
      3 O          -2.0816   -9.0888  -49.1813 O.2       0 UNK        -0.5000 
      4 N          -3.4004  -10.8438  -48.6465 N.am      1 UNK        -0.5000 
      5 CA         -2.6465  -11.8876  -49.3473 C.3       1 UNK         0.1400 
      6 C6         -3.4159  -13.2254  -49.3961 C.3       23 UNK        -0.0398 
      7 S7         -5.0177  -13.1262  -50.2622 S.3       23 UNK        -0.2404 
      8 C8         -5.8067  -14.6651  -49.6825 C.3       23 UNK        -0.0205 
      9 C9         -4.9440  -15.8816  -49.9839 C.ar      23 UNK        -0.0193 
     10 C10        -4.9168  -16.4212  -51.2710 C.ar      23 UNK        -0.1150 
     11 C11        -4.0762  -17.4956  -51.5733 C.ar      23 UNK        -0.0193 
     12 C12        -3.2625  -18.0355  -50.5702 C.ar      23 UNK        -0.1150 
     13 C13        -3.2764  -17.4985  -49.2787 C.ar      23 UNK        -0.0193 
     14 C14        -4.1338  -16.4349  -48.9886 C.ar      23 UNK        -0.1150 
     15 C15        -2.3308  -18.0150  -48.2041 C.3       23 UNK        -0.0205 
     16 S16        -3.0481  -19.3913  -47.2583 S.3       23 UNK        -0.2404 
     17 C17        -2.6771  -20.7956  -48.3576 C.3       23 UNK        -0.0398 
     18 CA         -2.1464  -22.0704  -47.6633 C.3       11 UNK         0.1400 
     19 N          -0.9004  -21.8784  -46.9101 N.am      11 UNK        -0.5000 
     20 C          -0.1303  -22.9048  -46.5150 C.2       10 UNK         0.5000 
     21 O          -0.3967  -24.0840  -46.7495 O.2       10 UNK        -0.5000 
     22 CA          1.1232  -22.5806  -45.6871 C.3       10 UNK         0.1400 
     23 CB          2.2377  -22.0125  -46.5793 C.3       10 UNK        -0.1800 
     24 N           0.8589  -21.6827  -44.5626 N.am      10 UNK        -0.5000 
     25 C           0.0262  -21.9565  -43.5471 C.2       9 UNK         0.5000 
     26 O          -0.6309  -22.9929  -43.4626 O.2       9 UNK        -0.5000 
     27 CA         -0.1222  -20.8870  -42.4508 C.3       9 UNK         0.1400 
     28 CB          1.0382  -20.9651  -41.4479 C.3       9 UNK        -0.1800 
     29 N          -0.2125  -19.5360  -42.9992 N.am      9 UNK        -0.5000 
     30 C          -1.2287  -19.0962  -43.7537 C.2       8 UNK         0.5000 
     31 O          -2.2355  -19.7628  -43.9930 O.2       8 UNK        -0.5000 
     32 CA         -1.0725  -17.6954  -44.3761 C.3       8 UNK         0.1400 
     33 CB         -1.4544  -16.5977  -43.3724 C.3       8 UNK        -0.1800 
     34 N           0.2795  -17.4485  -44.8814 N.am      8 UNK        -0.5000 
     35 C           0.8688  -18.1542  -45.8590 C.2       7 UNK         0.5000 
     36 O           0.3202  -19.0643  -46.4811 O.2       7 UNK        -0.5000 
     37 CA          2.3455  -17.8279  -46.1400 C.3       7 UNK         0.1400 
     38 CB          2.4827  -16.5723  -47.0097 C.3       7 UNK        -0.1800 
     39 N           3.1067  -17.6454  -44.9050 N.am      7 UNK        -0.5000 
     40 C           3.4153  -18.6351  -44.0559 C.2       6 UNK         0.5000 
     41 O           3.1192  -19.8137  -44.2434 O.2       6 UNK        -0.5000 
     42 CA          4.1402  -18.2318  -42.7594 C.3       6 UNK         0.1400 
     43 CB          5.6545  -18.1299  -42.9944 C.3       6 UNK        -0.1800 
     44 N           3.6478  -16.9675  -42.2106 N.am      6 UNK        -0.5000 
     45 C           2.4082  -16.7786  -41.7360 C.2       5 UNK         0.5000 
     46 O           1.5568  -17.6644  -41.6806 O.2       5 UNK        -0.5000 
     47 CA          2.0472  -15.3514  -41.2880 C.3       5 UNK         0.1400 
     48 CB          2.3843  -15.1510  -39.8032 C.3       5 UNK        -0.1800 
     49 N           2.7148  -14.3170  -42.0825 N.am      5 UNK        -0.5000 
     50 C           2.4746  -14.0852  -43.3792 C.2       4 UNK         0.5000 
     51 O           1.6698  -14.7308  -44.0562 O.2       4 UNK        -0.5000 
     52 CA          3.2987  -12.9728  -44.0365 C.3       4 UNK         0.1400 
     53 CB          4.4095  -13.5630  -44.9213 C.3       4 UNK        -0.1800 
     54 N           2.4129  -12.1457  -44.8465 N.am      4 UNK        -0.5000 
     55 C           2.5187  -10.8191  -44.9967 C.2       3 UNK         0.5000 
     56 O           3.4087  -10.1442  -44.4749 O.2       3 UNK        -0.5000 
     57 CA          1.4430  -10.1410  -45.8729 C.3       3 UNK         0.1400 
     58 CB          1.8124   -8.7037  -46.2959 C.3       3 UNK        -0.1800 
     59 N           1.0703  -10.9510  -47.0358 N.am      3 UNK        -0.5000 
     60 C           1.8445  -11.3391  -48.0572 C.2       2 UNK         0.5000 
     61 O           3.0202  -10.9992  -48.1934 O.2       2 UNK        -0.5000 
     62 CA          1.2148  -12.2777  -49.1097 C.3       2 UNK         0.1400 
     63 CB          1.4298  -13.7469  -48.7083 C.3       2 UNK        -0.1800 
     64 N          -0.1974  -12.0344  -49.4473 N.am      2 UNK        -0.5000 
     65 C          -1.2832  -12.1159  -48.6664 C.2       1 UNK         0.5000 
     66 O          -1.2530  -12.3665  -47.4588 O.2       1 UNK        -0.5000 
     67 C          -3.2390  -22.7768  -46.8366 C.2       11 UNK         0.5000 
     68 O          -3.9608  -23.6063  -47.3910 O.2       11 UNK        -0.5000 
     69 N          -3.3153  -22.4765  -45.5315 N.am      12 UNK        -0.5000 
     70 CA         -4.2350  -23.1193  -44.5929 C.3       12 UNK         0.1400 
     71 CB         -4.2371  -22.3511  -43.2630 C.3       12 UNK        -0.1800 
     72 C          -3.9085  -24.6069  -44.3671 C.2       12 UNK         0.5000 
     73 O          -4.8252  -25.4284  -44.3345 O.2       12 UNK        -0.5000 
     74 N          -2.6138  -24.9269  -44.2324 N.am      13 UNK        -0.5000 
     75 CA         -2.1071  -26.2892  -44.0721 C.3       13 UNK         0.1400 
     76 CB         -0.6333  -26.2430  -43.6403 C.3       13 UNK        -0.1800 
     77 C          -2.2725  -27.1364  -45.3453 C.2       13 UNK         0.5000 
     78 O          -2.6617  -28.3012  -45.2494 O.2       13 UNK        -0.5000 
     79 N          -1.9768  -26.5410  -46.5093 N.am      14 UNK        -0.5000 
     80 CA         -2.1099  -27.1806  -47.8177 C.3       14 UNK         0.1400 
     81 CB         -1.3944  -26.3305  -48.8750 C.3       14 UNK        -0.1800 
     82 C          -3.5762  -27.4077  -48.2205 C.2       14 UNK         0.5000 
     83 O          -3.9069  -28.4863  -48.7150 O.2       14 UNK        -0.5000 
     84 N          -4.4164  -26.3839  -48.0083 N.am      15 UNK        -0.5000 
     85 CA         -5.8534  -26.2837  -48.2879 C.3       15 UNK         0.1400 
     86 CB         -6.6557  -27.3233  -47.4837 C.3       15 UNK        -0.1800 
     87 C          -6.2249  -26.3216  -49.7841 C.2       15 UNK         0.5000 
     88 O          -6.9814  -25.4603  -50.2349 O.2       15 UNK        -0.5000 
     89 N          -5.6908  -27.3038  -50.5219 N.am      16 UNK        -0.5000 
     90 CA         -5.9133  -27.5783  -51.9424 C.3       16 UNK         0.1400 
     91 CB         -5.0438  -28.7761  -52.3569 C.3       16 UNK        -0.1800 
     92 C          -5.6320  -26.3529  -52.8305 C.2       16 UNK         0.5000 
     93 O          -4.4706  -25.9775  -53.0084 O.2       16 UNK        -0.5000 
     94 N          -6.7137  -25.7176  -53.3066 N.am      17 UNK        -0.5000 
     95 CA         -6.7520  -24.4848  -54.1070 C.3       17 UNK         0.1400 
     96 CB         -6.1805  -24.7500  -55.5155 C.3       17 UNK        -0.1800 
     97 C          -6.0844  -23.2646  -53.4292 C.2       17 UNK         0.5000 
     98 O          -5.7409  -22.3032  -54.1178 O.2       17 UNK        -0.5000 
     99 N          -5.8935  -23.3358  -52.1013 N.am      18 UNK        -0.5000 
    100 CA        -5.0993  -22.4274  -51.2683 C.3       18 UNK         0.1400 
    101 CB        -5.7901  -21.0526  -51.1458 C.3       18 UNK        -0.1800 
    102 C         -3.6121  -22.3399  -51.6919 C.2       18 UNK         0.5000 
    103 O         -2.9684  -21.3190  -51.4516 O.2       18 UNK        -0.5000 
    104 N         -3.0799  -23.4207  -52.2865 N.am      19 UNK        -0.5000 
    105 CA        -1.7055  -23.5648  -52.7771 C.3       19 UNK         0.1400 
    106 CB        -0.7269  -23.6942  -51.5870 C.3       19 UNK        -0.1800 
    107 C         -1.3214  -22.4631  -53.7926 C.2       19 UNK         0.5000 
    108 O         -2.0740  -22.2257  -54.7392 O.2       19 UNK        -0.5000 
    109 N         -0.1613  -21.8272  -53.5905 N.am      20 UNK        -0.5000 
    110 CA         0.3519  -20.7187  -54.3961 C.3       20 UNK         0.1400 
    111 CB         1.2983  -21.2692  -55.4787 C.3       20 UNK        -0.1800 
    112 C          1.0294  -19.6496  -53.5155 C.2       20 UNK         0.5000 
    113 O          1.7745  -18.8166  -54.0322 O.2       20 UNK        -0.5000 
    114 N          0.7567  -19.6661  -52.2024 N.am      21 UNK        -0.5000 
    115 CA         1.3169  -18.7513  -51.1996 C.3       21 UNK         0.1400 
    116 CB         1.4036  -19.4999  -49.8556 C.3       21 UNK        -0.1800 
    117 C          0.5104  -17.4369  -51.0928 C.2       21 UNK         0.5000 
    118 O          0.3205  -16.9142  -49.9962 O.2       21 UNK        -0.5000 
    119 N          0.0094  -16.9506  -52.2312 N.am      22 UNK        -0.5000 
    120 CA        -1.0185  -15.9016  -52.3256 C.3       22 UNK         0.1400 
    121 C         -0.4630  -14.4489  -52.3135 C.2       22 UNK         0.5000 
    122 N          0.8440  -14.2398  -52.4146 N.am      22 UNK        -0.7600 
    123 O         -1.2272  -13.4946  -52.2019 O.2       22 UNK        -0.5000 
    124 C124       -1.9624  -16.1363  -53.5408 C.3       23 UNK        -0.0398 
    125 S125       -2.4176  -17.8952  -53.7952 S.3       23 UNK        -0.2404 
    126 C126       -4.0442  -18.0495  -52.9915 C.3       23 UNK        -0.0205 
    127 H127       -3.3582   -8.1740  -46.9603 H         1 UNK         0.0600 
    128 H128       -4.7722   -9.1753  -47.3018 H         1 UNK         0.0600 
    129 H129       -4.3548   -7.8415  -48.3811 H         1 UNK         0.0600 
    130 H130       -4.2113  -11.1638  -48.1372 H         1 UNK         0.3000 
    131 H131       -2.4791  -11.5512  -50.3730 H         1 UNK         0.0600 
    132 H132       -2.8147  -13.9828  -49.9034 H         1 UNK         0.0800 
    133 H133       -3.5905  -13.5957  -48.3841 H         1 UNK         0.0800 
    134 H134       -6.7783  -14.7734  -50.1667 H         1 UNK         0.0800 
    135 H135       -6.0044  -14.5902  -48.6121 H         1 UNK         0.0800 
    136 H136       -5.5354  -15.9849  -52.0427 H         1 UNK         0.1150 
    137 H137       -2.5938  -18.8498  -50.8081 H         1 UNK         0.1150 
    138 H138       -4.1417  -16.0129  -47.9936 H         1 UNK         0.1150 
    139 H139       -1.3814  -18.3205  -48.6418 H         1 UNK         0.0800 
    140 H140       -2.0840  -17.2053  -47.5169 H         1 UNK         0.0800 
    141 H141       -3.5884  -21.0226  -48.9097 H         1 UNK         0.0800 
    142 H142       -1.9502  -20.4860  -49.1079 H         1 UNK         0.0800 
    143 H143       -1.9046  -22.7615  -48.4746 H         1 UNK         0.0600 
    144 H144       -0.6320  -20.9257  -46.6804 H         1 UNK         0.3000 
    145 H145        1.4850  -23.5212  -45.2666 H         1 UNK         0.0600 
    146 H146        3.1633  -21.8814  -46.0192 H         1 UNK         0.0600 
    147 H147        2.4548  -22.6875  -47.4081 H         1 UNK         0.0600 
    148 H148        1.9652  -21.0489  -47.0080 H         1 UNK         0.0600 
    149 H149        1.3979  -20.8236  -44.5356 H         1 UNK         0.3000 
    150 H150       -1.0488  -21.0919  -41.9105 H         1 UNK         0.0600 
    151 H151        1.1092  -21.9617  -41.0105 H         1 UNK         0.0600 
    152 H152        0.8989  -20.2591  -40.6291 H         1 UNK         0.0600 
    153 H153        1.9958  -20.7443  -41.9196 H         1 UNK         0.0600 
    154 H154        0.5489  -18.9005  -42.7800 H         1 UNK         0.3000 
    155 H155       -1.7596  -17.6298  -45.2196 H         1 UNK         0.0600 
    156 H156       -0.8126  -16.6137  -42.4919 H         1 UNK         0.0600 
    157 H157       -2.4822  -16.7251  -43.0307 H         1 UNK         0.0600 
    158 H158       -1.3803  -15.6076  -43.8230 H         1 UNK         0.0600 
    159 H159        0.8007  -16.6987  -44.4429 H         1 UNK         0.3000 
    160 H160        2.7764  -18.6685  -46.6878 H         1 UNK         0.0600 
    161 H161        2.0925  -15.6891  -46.5051 H         1 UNK         0.0600 
    162 H162        1.9322  -16.6833  -47.9431 H         1 UNK         0.0600 
    163 H163        3.5240  -16.3803  -47.2678 H         1 UNK         0.0600 
    164 H164        3.3466  -16.6983  -44.6542 H         1 UNK         0.3000 
    165 H165        3.9603  -19.0151  -42.0200 H         1 UNK         0.0600 
    166 H166        6.1845  -17.9204  -42.0651 H         1 UNK         0.0600 
    167 H167        6.0513  -19.0662  -43.3894 H         1 UNK         0.0600 
    168 H168        5.9011  -17.3420  -43.7072 H         1 UNK         0.0600 
    169 H169        4.2870  -16.1867  -42.2130 H         1 UNK         0.3000 
    170 H170        0.9693  -15.2289  -41.4119 H         1 UNK         0.0600 
    171 H171        1.8821  -15.8967  -39.1853 H         1 UNK         0.0600 
    172 H172        3.4555  -15.2376  -39.6167 H         1 UNK         0.0600 
    173 H173        2.0601  -14.1705  -39.4538 H         1 UNK         0.0600 
    174 H174        3.3918  -13.7455  -41.5973 H         1 UNK         0.3000 
    175 H175        3.7554  -12.3690  -43.2492 H         1 UNK         0.0600 
    176 H176        4.0001  -14.1561  -45.7397 H         1 UNK         0.0600 
    177 H177        5.0225  -12.7744  -45.3582 H         1 UNK         0.0600 
    178 H178        5.0723  -14.2081  -44.3434 H         1 UNK         0.0600 
    179 H179        1.6355  -12.6356  -45.2695 H         1 UNK         0.3000 
    180 H180        0.5481  -10.0771  -45.2525 H         1 UNK         0.0600 
    181 H181        2.7396   -8.6735  -46.8687 H         1 UNK         0.0600 
    182 H182        1.9469   -8.0626  -45.4240 H         1 UNK         0.0600 
    183 H183        1.0262   -8.2589  -46.9062 H         1 UNK         0.0600 
    184 H184        0.1286  -11.3397  -47.0214 H         1 UNK         0.3000 
    185 H185        1.7668  -12.1107  -50.0358 H         1 UNK         0.0600 
    186 H186        2.4857  -13.9531  -48.5293 H         1 UNK         0.0600 
    187 H187        0.8865  -14.0042  -47.7989 H         1 UNK         0.0600 
    188 H188        1.0977  -14.4209  -49.4964 H         1 UNK         0.0600 
    189 H189       -0.3555  -11.8107  -50.4209 H         1 UNK         0.3000 
    190 H190       -2.7004  -21.7655  -45.1545 H         1 UNK         0.3000 
    191 H191       -5.2398  -23.0616  -45.0168 H         1 UNK         0.0600 
    192 H192       -3.2488  -22.3375  -42.8027 H         1 UNK         0.0600 
    193 H193       -4.9264  -22.8050  -42.5500 H         1 UNK         0.0600 
    194 H194       -4.5518  -21.3173  -43.4070 H         1 UNK         0.0600 
    195 H195       -1.9224  -24.1817  -44.2066 H         1 UNK         0.3000 
    196 H196       -2.6777  -26.7704  -43.2750 H         1 UNK         0.0600 
    197 H197       -0.2304  -27.2484  -43.5126 H         1 UNK         0.0600 
    198 H198       -0.5186  -25.7234  -42.6889 H         1 UNK         0.0600 
    199 H199       -0.0138  -25.7302  -44.3773 H         1 UNK         0.0600 
    200 H200       -1.6033  -25.5959  -46.4991 H         1 UNK         0.3000 
    201 H201       -1.6183  -28.1548  -47.7748 H         1 UNK         0.0600 
    202 H202       -0.3308  -26.2383  -48.6546 H         1 UNK         0.0600 
    203 H203       -1.8143  -25.3253  -48.9220 H         1 UNK         0.0600 
    204 H204       -1.4859  -26.7766  -49.8663 H         1 UNK         0.0600 
    205 H205       -4.0212  -25.5236  -47.6383 H         1 UNK         0.3000 
    206 H206       -6.1480  -25.2988  -47.9222 H         1 UNK         0.0600 
    207 H207       -6.4460  -27.2391  -46.4171 H         1 UNK         0.0600 
    208 H208       -7.7278  -27.1745  -47.6175 H         1 UNK         0.0600 
    209 H209       -6.4284  -28.3445  -47.7903 H         1 UNK         0.0600 
    210 H210       -5.0543  -27.9323  -50.0376 H         1 UNK         0.3000 
    211 H211       -6.9596  -27.8660  -52.0618 H         1 UNK         0.0600 
    212 H212       -3.9830  -28.5780  -52.1969 H         1 UNK         0.0600 
    213 H213       -5.1795  -29.0115  -53.4132 H         1 UNK         0.0600 
    214 H214       -5.3056  -29.6687  -51.7883 H         1 UNK         0.0600 
    215 H215       -7.6206  -26.0810  -53.0466 H         1 UNK         0.3000 
    216 H216       -7.8058  -24.2264  -54.2196 H         1 UNK         0.0600 
    217 H217       -6.3375  -23.8934  -56.1720 H         1 UNK         0.0600 
    218 H218       -6.6650  -25.6068  -55.9835 H         1 UNK         0.0600 
    219 H219       -5.1080  -24.9455  -55.4853 H         1 UNK         0.0600 
    220 H220       -6.2549  -24.1542  -51.6210 H         1 UNK         0.3000 
    221 H221       -5.0873  -22.8712  -50.2716 H         1 UNK         0.0600 
    222 H222       -5.8879  -20.5594  -52.1116 H         1 UNK         0.0600 
    223 H223       -6.7903  -21.1562  -50.7256 H         1 UNK         0.0600 
    224 H224       -5.2362  -20.3796  -50.4911 H         1 UNK         0.0600 
    225 H225       -3.6879  -24.2102  -52.4830 H         1 UNK         0.3000 
    226 H226       -1.6790  -24.5050  -53.3296 H         1 UNK         0.0600 
    227 H227       -1.0209  -24.5192  -50.9431 H         1 UNK         0.0600 
    228 H228        0.2878  -23.9101  -51.9232 H         1 UNK         0.0600 
    229 H229       -0.6969  -22.7926  -50.9739 H         1 UNK         0.0600 
    230 H230        0.4139  -22.1095  -52.8095 H         1 UNK         0.3000 
    231 H231       -0.4793  -20.2122  -54.8910 H         1 UNK         0.0600 
    232 H232        1.6609  -20.4726  -56.1294 H         1 UNK         0.0600 
    233 H233        0.7904  -21.9957  -56.1132 H         1 UNK         0.0600 
    234 H234        2.1679  -21.7583  -55.0385 H         1 UNK         0.0600 
    235 H235        0.0483  -20.3052  -51.8725 H         1 UNK         0.3000 
    236 H236        2.3326  -18.4773  -51.4917 H         1 UNK         0.0600 
    237 H237        1.9935  -20.4118  -49.9476 H         1 UNK         0.0600 
    238 H238        1.8819  -18.8857  -49.0928 H         1 UNK         0.0600 
    239 H239        0.4177  -19.7765  -49.4814 H         1 UNK         0.0600 
    240 H240        0.2390  -17.4266  -53.0924 H         1 UNK         0.3000 
    241 H241       -1.6351  -15.9682  -51.4286 H         1 UNK         0.0600 
    242 H242        1.2012  -13.2989  -52.4292 H         1 UNK         0.3800 
    243 H243        1.4761  -15.0195  -52.4997 H         1 UNK         0.3800 
    244 H244       -2.8685  -15.5364  -53.4408 H         1 UNK         0.0800 
    245 H245       -1.4794  -15.7995  -54.4596 H         1 UNK         0.0800 
    246 H246       -4.7918  -17.5606  -53.6178 H         1 UNK         0.0800 
    247 H247       -4.3087  -19.1064  -52.9655 H         1 UNK         0.0800 
@<TRIPOS>BOND
     1    1    2 1    
     2    1  127 1    
     3    1  128 1    
     4    1  129 1    
     5    2    3 2    
     6    2    4 am   BACKBONE|DICT|INTERRES
     7    4    5 1    
     8    4  130 1    
     9    5    6 1    
    10    5   65 1    
    11    5  131 1    
    12    6    7 1    
    13    6  132 1    
    14    6  133 1    
    15    7    8 1    
    16    8    9 1    
    17    8  134 1    
    18    8  135 1    
    19    9   10 ar   
    20    9   14 ar   
    21   10   11 ar   
    22   10  136 1    
    23   11   12 ar   
    24   11  126 1    
    25   12   13 ar   
    26   12  137 1    
    27   13   14 ar   
    28   13   15 1    
    29   14  138 1    
    30   15   16 1    
    31   15  139 1    
    32   15  140 1    
    33   16   17 1    
    34   17   18 1    
    35   17  141 1    
    36   17  142 1    
    37   18   19 1    
    38   18   67 1    
    39   18  143 1    
    40   19   20 am   BACKBONE|DICT|INTERRES
    41   19  144 1    
    42   20   21 2    
    43   20   22 1    
    44   22   23 1    
    45   22   24 1    
    46   22  145 1    
    47   23  146 1    
    48   23  147 1    
    49   23  148 1    
    50   24   25 am   BACKBONE|DICT|INTERRES
    51   24  149 1    
    52   25   26 2    
    53   25   27 1    
    54   27   28 1    
    55   27   29 1    
    56   27  150 1    
    57   28  151 1    
    58   28  152 1    
    59   28  153 1    
    60   29   30 am   BACKBONE|DICT|INTERRES
    61   29  154 1    
    62   30   31 2    
    63   30   32 1    
    64   32   33 1    
    65   32   34 1    
    66   32  155 1    
    67   33  156 1    
    68   33  157 1    
    69   33  158 1    
    70   34   35 am   BACKBONE|DICT|INTERRES
    71   34  159 1    
    72   35   36 2    
    73   35   37 1    
    74   37   38 1    
    75   37   39 1    
    76   37  160 1    
    77   38  161 1    
    78   38  162 1    
    79   38  163 1    
    80   39   40 am   BACKBONE|DICT|INTERRES
    81   39  164 1    
    82   40   41 2    
    83   40   42 1    
    84   42   43 1    
    85   42   44 1    
    86   42  165 1    
    87   43  166 1    
    88   43  167 1    
    89   43  168 1    
    90   44   45 am   BACKBONE|DICT|INTERRES
    91   44  169 1    
    92   45   46 2    
    93   45   47 1    
    94   47   48 1    
    95   47   49 1    
    96   47  170 1    
    97   48  171 1    
    98   48  172 1    
    99   48  173 1    
   100   49   50 am   BACKBONE|DICT|INTERRES
   101   49  174 1    
   102   50   51 2    
   103   50   52 1    
   104   52   53 1    
   105   52   54 1    
   106   52  175 1    
   107   53  176 1    
   108   53  177 1    
   109   53  178 1    
   110   54   55 am   BACKBONE|DICT|INTERRES
   111   54  179 1    
   112   55   56 2    
   113   55   57 1    
   114   57   58 1    
   115   57   59 1    
   116   57  180 1    
   117   58  181 1    
   118   58  182 1    
   119   58  183 1    
   120   59   60 am   BACKBONE|DICT|INTERRES
   121   59  184 1    
   122   60   61 2    
   123   60   62 1    
   124   62   63 1    
   125   62   64 1    
   126   62  185 1    
   127   63  186 1    
   128   63  187 1    
   129   63  188 1    
   130   64   65 am   BACKBONE|DICT|INTERRES
   131   64  189 1    
   132   65   66 2    
   133   67   68 2    
   134   67   69 am   BACKBONE|DICT|INTERRES
   135   69   70 1    
   136   69  190 1    
   137   70   71 1    
   138   70   72 1    
   139   70  191 1    
   140   71  192 1    
   141   71  193 1    
   142   71  194 1    
   143   72   73 2    
   144   72   74 am   BACKBONE|DICT|INTERRES
   145   74   75 1    
   146   74  195 1    
   147   75   76 1    
   148   75   77 1    
   149   75  196 1    
   150   76  197 1    
   151   76  198 1    
   152   76  199 1    
   153   77   78 2    
   154   77   79 am   BACKBONE|DICT|INTERRES
   155   79   80 1    
   156   79  200 1    
   157   80   81 1    
   158   80   82 1    
   159   80  201 1    
   160   81  202 1    
   161   81  203 1    
   162   81  204 1    
   163   82   83 2    
   164   82   84 am   BACKBONE|DICT|INTERRES
   165   84   85 1    
   166   84  205 1    
   167   85   86 1    
   168   85   87 1    
   169   85  206 1    
   170   86  207 1    
   171   86  208 1    
   172   86  209 1    
   173   87   88 2    
   174   87   89 am   BACKBONE|DICT|INTERRES
   175   89   90 1    
   176   89  210 1    
   177   90   91 1    
   178   90   92 1    
   179   90  211 1    
   180   91  212 1    
   181   91  213 1    
   182   91  214 1    
   183   92   93 2    
   184   92   94 am   BACKBONE|DICT|INTERRES
   185   94   95 1    
   186   94  215 1    
   187   95   96 1    
   188   95   97 1    
   189   95  216 1    
   190   96  217 1    
   191   96  218 1    
   192   96  219 1    
   193   97   98 2    
   194   97   99 am   BACKBONE|DICT|INTERRES
   195   99  100 1    
   196   99  220 1    
   197  100  101 1    
   198  100  102 1    
   199  100  221 1    
   200  101  222 1    
   201  101  223 1    
   202  101  224 1    
   203  102  103 2    
   204  102  104 am   BACKBONE|DICT|INTERRES
   205  104  105 1    
   206  104  225 1    
   207  105  106 1    
   208  105  107 1    
   209  105  226 1    
   210  106  227 1    
   211  106  228 1    
   212  106  229 1    
   213  107  108 2    
   214  107  109 am   BACKBONE|DICT|INTERRES
   215  109  110 1    
   216  109  230 1    
   217  110  111 1    
   218  110  112 1    
   219  110  231 1    
   220  111  232 1    
   221  111  233 1    
   222  111  234 1    
   223  112  113 2    
   224  112  114 am   BACKBONE|DICT|INTERRES
   225  114  115 1    
   226  114  235 1    
   227  115  116 1    
   228  115  117 1    
   229  115  236 1    
   230  116  237 1    
   231  116  238 1    
   232  116  239 1    
   233  117  118 2    
   234  117  119 am   BACKBONE|DICT|INTERRES
   235  119  120 1    
   236  119  240 1    
   237  120  121 1    
   238  120  124 1    
   239  120  241 1    
   240  121  122 am   BACKBONE|DICT|INTERRES
   241  121  123 2    
   242  122  242 1    
   243  122  243 1    
   244  124  125 1    
   245  124  244 1    
   246  124  245 1    
   247  125  126 1    
   248  126  246 1    
   249  126  247 1    
@<TRIPOS>SUBSTRUCTURE
     1 UNK         1 GROUP             0       ****    0 ROOT    
