@<TRIPOS>MOLECULE
3R540
247   249    1
SMALL
USER_CHARGES


@<TRIPOS>ATOM
      1 CA          3.3024   -9.7495  -50.2252 C.3       0 UNK        -0.1800 
      2 C           3.1911  -10.8915  -49.2254 C.2       0 UNK         0.5000 
      3 O           3.3948  -10.6826  -48.0289 O.2       0 UNK        -0.5000 
      4 N           2.8567  -12.0965  -49.7044 N.am      1 UNK        -0.5000 
      5 CA          2.6880  -13.3202  -48.9101 C.3       1 UNK         0.1400 
      6 C6          2.9854  -14.5824  -49.7659 C.3       23 UNK        -0.0398 
      7 S7          3.6789  -15.9521  -48.7797 S.3       23 UNK        -0.2404 
      8 C8          4.4921  -16.9502  -50.0672 C.3       23 UNK        -0.0205 
      9 C9          3.4984  -17.8256  -50.8167 C.ar      23 UNK        -0.0193 
     10 C10         2.7691  -17.3063  -51.8913 C.ar      23 UNK        -0.1150 
     11 C11         1.8565  -18.1091  -52.5786 C.ar      23 UNK        -0.0193 
     12 C12         1.6976  -19.4427  -52.1976 C.ar      23 UNK        -0.1150 
     13 C13         2.4131  -19.9831  -51.1268 C.ar      23 UNK        -0.0193 
     14 C14         3.3171  -19.1611  -50.4392 C.ar      23 UNK        -0.1150 
     15 C15         2.1656  -21.4540  -50.7818 C.3       23 UNK        -0.0205 
     16 S16         3.0464  -22.1216  -49.3272 S.3       23 UNK        -0.2404 
     17 C17         2.1183  -21.3814  -47.9428 C.3       23 UNK        -0.0398 
     18 CA          1.0661  -22.3505  -47.3414 C.3       11 UNK         0.1400 
     19 N           0.8920  -22.1599  -45.8966 N.am      11 UNK        -0.5000 
     20 C           0.1384  -22.9397  -45.1057 C.2       10 UNK         0.5000 
     21 O          -0.4653  -23.9376  -45.4999 O.2       10 UNK        -0.5000 
     22 CA         -0.0076  -22.5071  -43.6358 C.3       10 UNK         0.1400 
     23 CB          1.2237  -22.9212  -42.8165 C.3       10 UNK        -0.1800 
     24 N          -0.2390  -21.0697  -43.4918 N.am      10 UNK        -0.5000 
     25 C          -1.3142  -20.4227  -43.9648 C.2       9 UNK         0.5000 
     26 O          -2.2520  -20.9783  -44.5344 O.2       9 UNK        -0.5000 
     27 CA         -1.3197  -18.8903  -43.8300 C.3       9 UNK         0.1400 
     28 CB         -1.7026  -18.4722  -42.4041 C.3       9 UNK        -0.1800 
     29 N          -0.0357  -18.2922  -44.1944 N.am      9 UNK        -0.5000 
     30 C           0.5369  -18.3956  -45.4034 C.2       8 UNK         0.5000 
     31 O           0.0230  -18.9702  -46.3628 O.2       8 UNK        -0.5000 
     32 CA          1.9482  -17.8053  -45.5438 C.3       8 UNK         0.1400 
     33 CB          1.8778  -16.2842  -45.7100 C.3       8 UNK        -0.1800 
     34 N           2.7896  -18.1319  -44.3933 N.am      8 UNK        -0.5000 
     35 C           3.2140  -19.3669  -44.0921 C.2       7 UNK         0.5000 
     36 O           2.9645  -20.3617  -44.7717 O.2       7 UNK        -0.5000 
     37 CA          4.0108  -19.5196  -42.7847 C.3       7 UNK         0.1400 
     38 CB          5.4806  -19.1257  -42.9937 C.3       7 UNK        -0.1800 
     39 N           3.4439  -18.7283  -41.6918 N.am      7 UNK        -0.5000 
     40 C           2.2431  -18.9542  -41.1404 C.2       6 UNK         0.5000 
     41 O           1.5003  -19.8764  -41.4748 O.2       6 UNK        -0.5000 
     42 CA          1.7772  -17.9574  -40.0639 C.3       6 UNK         0.1400 
     43 CB          2.2843  -18.3836  -38.6783 C.3       6 UNK        -0.1800 
     44 N           2.1897  -16.5760  -40.3297 N.am      6 UNK        -0.5000 
     45 C           1.7875  -15.8555  -41.3843 C.2       5 UNK         0.5000 
     46 O           1.0694  -16.3008  -42.2835 O.2       5 UNK        -0.5000 
     47 CA          2.2956  -14.4068  -41.4641 C.3       5 UNK         0.1400 
     48 CB          3.3571  -14.2623  -42.5653 C.3       5 UNK        -0.1800 
     49 N           1.1762  -13.5175  -41.7535 N.am      5 UNK        -0.5000 
     50 C           0.3329  -13.0379  -40.8261 C.2       4 UNK         0.5000 
     51 O           0.5141  -13.1537  -39.6133 O.2       4 UNK        -0.5000 
     52 CA         -0.9457  -12.3391  -41.3361 C.3       4 UNK         0.1400 
     53 CB         -0.7154  -10.8277  -41.4856 C.3       4 UNK        -0.1800 
     54 N          -1.3901  -12.8829  -42.6185 N.am      4 UNK        -0.5000 
     55 C          -1.8326  -14.1340  -42.8027 C.2       3 UNK         0.5000 
     56 O          -2.1674  -14.8675  -41.8727 O.2       3 UNK        -0.5000 
     57 CA         -1.8828  -14.6686  -44.2533 C.3       3 UNK         0.1400 
     58 CB         -3.2546  -15.2812  -44.5807 C.3       3 UNK        -0.1800 
     59 N          -1.5409  -13.6885  -45.2937 N.am      3 UNK        -0.5000 
     60 C          -0.3322  -13.1507  -45.5045 C.2       2 UNK         0.5000 
     61 O           0.6441  -13.3530  -44.7795 O.2       2 UNK        -0.5000 
     62 CA         -0.2221  -12.1525  -46.6679 C.3       2 UNK         0.1400 
     63 CB         -0.2943  -10.7106  -46.1424 C.3       2 UNK        -0.1800 
     64 N           1.0275  -12.3270  -47.4022 N.am      2 UNK        -0.5000 
     65 C           1.2958  -13.3415  -48.2328 C.2       1 UNK         0.5000 
     66 O           0.4774  -14.2222  -48.5026 O.2       1 UNK        -0.5000 
     67 C          -0.2760  -22.2598  -48.0970 C.2       11 UNK         0.5000 
     68 O          -0.5603  -23.1108  -48.9405 O.2       11 UNK        -0.5000 
     69 N          -1.0900  -21.2537  -47.7463 N.am      12 UNK        -0.5000 
     70 CA         -2.4306  -21.0551  -48.2856 C.3       12 UNK         0.1400 
     71 CB         -2.9773  -19.6882  -47.8478 C.3       12 UNK        -0.1800 
     72 C          -3.3919  -22.1908  -47.8976 C.2       12 UNK         0.5000 
     73 O          -4.0513  -22.7462  -48.7758 O.2       12 UNK        -0.5000 
     74 N          -3.4351  -22.5400  -46.6040 N.am      13 UNK        -0.5000 
     75 CA         -4.2856  -23.5951  -46.0449 C.3       13 UNK         0.1400 
     76 CB         -4.1521  -23.6081  -44.5156 C.3       13 UNK        -0.1800 
     77 C          -3.9980  -24.9925  -46.6228 C.2       13 UNK         0.5000 
     78 O          -4.9357  -25.7613  -46.8390 O.2       13 UNK        -0.5000 
     79 N          -2.7216  -25.2766  -46.9201 N.am      14 UNK        -0.5000 
     80 CA         -2.2665  -26.4970  -47.5940 C.3       14 UNK         0.1400 
     81 CB         -0.7310  -26.5410  -47.5731 C.3       14 UNK        -0.1800 
     82 C          -2.7935  -26.6492  -49.0375 C.2       14 UNK         0.5000 
     83 O          -2.8183  -27.7667  -49.5541 O.2       14 UNK        -0.5000 
     84 N          -3.2267  -25.5392  -49.6472 N.am      15 UNK        -0.5000 
     85 CA         -3.8586  -25.4668  -50.9620 C.3       15 UNK         0.1400 
     86 CB         -2.9579  -24.6423  -51.8892 C.3       15 UNK        -0.1800 
     87 C          -5.2914  -24.9078  -50.8411 C.2       15 UNK         0.5000 
     88 O          -5.7498  -24.1603  -51.7094 O.2       15 UNK        -0.5000 
     89 N          -5.9676  -25.2845  -49.7446 N.am      16 UNK        -0.5000 
     90 CA         -7.3855  -25.0798  -49.4284 C.3       16 UNK         0.1400 
     91 CB         -8.2678  -25.8301  -50.4481 C.3       16 UNK        -0.1800 
     92 C          -7.8338  -23.6130  -49.2608 C.2       16 UNK         0.5000 
     93 O          -9.0387  -23.3645  -49.2042 O.2       16 UNK        -0.5000 
     94 N          -6.8865  -22.6663  -49.1978 N.am      17 UNK        -0.5000 
     95 CA         -7.0324  -21.2099  -49.0509 C.3       17 UNK         0.1400 
     96 CB         -7.6628  -20.8566  -47.6916 C.3       17 UNK        -0.1800 
     97 C          -7.7505  -20.4797  -50.2083 C.2       17 UNK         0.5000 
     98 O          -7.4634  -19.3051  -50.4370 O.2       17 UNK        -0.5000 
     99 N          -8.6519  -21.1634  -50.9229 N.am      18 UNK        -0.5000 
    100 CA        -9.3648  -20.6600  -52.0953 C.3       18 UNK         0.1400 
    101 CB       -10.5371  -21.5990  -52.4199 C.3       18 UNK        -0.1800 
    102 C         -8.4336  -20.4991  -53.3093 C.2       18 UNK         0.5000 
    103 O         -8.4552  -19.4521  -53.9575 O.2       18 UNK        -0.5000 
    104 N         -7.6212  -21.5309  -53.5786 N.am      19 UNK        -0.5000 
    105 CA        -6.5762  -21.5018  -54.6027 C.3       19 UNK         0.1400 
    106 CB        -6.3467  -22.9206  -55.1462 C.3       19 UNK        -0.1800 
    107 C         -5.2721  -20.9218  -54.0341 C.2       19 UNK         0.5000 
    108 O         -4.5969  -20.1455  -54.7150 O.2       19 UNK        -0.5000 
    109 N         -4.9355  -21.3359  -52.8010 N.am      20 UNK        -0.5000 
    110 CA        -3.8057  -20.8959  -51.9695 C.3       20 UNK         0.1400 
    111 CB        -3.9643  -19.4096  -51.5907 C.3       20 UNK        -0.1800 
    112 C         -2.4043  -21.1699  -52.5570 C.2       20 UNK         0.5000 
    113 O         -1.4151  -20.7280  -51.9772 O.2       20 UNK        -0.5000 
    114 N         -2.3513  -21.8770  -53.6957 N.am      21 UNK        -0.5000 
    115 CA        -1.2059  -22.0499  -54.5936 C.3       21 UNK         0.1400 
    116 CB        -0.0604  -22.8255  -53.9103 C.3       21 UNK        -0.1800 
    117 C         -0.7493  -20.7256  -55.2495 C.2       21 UNK         0.5000 
    118 O          0.3724  -20.6543  -55.7542 O.2       21 UNK        -0.5000 
    119 N         -1.6315  -19.7157  -55.2541 N.am      22 UNK        -0.5000 
    120 CA        -1.4238  -18.3993  -55.8772 C.3       22 UNK         0.1400 
    121 C         -2.3689  -18.1681  -57.0885 C.2       22 UNK         0.5000 
    122 N         -3.5253  -18.8190  -57.1642 N.am      22 UNK        -0.7600 
    123 O         -2.0433  -17.3908  -57.9815 O.2       22 UNK        -0.5000 
    124 C124       -1.5623  -17.2204  -54.8715 C.3       23 UNK        -0.0398 
    125 S125       -0.7247  -17.4410  -53.2632 S.3       23 UNK        -0.2404 
    126 C126        1.0317  -17.5550  -53.7304 C.3       23 UNK        -0.0205 
    127 H127        4.3071   -9.3275  -50.2019 H         1 UNK         0.0600 
    128 H128        2.5940   -8.9603  -49.9732 H         1 UNK         0.0600 
    129 H129        3.0958  -10.0799  -51.2435 H         1 UNK         0.0600 
    130 H130        2.6638  -12.1906  -50.6917 H         1 UNK         0.3000 
    131 H131        3.4250  -13.2873  -48.1042 H         1 UNK         0.0600 
    132 H132        3.7267  -14.3369  -50.5275 H         1 UNK         0.0800 
    133 H133        2.1070  -14.9267  -50.3140 H         1 UNK         0.0800 
    134 H134        5.0304  -16.3056  -50.7635 H         1 UNK         0.0800 
    135 H135        5.2503  -17.5745  -49.5922 H         1 UNK         0.0800 
    136 H136        2.9068  -16.2764  -52.1877 H         1 UNK         0.1150 
    137 H137        0.9920  -20.0583  -52.7360 H         1 UNK         0.1150 
    138 H138        3.8892  -19.5486  -49.6095 H         1 UNK         0.1150 
    139 H139        1.0939  -21.6137  -50.6542 H         1 UNK         0.0800 
    140 H140        2.4594  -22.0536  -51.6442 H         1 UNK         0.0800 
    141 H141        1.6804  -20.4251  -48.2362 H         1 UNK         0.0800 
    142 H142        2.8701  -21.1366  -47.1939 H         1 UNK         0.0800 
    143 H143        1.4322  -23.3729  -47.4591 H         1 UNK         0.0600 
    144 H144        1.3896  -21.3799  -45.4789 H         1 UNK         0.3000 
    145 H145       -0.8760  -23.0248  -43.2236 H         1 UNK         0.0600 
    146 H146        1.4056  -23.9934  -42.8994 H         1 UNK         0.0600 
    147 H147        2.1246  -22.4075  -43.1525 H         1 UNK         0.0600 
    148 H148        1.0862  -22.6954  -41.7590 H         1 UNK         0.0600 
    149 H149        0.4672  -20.5441  -42.9846 H         1 UNK         0.3000 
    150 H150       -2.0724  -18.4952  -44.5153 H         1 UNK         0.0600 
    151 H151       -1.7148  -17.3889  -42.3021 H         1 UNK         0.0600 
    152 H152       -1.0063  -18.8665  -41.6646 H         1 UNK         0.0600 
    153 H153       -2.6975  -18.8362  -42.1454 H         1 UNK         0.0600 
    154 H154        0.4465  -17.7676  -43.4705 H         1 UNK         0.3000 
    155 H155        2.4087  -18.2287  -46.4393 H         1 UNK         0.0600 
    156 H156        1.2959  -16.0183  -46.5925 H         1 UNK         0.0600 
    157 H157        2.8691  -15.8467  -45.8255 H         1 UNK         0.0600 
    158 H158        1.4011  -15.8136  -44.8523 H         1 UNK         0.0600 
    159 H159        2.9925  -17.3798  -43.7526 H         1 UNK         0.3000 
    160 H160        3.9769  -20.5721  -42.4951 H         1 UNK         0.0600 
    161 H161        5.9306  -19.7120  -43.7960 H         1 UNK         0.0600 
    162 H162        6.0682  -19.3048  -42.0931 H         1 UNK         0.0600 
    163 H163        5.5840  -18.0727  -43.2586 H         1 UNK         0.0600 
    164 H164        3.9904  -17.9493  -41.3557 H         1 UNK         0.3000 
    165 H165        0.6857  -17.9796  -40.0473 H         1 UNK         0.0600 
    166 H166        1.8847  -17.7379  -37.8961 H         1 UNK         0.0600 
    167 H167        1.9734  -19.4032  -38.4459 H         1 UNK         0.0600 
    168 H168        3.3728  -18.3506  -38.6188 H         1 UNK         0.0600 
    169 H169        2.7812  -16.1423  -39.6354 H         1 UNK         0.3000 
    170 H170        2.7505  -14.1264  -40.5117 H         1 UNK         0.0600 
    171 H171        3.7475  -13.2452  -42.6012 H         1 UNK         0.0600 
    172 H172        4.2014  -14.9293  -42.3872 H         1 UNK         0.0600 
    173 H173        2.9535  -14.4959  -43.5504 H         1 UNK         0.0600 
    174 H174        0.9325  -13.4232  -42.7342 H         1 UNK         0.3000 
    175 H175       -1.7356  -12.4995  -40.5993 H         1 UNK         0.0600 
    176 H176        0.0572  -10.6090  -42.2240 H         1 UNK         0.0600 
    177 H177       -1.6286  -10.3180  -41.7934 H         1 UNK         0.0600 
    178 H178       -0.4004  -10.3861  -40.5393 H         1 UNK         0.0600 
    179 H179       -1.1408  -12.3534  -43.4399 H         1 UNK         0.3000 
    180 H180       -1.1418  -15.4693  -44.3044 H         1 UNK         0.0600 
    181 H181       -3.2559  -15.7385  -45.5704 H         1 UNK         0.0600 
    182 H182       -4.0454  -14.5308  -44.5535 H         1 UNK         0.0600 
    183 H183       -3.5184  -16.0635  -43.8676 H         1 UNK         0.0600 
    184 H184       -2.2955  -13.4314  -45.9139 H         1 UNK         0.3000 
    185 H185       -1.0534  -12.3123  -47.3579 H         1 UNK         0.0600 
    186 H186        0.5232  -10.4914  -45.4539 H         1 UNK         0.0600 
    187 H187       -0.2451   -9.9905  -46.9596 H         1 UNK         0.0600 
    188 H188       -1.2295  -10.5332  -45.6098 H         1 UNK         0.0600 
    189 H189        1.7562  -11.6399  -47.2434 H         1 UNK         0.3000 
    190 H190       -0.7621  -20.5661  -47.0727 H         1 UNK         0.3000 
    191 H191       -2.3406  -21.0488  -49.3717 H         1 UNK         0.0600 
    192 H192       -3.0559  -19.6105  -46.7633 H         1 UNK         0.0600 
    193 H193       -3.9698  -19.5119  -48.2638 H         1 UNK         0.0600 
    194 H194       -2.3321  -18.8799  -48.1929 H         1 UNK         0.0600 
    195 H195       -2.8754  -22.0148  -45.9349 H         1 UNK         0.3000 
    196 H196       -5.3193  -23.3464  -46.2940 H         1 UNK         0.0600 
    197 H197       -4.7837  -24.3792  -44.0727 H         1 UNK         0.0600 
    198 H198       -4.4556  -22.6534  -44.0857 H         1 UNK         0.0600 
    199 H199       -3.1251  -23.8039  -44.2053 H         1 UNK         0.0600 
    200 H200       -2.0016  -24.6085  -46.6622 H         1 UNK         0.3000 
    201 H201       -2.6390  -27.3496  -47.0228 H         1 UNK         0.0600 
    202 H202       -0.3502  -26.5327  -46.5518 H         1 UNK         0.0600 
    203 H203       -0.2979  -25.6897  -48.0989 H         1 UNK         0.0600 
    204 H204       -0.3573  -27.4476  -48.0507 H         1 UNK         0.0600 
    205 H205       -3.1898  -24.6626  -49.1385 H         1 UNK         0.3000 
    206 H206       -3.9624  -26.4631  -51.3955 H         1 UNK         0.0600 
    207 H207       -3.4215  -24.4713  -52.8612 H         1 UNK         0.0600 
    208 H208       -2.7287  -23.6784  -51.4398 H         1 UNK         0.0600 
    209 H209       -2.0118  -25.1535  -52.0662 H         1 UNK         0.0600 
    210 H210       -5.4586  -25.8186  -49.0509 H         1 UNK         0.3000 
    211 H211       -7.5393  -25.5459  -48.4543 H         1 UNK         0.0600 
    212 H212       -8.2126  -25.3791  -51.4395 H         1 UNK         0.0600 
    213 H213       -9.3154  -25.8242  -50.1450 H         1 UNK         0.0600 
    214 H214       -7.9666  -26.8739  -50.5374 H         1 UNK         0.0600 
    215 H215       -5.9206  -22.9774  -49.2543 H         1 UNK         0.3000 
    216 H216       -6.0143  -20.8192  -49.0454 H         1 UNK         0.0600 
    217 H217       -7.6766  -19.7769  -47.5377 H         1 UNK         0.0600 
    218 H218       -7.0952  -21.2939  -46.8701 H         1 UNK         0.0600 
    219 H219       -8.6917  -21.2092  -47.6159 H         1 UNK         0.0600 
    220 H220       -8.8876  -22.0955  -50.5965 H         1 UNK         0.3000 
    221 H221       -9.7736  -19.6770  -51.8516 H         1 UNK         0.0600 
    222 H222      -10.1972  -22.6129  -52.6349 H         1 UNK         0.0600 
    223 H223      -11.2393  -21.6523  -51.5877 H         1 UNK         0.0600 
    224 H224      -11.0912  -21.2455  -53.2905 H         1 UNK         0.0600 
    225 H225       -7.6674  -22.3522  -52.9927 H         1 UNK         0.3000 
    226 H226       -6.8921  -20.8697  -55.4356 H         1 UNK         0.0600 
    227 H227       -7.2565  -23.3200  -55.5945 H         1 UNK         0.0600 
    228 H228       -5.5770  -22.9224  -55.9191 H         1 UNK         0.0600 
    229 H229       -6.0293  -23.6119  -54.3648 H         1 UNK         0.0600 
    230 H230       -5.5112  -22.0559  -52.3808 H         1 UNK         0.3000 
    231 H231       -3.8737  -21.4844  -51.0565 H         1 UNK         0.0600 
    232 H232       -3.8799  -18.7594  -52.4620 H         1 UNK         0.0600 
    233 H233       -4.9286  -19.2199  -51.1234 H         1 UNK         0.0600 
    234 H234       -3.1974  -19.0973  -50.8811 H         1 UNK         0.0600 
    235 H235       -3.2350  -22.1936  -54.0665 H         1 UNK         0.3000 
    236 H236       -1.5666  -22.6700  -55.4151 H         1 UNK         0.0600 
    237 H237        0.3865  -22.2618  -53.0937 H         1 UNK         0.0600 
    238 H238       -0.4153  -23.7725  -53.5048 H         1 UNK         0.0600 
    239 H239        0.7351  -23.0565  -54.6193 H         1 UNK         0.0600 
    240 H240       -2.5419  -19.8668  -54.8369 H         1 UNK         0.3000 
    241 H241       -0.4147  -18.3540  -56.2888 H         1 UNK         0.0600 
    242 H242       -4.1244  -18.6642  -57.9595 H         1 UNK         0.3800 
    243 H243       -3.8497  -19.4049  -56.4029 H         1 UNK         0.3800 
    244 H244       -1.1971  -16.2965  -55.3235 H         1 UNK         0.0800 
    245 H245       -2.6160  -17.0468  -54.6449 H         1 UNK         0.0800 
    246 H246        1.3907  -16.5711  -54.0353 H         1 UNK         0.0800 
    247 H247        1.1530  -18.2143  -54.5895 H         1 UNK         0.0800 
@<TRIPOS>BOND
     1    1    2 1    
     2    1  127 1    
     3    1  128 1    
     4    1  129 1    
     5    2    3 2    
     6    2    4 am   BACKBONE|DICT|INTERRES
     7    4    5 1    
     8    4  130 1    
     9    5    6 1    
    10    5   65 1    
    11    5  131 1    
    12    6    7 1    
    13    6  132 1    
    14    6  133 1    
    15    7    8 1    
    16    8    9 1    
    17    8  134 1    
    18    8  135 1    
    19    9   10 ar   
    20    9   14 ar   
    21   10   11 ar   
    22   10  136 1    
    23   11   12 ar   
    24   11  126 1    
    25   12   13 ar   
    26   12  137 1    
    27   13   14 ar   
    28   13   15 1    
    29   14  138 1    
    30   15   16 1    
    31   15  139 1    
    32   15  140 1    
    33   16   17 1    
    34   17   18 1    
    35   17  141 1    
    36   17  142 1    
    37   18   19 1    
    38   18   67 1    
    39   18  143 1    
    40   19   20 am   BACKBONE|DICT|INTERRES
    41   19  144 1    
    42   20   21 2    
    43   20   22 1    
    44   22   23 1    
    45   22   24 1    
    46   22  145 1    
    47   23  146 1    
    48   23  147 1    
    49   23  148 1    
    50   24   25 am   BACKBONE|DICT|INTERRES
    51   24  149 1    
    52   25   26 2    
    53   25   27 1    
    54   27   28 1    
    55   27   29 1    
    56   27  150 1    
    57   28  151 1    
    58   28  152 1    
    59   28  153 1    
    60   29   30 am   BACKBONE|DICT|INTERRES
    61   29  154 1    
    62   30   31 2    
    63   30   32 1    
    64   32   33 1    
    65   32   34 1    
    66   32  155 1    
    67   33  156 1    
    68   33  157 1    
    69   33  158 1    
    70   34   35 am   BACKBONE|DICT|INTERRES
    71   34  159 1    
    72   35   36 2    
    73   35   37 1    
    74   37   38 1    
    75   37   39 1    
    76   37  160 1    
    77   38  161 1    
    78   38  162 1    
    79   38  163 1    
    80   39   40 am   BACKBONE|DICT|INTERRES
    81   39  164 1    
    82   40   41 2    
    83   40   42 1    
    84   42   43 1    
    85   42   44 1    
    86   42  165 1    
    87   43  166 1    
    88   43  167 1    
    89   43  168 1    
    90   44   45 am   BACKBONE|DICT|INTERRES
    91   44  169 1    
    92   45   46 2    
    93   45   47 1    
    94   47   48 1    
    95   47   49 1    
    96   47  170 1    
    97   48  171 1    
    98   48  172 1    
    99   48  173 1    
   100   49   50 am   BACKBONE|DICT|INTERRES
   101   49  174 1    
   102   50   51 2    
   103   50   52 1    
   104   52   53 1    
   105   52   54 1    
   106   52  175 1    
   107   53  176 1    
   108   53  177 1    
   109   53  178 1    
   110   54   55 am   BACKBONE|DICT|INTERRES
   111   54  179 1    
   112   55   56 2    
   113   55   57 1    
   114   57   58 1    
   115   57   59 1    
   116   57  180 1    
   117   58  181 1    
   118   58  182 1    
   119   58  183 1    
   120   59   60 am   BACKBONE|DICT|INTERRES
   121   59  184 1    
   122   60   61 2    
   123   60   62 1    
   124   62   63 1    
   125   62   64 1    
   126   62  185 1    
   127   63  186 1    
   128   63  187 1    
   129   63  188 1    
   130   64   65 am   BACKBONE|DICT|INTERRES
   131   64  189 1    
   132   65   66 2    
   133   67   68 2    
   134   67   69 am   BACKBONE|DICT|INTERRES
   135   69   70 1    
   136   69  190 1    
   137   70   71 1    
   138   70   72 1    
   139   70  191 1    
   140   71  192 1    
   141   71  193 1    
   142   71  194 1    
   143   72   73 2    
   144   72   74 am   BACKBONE|DICT|INTERRES
   145   74   75 1    
   146   74  195 1    
   147   75   76 1    
   148   75   77 1    
   149   75  196 1    
   150   76  197 1    
   151   76  198 1    
   152   76  199 1    
   153   77   78 2    
   154   77   79 am   BACKBONE|DICT|INTERRES
   155   79   80 1    
   156   79  200 1    
   157   80   81 1    
   158   80   82 1    
   159   80  201 1    
   160   81  202 1    
   161   81  203 1    
   162   81  204 1    
   163   82   83 2    
   164   82   84 am   BACKBONE|DICT|INTERRES
   165   84   85 1    
   166   84  205 1    
   167   85   86 1    
   168   85   87 1    
   169   85  206 1    
   170   86  207 1    
   171   86  208 1    
   172   86  209 1    
   173   87   88 2    
   174   87   89 am   BACKBONE|DICT|INTERRES
   175   89   90 1    
   176   89  210 1    
   177   90   91 1    
   178   90   92 1    
   179   90  211 1    
   180   91  212 1    
   181   91  213 1    
   182   91  214 1    
   183   92   93 2    
   184   92   94 am   BACKBONE|DICT|INTERRES
   185   94   95 1    
   186   94  215 1    
   187   95   96 1    
   188   95   97 1    
   189   95  216 1    
   190   96  217 1    
   191   96  218 1    
   192   96  219 1    
   193   97   98 2    
   194   97   99 am   BACKBONE|DICT|INTERRES
   195   99  100 1    
   196   99  220 1    
   197  100  101 1    
   198  100  102 1    
   199  100  221 1    
   200  101  222 1    
   201  101  223 1    
   202  101  224 1    
   203  102  103 2    
   204  102  104 am   BACKBONE|DICT|INTERRES
   205  104  105 1    
   206  104  225 1    
   207  105  106 1    
   208  105  107 1    
   209  105  226 1    
   210  106  227 1    
   211  106  228 1    
   212  106  229 1    
   213  107  108 2    
   214  107  109 am   BACKBONE|DICT|INTERRES
   215  109  110 1    
   216  109  230 1    
   217  110  111 1    
   218  110  112 1    
   219  110  231 1    
   220  111  232 1    
   221  111  233 1    
   222  111  234 1    
   223  112  113 2    
   224  112  114 am   BACKBONE|DICT|INTERRES
   225  114  115 1    
   226  114  235 1    
   227  115  116 1    
   228  115  117 1    
   229  115  236 1    
   230  116  237 1    
   231  116  238 1    
   232  116  239 1    
   233  117  118 2    
   234  117  119 am   BACKBONE|DICT|INTERRES
   235  119  120 1    
   236  119  240 1    
   237  120  121 1    
   238  120  124 1    
   239  120  241 1    
   240  121  122 am   BACKBONE|DICT|INTERRES
   241  121  123 2    
   242  122  242 1    
   243  122  243 1    
   244  124  125 1    
   245  124  244 1    
   246  124  245 1    
   247  125  126 1    
   248  126  246 1    
   249  126  247 1    
@<TRIPOS>SUBSTRUCTURE
     1 UNK         1 GROUP             0       ****    0 ROOT    
