@<TRIPOS>MOLECULE
3R540
247   249    1
SMALL
USER_CHARGES


@<TRIPOS>ATOM
      1 CA          2.8934  -16.1118  -49.1620 C.3       0 UNK        -0.1800 
      2 C           2.2546  -14.7303  -49.1934 C.2       0 UNK         0.5000 
      3 O           2.9547  -13.7356  -49.3794 O.2       0 UNK        -0.5000 
      4 N           0.9285  -14.6704  -49.0150 N.am      1 UNK        -0.5000 
      5 CA          0.0978  -13.4588  -49.0703 C.3       1 UNK         0.1400 
      6 C6          0.1175  -12.7661  -50.4708 C.3       23 UNK        -0.0398 
      7 S7         -1.5657  -12.5328  -51.1420 S.3       23 UNK        -0.2404 
      8 C8         -1.6855  -13.8878  -52.3624 C.3       23 UNK        -0.0205 
      9 C9         -1.2877  -15.2385  -51.7818 C.ar      23 UNK        -0.0193 
     10 C10        -0.1602  -15.9080  -52.2697 C.ar      23 UNK        -0.1150 
     11 C11         0.2410  -17.1226  -51.7088 C.ar      23 UNK        -0.0193 
     12 C12        -0.5008  -17.6725  -50.6616 C.ar      23 UNK        -0.1150 
     13 C13        -1.6234  -17.0102  -50.1606 C.ar      23 UNK        -0.0193 
     14 C14        -2.0223  -15.8002  -50.7329 C.ar      23 UNK        -0.1150 
     15 C15        -2.3755  -17.5988  -48.9817 C.3       23 UNK        -0.0205 
     16 S16        -1.4486  -17.3157  -47.4428 S.3       23 UNK        -0.2404 
     17 C17        -2.2003  -18.5263  -46.2997 C.3       23 UNK        -0.0398 
     18 CA         -1.9577  -20.0073  -46.6921 C.3       11 UNK         0.1400 
     19 N          -0.5581  -20.2917  -47.0176 N.am      11 UNK        -0.5000 
     20 C          -0.1580  -21.2395  -47.8755 C.2       10 UNK         0.5000 
     21 O          -0.9386  -21.9940  -48.4522 O.2       10 UNK        -0.5000 
     22 CA          1.3607  -21.4001  -48.0961 C.3       10 UNK         0.1400 
     23 CB          1.8266  -20.5142  -49.2613 C.3       10 UNK        -0.1800 
     24 N           2.1590  -21.0729  -46.9133 N.am      10 UNK        -0.5000 
     25 C           2.0713  -21.6871  -45.7252 C.2       9 UNK         0.5000 
     26 O           1.3771  -22.6834  -45.5292 O.2       9 UNK        -0.5000 
     27 CA          2.8352  -21.0478  -44.5459 C.3       9 UNK         0.1400 
     28 CB          4.1770  -21.7608  -44.3244 C.3       9 UNK        -0.1800 
     29 N           3.0758  -19.6048  -44.6819 N.am      9 UNK        -0.5000 
     30 C           2.1287  -18.6753  -44.8663 C.2       8 UNK         0.5000 
     31 O           0.9299  -18.9316  -44.9798 O.2       8 UNK        -0.5000 
     32 CA          2.6072  -17.2219  -44.9568 C.3       8 UNK         0.1400 
     33 CB          1.6586  -16.3647  -45.8076 C.3       8 UNK        -0.1800 
     34 N           2.7099  -16.6531  -43.6168 N.am      8 UNK        -0.5000 
     35 C           3.8310  -16.6440  -42.8842 C.2       7 UNK         0.5000 
     36 O           4.9087  -17.0931  -43.2767 O.2       7 UNK        -0.5000 
     37 CA          3.7215  -16.0622  -41.4666 C.3       7 UNK         0.1400 
     38 CB          3.4668  -14.5459  -41.4972 C.3       7 UNK        -0.1800 
     39 N           2.6486  -16.7241  -40.7298 N.am      7 UNK        -0.5000 
     40 C           2.8088  -17.8207  -39.9745 C.2       6 UNK         0.5000 
     41 O           3.8994  -18.3481  -39.7534 O.2       6 UNK        -0.5000 
     42 CA          1.5348  -18.4396  -39.3640 C.3       6 UNK         0.1400 
     43 CB          1.2841  -17.8767  -37.9566 C.3       6 UNK        -0.1800 
     44 N           0.3498  -18.2040  -40.1881 N.am      6 UNK        -0.5000 
     45 C           0.1288  -18.7711  -41.3824 C.2       5 UNK         0.5000 
     46 O           0.8277  -19.6730  -41.8413 O.2       5 UNK        -0.5000 
     47 CA         -1.0553  -18.2257  -42.2077 C.3       5 UNK         0.1400 
     48 CB         -2.2171  -19.2302  -42.2250 C.3       5 UNK        -0.1800 
     49 N          -1.5510  -16.9267  -41.7407 N.am      5 UNK        -0.5000 
     50 C          -0.8863  -15.7683  -41.8409 C.2       4 UNK         0.5000 
     51 O           0.2321  -15.6551  -42.3526 O.2       4 UNK        -0.5000 
     52 CA         -1.5525  -14.5582  -41.1772 C.3       4 UNK         0.1400 
     53 CB         -1.1539  -14.4728  -39.6932 C.3       4 UNK        -0.1800 
     54 N          -1.1517  -13.3345  -41.8609 N.am      4 UNK        -0.5000 
     55 C          -1.9097  -12.2353  -41.9637 C.2       3 UNK         0.5000 
     56 O          -3.0303  -12.1361  -41.4611 O.2       3 UNK        -0.5000 
     57 CA         -1.3365  -11.0331  -42.7440 C.3       3 UNK         0.1400 
     58 CB         -0.8939   -9.9282  -41.7713 C.3       3 UNK        -0.1800 
     59 N          -0.2125  -11.3546  -43.6271 N.am      3 UNK        -0.5000 
     60 C          -0.2904  -12.1031  -44.7342 C.2       2 UNK         0.5000 
     61 O          -1.3305  -12.6409  -45.1226 O.2       2 UNK        -0.5000 
     62 CA          1.0307  -12.2901  -45.5061 C.3       2 UNK         0.1400 
     63 CB          2.0639  -13.0378  -44.6451 C.3       2 UNK        -0.1800 
     64 N           0.8297  -13.0201  -46.7586 N.am      2 UNK        -0.5000 
     65 C           0.3410  -12.4873  -47.8875 C.2       1 UNK         0.5000 
     66 O           0.0753  -11.2890  -48.0044 O.2       1 UNK        -0.5000 
     67 C          -2.5243  -20.9751  -45.6315 C.2       11 UNK         0.5000 
     68 O          -3.7306  -20.9517  -45.3919 O.2       11 UNK        -0.5000 
     69 N          -1.6736  -21.8256  -45.0367 N.am      12 UNK        -0.5000 
     70 CA         -2.0783  -22.8955  -44.1216 C.3       12 UNK         0.1400 
     71 CB         -0.9228  -23.1962  -43.1525 C.3       12 UNK        -0.1800 
     72 C          -2.5270  -24.1746  -44.8622 C.2       12 UNK         0.5000 
     73 O          -2.9953  -25.1090  -44.2096 O.2       12 UNK        -0.5000 
     74 N          -2.3740  -24.2105  -46.1958 N.am      13 UNK        -0.5000 
     75 CA         -2.8304  -25.2898  -47.0740 C.3       13 UNK         0.1400 
     76 CB         -2.2811  -25.0355  -48.4863 C.3       13 UNK        -0.1800 
     77 C          -4.3681  -25.4225  -47.1017 C.2       13 UNK         0.5000 
     78 O          -5.0760  -24.4744  -46.7546 O.2       13 UNK        -0.5000 
     79 N          -4.8541  -26.5894  -47.5495 N.am      14 UNK        -0.5000 
     80 CA         -6.2589  -27.0251  -47.5087 C.3       14 UNK         0.1400 
     81 CB         -6.3635  -28.4150  -48.1556 C.3       14 UNK        -0.1800 
     82 C          -7.2886  -26.0664  -48.1434 C.2       14 UNK         0.5000 
     83 O          -8.4286  -26.0145  -47.6800 O.2       14 UNK        -0.5000 
     84 N          -6.8657  -25.3192  -49.1686 N.am      15 UNK        -0.5000 
     85 CA         -7.6340  -24.2492  -49.8086 C.3       15 UNK         0.1400 
     86 CB         -8.1675  -24.7331  -51.1699 C.3       15 UNK        -0.1800 
     87 C          -6.7879  -22.9668  -49.9240 C.2       15 UNK         0.5000 
     88 O          -7.0258  -22.1577  -50.8223 O.2       15 UNK        -0.5000 
     89 N          -5.8022  -22.8126  -49.0245 N.am      16 UNK        -0.5000 
     90 CA         -4.8692  -21.6907  -48.9007 C.3       16 UNK         0.1400 
     91 CB         -5.5815  -20.5034  -48.2138 C.3       16 UNK        -0.1800 
     92 C          -4.1970  -21.3317  -50.2429 C.2       16 UNK         0.5000 
     93 O          -3.5112  -22.1752  -50.8227 O.2       16 UNK        -0.5000 
     94 N          -4.4521  -20.1119  -50.7329 N.am      17 UNK        -0.5000 
     95 CA         -3.9481  -19.5523  -51.9863 C.3       17 UNK         0.1400 
     96 CB         -4.5005  -18.1258  -52.1299 C.3       17 UNK        -0.1800 
     97 C          -4.3019  -20.3762  -53.2392 C.2       17 UNK         0.5000 
     98 O          -3.5303  -20.3615  -54.1987 O.2       17 UNK        -0.5000 
     99 N          -5.4451  -21.0771  -53.2161 N.am      18 UNK        -0.5000 
    100 CA        -5.9014  -21.9287  -54.3148 C.3       18 UNK         0.1400 
    101 CB        -7.4287  -22.0769  -54.2509 C.3       18 UNK        -0.1800 
    102 C         -5.2205  -23.3083  -54.3065 C.2       18 UNK         0.5000 
    103 O         -5.0080  -23.8777  -55.3768 O.2       18 UNK        -0.5000 
    104 N         -4.8718  -23.8132  -53.1140 N.am      19 UNK        -0.5000 
    105 CA        -4.1376  -25.0688  -52.9397 C.3       19 UNK         0.1400 
    106 CB        -4.3611  -25.6209  -51.5242 C.3       19 UNK        -0.1800 
    107 C         -2.6398  -24.8900  -53.2303 C.2       19 UNK         0.5000 
    108 O         -2.0399  -25.7416  -53.8868 O.2       19 UNK        -0.5000 
    109 N         -2.0744  -23.7674  -52.7662 N.am      20 UNK        -0.5000 
    110 CA        -0.7002  -23.3538  -53.0529 C.3       20 UNK         0.1400 
    111 CB        -0.3010  -22.2612  -52.0534 C.3       20 UNK        -0.1800 
    112 C         -0.5075  -22.8688  -54.5057 C.2       20 UNK         0.5000 
    113 O          0.6202  -22.8687  -54.9981 O.2       20 UNK        -0.5000 
    114 N         -1.6116  -22.4649  -55.1519 N.am      21 UNK        -0.5000 
    115 CA        -1.7669  -21.9892  -56.5332 C.3       21 UNK         0.1400 
    116 CB        -1.2481  -23.0284  -57.5473 C.3       21 UNK        -0.1800 
    117 C         -1.1999  -20.5794  -56.8041 C.2       21 UNK         0.5000 
    118 O         -1.3558  -20.0735  -57.9168 O.2       21 UNK        -0.5000 
    119 N         -0.5824  -19.9571  -55.7954 N.am      22 UNK        -0.5000 
    120 CA        -0.0708  -18.5790  -55.8150 C.3       22 UNK         0.1400 
    121 C         -1.1342  -17.4893  -55.4952 C.2       22 UNK         0.5000 
    122 N         -2.3583  -17.8356  -55.1184 N.am      22 UNK        -0.7600 
    123 O         -0.8527  -16.3015  -55.6291 O.2       22 UNK        -0.5000 
    124 C124        1.2153  -18.4303  -54.9588 C.3       23 UNK        -0.0398 
    125 S125        1.1254  -19.2051  -53.3043 S.3       23 UNK        -0.2404 
    126 C126        1.5014  -17.8220  -52.1887 C.3       23 UNK        -0.0205 
    127 H127        3.4593  -16.2832  -50.0775 H         1 UNK         0.0600 
    128 H128        2.1465  -16.9010  -49.0747 H         1 UNK         0.0600 
    129 H129        3.5773  -16.1917  -48.3171 H         1 UNK         0.0600 
    130 H130        0.4106  -15.5296  -48.8874 H         1 UNK         0.3000 
    131 H131       -0.9090  -13.8374  -48.8888 H         1 UNK         0.0600 
    132 H132        0.6209  -11.7984  -50.4469 H         1 UNK         0.0800 
    133 H133        0.6938  -13.3485  -51.1899 H         1 UNK         0.0800 
    134 H134       -1.0642  -13.6416  -53.2250 H         1 UNK         0.0800 
    135 H135       -2.7105  -13.9460  -52.7307 H         1 UNK         0.0800 
    136 H136        0.4160  -15.4754  -53.0754 H         1 UNK         0.1150 
    137 H137       -0.1925  -18.6079  -50.2179 H         1 UNK         0.1150 
    138 H138       -2.8849  -15.2776  -50.3443 H         1 UNK         0.1150 
    139 H139       -3.3723  -17.1649  -48.8923 H         1 UNK         0.0800 
    140 H140       -2.5094  -18.6638  -49.1622 H         1 UNK         0.0800 
    141 H141       -3.2694  -18.3179  -46.2318 H         1 UNK         0.0800 
    142 H142       -1.7895  -18.3283  -45.3095 H         1 UNK         0.0800 
    143 H143       -2.5479  -20.2002  -47.5869 H         1 UNK         0.0600 
    144 H144        0.1287  -19.7399  -46.5103 H         1 UNK         0.3000 
    145 H145        1.5479  -22.4442  -48.3549 H         1 UNK         0.0600 
    146 H146        1.7376  -19.4548  -49.0186 H         1 UNK         0.0600 
    147 H147        2.8674  -20.7130  -49.5173 H         1 UNK         0.0600 
    148 H148        1.2333  -20.6954  -50.1575 H         1 UNK         0.0600 
    149 H149        2.7595  -20.2655  -46.9833 H         1 UNK         0.3000 
    150 H150        2.2213  -21.1915  -43.6546 H         1 UNK         0.0600 
    151 H151        4.0326  -22.8340  -44.1919 H         1 UNK         0.0600 
    152 H152        4.6780  -21.3897  -43.4301 H         1 UNK         0.0600 
    153 H153        4.8507  -21.6216  -45.1708 H         1 UNK         0.0600 
    154 H154        4.0325  -19.2981  -44.5719 H         1 UNK         0.3000 
    155 H155        3.5799  -17.2173  -45.4535 H         1 UNK         0.0600 
    156 H156        1.4092  -16.8700  -46.7402 H         1 UNK         0.0600 
    157 H157        0.7227  -16.1502  -45.2895 H         1 UNK         0.0600 
    158 H158        2.1341  -15.4245  -46.0755 H         1 UNK         0.0600 
    159 H159        1.8477  -16.3043  -43.2078 H         1 UNK         0.3000 
    160 H160        4.6759  -16.2261  -40.9615 H         1 UNK         0.0600 
    161 H161        3.4974  -14.1253  -40.4920 H         1 UNK         0.0600 
    162 H162        4.2271  -14.0331  -42.0876 H         1 UNK         0.0600 
    163 H163        2.4962  -14.3011  -41.9270 H         1 UNK         0.0600 
    164 H164        1.7124  -16.3849  -40.9045 H         1 UNK         0.3000 
    165 H165        1.6916  -19.5172  -39.2817 H         1 UNK         0.0600 
    166 H166        0.4206  -18.3510  -37.4900 H         1 UNK         0.0600 
    167 H167        2.1420  -18.0551  -37.3069 H         1 UNK         0.0600 
    168 H168        1.1066  -16.8006  -37.9780 H         1 UNK         0.0600 
    169 H169       -0.2962  -17.5000  -39.8658 H         1 UNK         0.3000 
    170 H170       -0.7011  -18.0939  -43.2294 H         1 UNK         0.0600 
    171 H171       -1.8846  -20.2033  -42.5862 H         1 UNK         0.0600 
    172 H172       -2.6382  -19.3768  -41.2298 H         1 UNK         0.0600 
    173 H173       -3.0178  -18.8983  -42.8861 H         1 UNK         0.0600 
    174 H174       -2.4558  -16.9332  -41.2915 H         1 UNK         0.3000 
    175 H175       -2.6347  -14.6832  -41.2556 H         1 UNK         0.0600 
    176 H176       -0.0762  -14.3529  -39.5732 H         1 UNK         0.0600 
    177 H177       -1.6394  -13.6291  -39.2024 H         1 UNK         0.0600 
    178 H178       -1.4485  -15.3726  -39.1520 H         1 UNK         0.0600 
    179 H179       -0.2611  -13.3781  -42.3370 H         1 UNK         0.3000 
    180 H180       -2.1448  -10.6375  -43.3626 H         1 UNK         0.0600 
    181 H181       -0.0717  -10.2587  -41.1352 H         1 UNK         0.0600 
    182 H182       -1.7144   -9.6294  -41.1174 H         1 UNK         0.0600 
    183 H183       -0.5683   -9.0364  -42.3071 H         1 UNK         0.0600 
    184 H184        0.6791  -10.9558  -43.3706 H         1 UNK         0.3000 
    185 H185        1.4304  -11.3011  -45.7403 H         1 UNK         0.0600 
    186 H186        2.9641  -13.2718  -45.2137 H         1 UNK         0.0600 
    187 H187        2.3767  -12.4351  -43.7920 H         1 UNK         0.0600 
    188 H188        1.6583  -13.9690  -44.2500 H         1 UNK         0.0600 
    189 H189        0.9780  -14.0170  -46.7323 H         1 UNK         0.3000 
    190 H190       -0.6941  -21.8017  -45.2919 H         1 UNK         0.3000 
    191 H191       -2.9266  -22.5495  -43.5273 H         1 UNK         0.0600 
    192 H192       -0.0912  -23.6896  -43.6549 H         1 UNK         0.0600 
    193 H193       -1.2529  -23.8585  -42.3515 H         1 UNK         0.0600 
    194 H194       -0.5425  -22.2871  -42.6860 H         1 UNK         0.0600 
    195 H195       -1.9801  -23.4010  -46.6536 H         1 UNK         0.3000 
    196 H196       -2.4125  -26.2258  -46.6980 H         1 UNK         0.0600 
    197 H197       -2.5149  -25.8634  -49.1555 H         1 UNK         0.0600 
    198 H198       -1.1960  -24.9305  -48.4755 H         1 UNK         0.0600 
    199 H199       -2.6960  -24.1267  -48.9238 H         1 UNK         0.0600 
    200 H200       -4.1939  -27.2959  -47.8409 H         1 UNK         0.3000 
    201 H201       -6.5277  -27.1222  -46.4549 H         1 UNK         0.0600 
    202 H202       -5.7400  -29.1421  -47.6351 H         1 UNK         0.0600 
    203 H203       -6.0557  -28.3945  -49.2018 H         1 UNK         0.0600 
    204 H204       -7.3883  -28.7875  -48.1223 H         1 UNK         0.0600 
    205 H205       -5.9117  -25.4334  -49.4771 H         1 UNK         0.3000 
    206 H206       -8.4908  -23.9826  -49.1869 H         1 UNK         0.0600 
    207 H207       -8.7171  -25.6689  -51.0683 H         1 UNK         0.0600 
    208 H208       -8.8538  -24.0028  -51.5997 H         1 UNK         0.0600 
    209 H209       -7.3661  -24.8904  -51.8910 H         1 UNK         0.0600 
    210 H210       -5.7063  -23.5168  -48.2979 H         1 UNK         0.3000 
    211 H211       -4.0684  -22.0287  -48.2419 H         1 UNK         0.0600 
    212 H212       -6.4366  -20.1475  -48.7897 H         1 UNK         0.0600 
    213 H213       -4.9051  -19.6625  -48.0579 H         1 UNK         0.0600 
    214 H214       -5.9506  -20.7957  -47.2304 H         1 UNK         0.0600 
    215 H215       -5.0807  -19.5208  -50.2097 H         1 UNK         0.3000 
    216 H216       -2.8596  -19.5021  -51.9137 H         1 UNK         0.0600 
    217 H217       -4.0532  -17.6133  -52.9803 H         1 UNK         0.0600 
    218 H218       -4.2907  -17.5232  -51.2479 H         1 UNK         0.0600 
    219 H219       -5.5812  -18.1264  -52.2784 H         1 UNK         0.0600 
    220 H220       -6.0123  -21.0760  -52.3753 H         1 UNK         0.3000 
    221 H221       -5.6548  -21.4432  -55.2617 H         1 UNK         0.0600 
    222 H222       -7.7495  -22.5817  -53.3403 H         1 UNK         0.0600 
    223 H223       -7.9212  -21.1052  -54.2869 H         1 UNK         0.0600 
    224 H224       -7.7985  -22.6606  -55.0948 H         1 UNK         0.0600 
    225 H225       -5.0240  -23.2494  -52.2892 H         1 UNK         0.3000 
    226 H226       -4.5226  -25.8063  -53.6476 H         1 UNK         0.0600 
    227 H227       -5.3772  -25.9938  -51.4117 H         1 UNK         0.0600 
    228 H228       -3.6942  -26.4596  -51.3197 H         1 UNK         0.0600 
    229 H229       -4.1833  -24.8621  -50.7630 H         1 UNK         0.0600 
    230 H230       -2.6212  -23.1492  -52.1709 H         1 UNK         0.3000 
    231 H231       -0.0423  -24.2118  -52.9004 H         1 UNK         0.0600 
    232 H232        0.7400  -21.9702  -52.1947 H         1 UNK         0.0600 
    233 H233       -0.4026  -22.6137  -51.0272 H         1 UNK         0.0600 
    234 H234       -0.9170  -21.3675  -52.1617 H         1 UNK         0.0600 
    235 H235       -2.4653  -22.4439  -54.6116 H         1 UNK         0.3000 
    236 H236       -2.8442  -21.9030  -56.6830 H         1 UNK         0.0600 
    237 H237       -1.5180  -22.7474  -58.5659 H         1 UNK         0.0600 
    238 H238       -1.6783  -24.0121  -57.3583 H         1 UNK         0.0600 
    239 H239       -0.1625  -23.1227  -57.5152 H         1 UNK         0.0600 
    240 H240       -0.5013  -20.4385  -54.9121 H         1 UNK         0.3000 
    241 H241        0.2296  -18.3614  -56.8417 H         1 UNK         0.0600 
    242 H242       -2.6140  -18.8080  -54.9835 H         1 UNK         0.3800 
    243 H243       -3.0332  -17.1107  -54.9425 H         1 UNK         0.3800 
    244 H244        1.5101  -17.3832  -54.8747 H         1 UNK         0.0800 
    245 H245        2.0394  -18.9153  -55.4833 H         1 UNK         0.0800 
    246 H246        2.0395  -18.2173  -51.3265 H         1 UNK         0.0800 
    247 H247        2.1840  -17.1170  -52.6651 H         1 UNK         0.0800 
@<TRIPOS>BOND
     1    1    2 1    
     2    1  127 1    
     3    1  128 1    
     4    1  129 1    
     5    2    3 2    
     6    2    4 am   BACKBONE|DICT|INTERRES
     7    4    5 1    
     8    4  130 1    
     9    5    6 1    
    10    5   65 1    
    11    5  131 1    
    12    6    7 1    
    13    6  132 1    
    14    6  133 1    
    15    7    8 1    
    16    8    9 1    
    17    8  134 1    
    18    8  135 1    
    19    9   10 ar   
    20    9   14 ar   
    21   10   11 ar   
    22   10  136 1    
    23   11   12 ar   
    24   11  126 1    
    25   12   13 ar   
    26   12  137 1    
    27   13   14 ar   
    28   13   15 1    
    29   14  138 1    
    30   15   16 1    
    31   15  139 1    
    32   15  140 1    
    33   16   17 1    
    34   17   18 1    
    35   17  141 1    
    36   17  142 1    
    37   18   19 1    
    38   18   67 1    
    39   18  143 1    
    40   19   20 am   BACKBONE|DICT|INTERRES
    41   19  144 1    
    42   20   21 2    
    43   20   22 1    
    44   22   23 1    
    45   22   24 1    
    46   22  145 1    
    47   23  146 1    
    48   23  147 1    
    49   23  148 1    
    50   24   25 am   BACKBONE|DICT|INTERRES
    51   24  149 1    
    52   25   26 2    
    53   25   27 1    
    54   27   28 1    
    55   27   29 1    
    56   27  150 1    
    57   28  151 1    
    58   28  152 1    
    59   28  153 1    
    60   29   30 am   BACKBONE|DICT|INTERRES
    61   29  154 1    
    62   30   31 2    
    63   30   32 1    
    64   32   33 1    
    65   32   34 1    
    66   32  155 1    
    67   33  156 1    
    68   33  157 1    
    69   33  158 1    
    70   34   35 am   BACKBONE|DICT|INTERRES
    71   34  159 1    
    72   35   36 2    
    73   35   37 1    
    74   37   38 1    
    75   37   39 1    
    76   37  160 1    
    77   38  161 1    
    78   38  162 1    
    79   38  163 1    
    80   39   40 am   BACKBONE|DICT|INTERRES
    81   39  164 1    
    82   40   41 2    
    83   40   42 1    
    84   42   43 1    
    85   42   44 1    
    86   42  165 1    
    87   43  166 1    
    88   43  167 1    
    89   43  168 1    
    90   44   45 am   BACKBONE|DICT|INTERRES
    91   44  169 1    
    92   45   46 2    
    93   45   47 1    
    94   47   48 1    
    95   47   49 1    
    96   47  170 1    
    97   48  171 1    
    98   48  172 1    
    99   48  173 1    
   100   49   50 am   BACKBONE|DICT|INTERRES
   101   49  174 1    
   102   50   51 2    
   103   50   52 1    
   104   52   53 1    
   105   52   54 1    
   106   52  175 1    
   107   53  176 1    
   108   53  177 1    
   109   53  178 1    
   110   54   55 am   BACKBONE|DICT|INTERRES
   111   54  179 1    
   112   55   56 2    
   113   55   57 1    
   114   57   58 1    
   115   57   59 1    
   116   57  180 1    
   117   58  181 1    
   118   58  182 1    
   119   58  183 1    
   120   59   60 am   BACKBONE|DICT|INTERRES
   121   59  184 1    
   122   60   61 2    
   123   60   62 1    
   124   62   63 1    
   125   62   64 1    
   126   62  185 1    
   127   63  186 1    
   128   63  187 1    
   129   63  188 1    
   130   64   65 am   BACKBONE|DICT|INTERRES
   131   64  189 1    
   132   65   66 2    
   133   67   68 2    
   134   67   69 am   BACKBONE|DICT|INTERRES
   135   69   70 1    
   136   69  190 1    
   137   70   71 1    
   138   70   72 1    
   139   70  191 1    
   140   71  192 1    
   141   71  193 1    
   142   71  194 1    
   143   72   73 2    
   144   72   74 am   BACKBONE|DICT|INTERRES
   145   74   75 1    
   146   74  195 1    
   147   75   76 1    
   148   75   77 1    
   149   75  196 1    
   150   76  197 1    
   151   76  198 1    
   152   76  199 1    
   153   77   78 2    
   154   77   79 am   BACKBONE|DICT|INTERRES
   155   79   80 1    
   156   79  200 1    
   157   80   81 1    
   158   80   82 1    
   159   80  201 1    
   160   81  202 1    
   161   81  203 1    
   162   81  204 1    
   163   82   83 2    
   164   82   84 am   BACKBONE|DICT|INTERRES
   165   84   85 1    
   166   84  205 1    
   167   85   86 1    
   168   85   87 1    
   169   85  206 1    
   170   86  207 1    
   171   86  208 1    
   172   86  209 1    
   173   87   88 2    
   174   87   89 am   BACKBONE|DICT|INTERRES
   175   89   90 1    
   176   89  210 1    
   177   90   91 1    
   178   90   92 1    
   179   90  211 1    
   180   91  212 1    
   181   91  213 1    
   182   91  214 1    
   183   92   93 2    
   184   92   94 am   BACKBONE|DICT|INTERRES
   185   94   95 1    
   186   94  215 1    
   187   95   96 1    
   188   95   97 1    
   189   95  216 1    
   190   96  217 1    
   191   96  218 1    
   192   96  219 1    
   193   97   98 2    
   194   97   99 am   BACKBONE|DICT|INTERRES
   195   99  100 1    
   196   99  220 1    
   197  100  101 1    
   198  100  102 1    
   199  100  221 1    
   200  101  222 1    
   201  101  223 1    
   202  101  224 1    
   203  102  103 2    
   204  102  104 am   BACKBONE|DICT|INTERRES
   205  104  105 1    
   206  104  225 1    
   207  105  106 1    
   208  105  107 1    
   209  105  226 1    
   210  106  227 1    
   211  106  228 1    
   212  106  229 1    
   213  107  108 2    
   214  107  109 am   BACKBONE|DICT|INTERRES
   215  109  110 1    
   216  109  230 1    
   217  110  111 1    
   218  110  112 1    
   219  110  231 1    
   220  111  232 1    
   221  111  233 1    
   222  111  234 1    
   223  112  113 2    
   224  112  114 am   BACKBONE|DICT|INTERRES
   225  114  115 1    
   226  114  235 1    
   227  115  116 1    
   228  115  117 1    
   229  115  236 1    
   230  116  237 1    
   231  116  238 1    
   232  116  239 1    
   233  117  118 2    
   234  117  119 am   BACKBONE|DICT|INTERRES
   235  119  120 1    
   236  119  240 1    
   237  120  121 1    
   238  120  124 1    
   239  120  241 1    
   240  121  122 am   BACKBONE|DICT|INTERRES
   241  121  123 2    
   242  122  242 1    
   243  122  243 1    
   244  124  125 1    
   245  124  244 1    
   246  124  245 1    
   247  125  126 1    
   248  126  246 1    
   249  126  247 1    
@<TRIPOS>SUBSTRUCTURE
     1 UNK         1 GROUP             0       ****    0 ROOT    
