@<TRIPOS>MOLECULE
3R540
247   249    1
SMALL
USER_CHARGES


@<TRIPOS>ATOM
      1 CA         -5.3950  -13.8235  -49.0125 C.3       0 UNK        -0.1800 
      2 C          -4.0461  -14.4719  -48.7392 C.2       0 UNK         0.5000 
      3 O          -3.9129  -15.6873  -48.8737 O.2       0 UNK        -0.5000 
      4 N          -3.0478  -13.6732  -48.3370 N.am      1 UNK        -0.5000 
      5 CA         -1.6599  -14.0551  -48.0290 C.3       1 UNK         0.1400 
      6 C6         -0.9527  -14.7891  -49.2013 C.3       23 UNK        -0.0398 
      7 S7          0.8578  -14.5542  -49.2013 S.3       23 UNK        -0.2404 
      8 C8          1.4314  -16.1101  -48.4449 C.3       23 UNK        -0.0205 
      9 C9          1.8492  -17.1699  -49.4582 C.ar      23 UNK        -0.0193 
     10 C10         0.9963  -17.5720  -50.4921 C.ar      23 UNK        -0.1150 
     11 C11         1.3815  -18.5762  -51.3847 C.ar      23 UNK        -0.0193 
     12 C12         2.6290  -19.1867  -51.2388 C.ar      23 UNK        -0.1150 
     13 C13         3.4860  -18.8029  -50.2047 C.ar      23 UNK        -0.0193 
     14 C14         3.0946  -17.7893  -49.3260 C.ar      23 UNK        -0.1150 
     15 C15         4.8296  -19.4919  -50.0238 C.3       23 UNK        -0.0205 
     16 S16         4.6549  -21.2039  -49.4258 S.3       23 UNK        -0.2404 
     17 C17         3.7928  -20.9800  -47.8302 C.3       23 UNK        -0.0398 
     18 CA          2.6627  -22.0129  -47.6088 C.3       11 UNK         0.1400 
     19 N           2.3136  -22.1125  -46.1897 N.am      11 UNK        -0.5000 
     20 C           1.6742  -23.1502  -45.6339 C.2       10 UNK         0.5000 
     21 O           1.2687  -24.1247  -46.2670 O.2       10 UNK        -0.5000 
     22 CA          1.4320  -23.0798  -44.1146 C.3       10 UNK         0.1400 
     23 CB          2.7098  -23.4267  -43.3353 C.3       10 UNK        -0.1800 
     24 N           0.9380  -21.7715  -43.6896 N.am      10 UNK        -0.5000 
     25 C          -0.2583  -21.2754  -44.0321 C.2       9 UNK         0.5000 
     26 O          -1.0884  -21.8976  -44.6911 O.2       9 UNK        -0.5000 
     27 CA         -0.5696  -19.8368  -43.5869 C.3       9 UNK         0.1400 
     28 CB         -1.0622  -19.8306  -42.1309 C.3       9 UNK        -0.1800 
     29 N           0.5755  -18.9348  -43.7317 N.am      9 UNK        -0.5000 
     30 C           1.1957  -18.6549  -44.8876 C.2       8 UNK         0.5000 
     31 O           0.8434  -19.0945  -45.9781 O.2       8 UNK        -0.5000 
     32 CA          2.4656  -17.7938  -44.8118 C.3       8 UNK         0.1400 
     33 CB          2.1232  -16.3024  -44.6950 C.3       8 UNK        -0.1800 
     34 N           3.3235  -18.2008  -43.7014 N.am      8 UNK        -0.5000 
     35 C           3.9666  -19.3755  -43.6364 C.2       7 UNK         0.5000 
     36 O           3.9500  -20.2157  -44.5366 O.2       7 UNK        -0.5000 
     37 CA          4.7111  -19.6762  -42.3228 C.3       7 UNK         0.1400 
     38 CB          6.1123  -19.0478  -42.3381 C.3       7 UNK        -0.1800 
     39 N           3.9763  -19.1984  -41.1494 N.am      7 UNK        -0.5000 
     40 C           2.8123  -19.7136  -40.7271 C.2       6 UNK         0.5000 
     41 O           2.2726  -20.6896  -41.2475 O.2       6 UNK        -0.5000 
     42 CA          2.1126  -18.9822  -39.5636 C.3       6 UNK         0.1400 
     43 CB          2.6259  -19.5006  -38.2122 C.3       6 UNK        -0.1800 
     44 N           2.2772  -17.5250  -39.6229 N.am      6 UNK        -0.5000 
     45 C           1.7895  -16.7537  -40.6034 C.2       5 UNK         0.5000 
     46 O           1.1164  -17.1907  -41.5380 O.2       5 UNK        -0.5000 
     47 CA          2.1793  -15.2699  -40.5775 C.3       5 UNK         0.1400 
     48 CB          3.6664  -15.1181  -40.9664 C.3       5 UNK        -0.1800 
     49 N           1.3298  -14.5339  -41.5142 N.am      5 UNK        -0.5000 
     50 C           1.2911  -13.2036  -41.6562 C.2       4 UNK         0.5000 
     51 O           1.9284  -12.4235  -40.9470 O.2       4 UNK        -0.5000 
     52 CA          0.4059  -12.6339  -42.7821 C.3       4 UNK         0.1400 
     53 CB          1.2077  -12.5185  -44.0875 C.3       4 UNK        -0.1800 
     54 N          -0.8275  -13.3841  -43.0341 N.am      4 UNK        -0.5000 
     55 C          -1.8622  -13.4358  -42.1806 C.2       3 UNK         0.5000 
     56 O          -1.8303  -12.9449  -41.0512 O.2       3 UNK        -0.5000 
     57 CA         -3.1727  -14.0959  -42.6615 C.3       3 UNK         0.1400 
     58 CB         -4.2561  -13.0296  -42.8907 C.3       3 UNK        -0.1800 
     59 N          -3.0363  -14.8818  -43.8873 N.am      3 UNK        -0.5000 
     60 C          -2.4625  -16.0884  -43.9581 C.2       2 UNK         0.5000 
     61 O          -1.9920  -16.6691  -42.9835 O.2       2 UNK        -0.5000 
     62 CA         -2.3973  -16.7563  -45.3463 C.3       2 UNK         0.1400 
     63 CB         -3.5767  -17.7289  -45.5170 C.3       2 UNK        -0.1800 
     64 N          -2.3892  -15.8290  -46.4815 N.am      2 UNK        -0.5000 
     65 C          -1.5206  -14.8328  -46.7002 C.2       1 UNK         0.5000 
     66 O          -0.6526  -14.5025  -45.8929 O.2       1 UNK        -0.5000 
     67 C           1.4266  -21.7700  -48.5082 C.2       11 UNK         0.5000 
     68 O           1.3082  -22.4068  -49.5561 O.2       11 UNK        -0.5000 
     69 N           0.5041  -20.9002  -48.0708 N.am      12 UNK        -0.5000 
     70 CA         -0.7625  -20.6159  -48.7542 C.3       12 UNK         0.1400 
     71 CB         -1.3351  -19.2914  -48.2277 C.3       12 UNK        -0.1800 
     72 C          -1.8127  -21.7316  -48.5894 C.2       12 UNK         0.5000 
     73 O          -2.7867  -21.7486  -49.3426 O.2       12 UNK        -0.5000 
     74 N          -1.6035  -22.6193  -47.6081 N.am      13 UNK        -0.5000 
     75 CA         -2.4895  -23.6869  -47.1404 C.3       13 UNK         0.1400 
     76 CB         -2.8641  -24.6500  -48.2872 C.3       13 UNK        -0.1800 
     77 C          -3.7313  -23.1530  -46.3959 C.2       13 UNK         0.5000 
     78 O          -3.9966  -21.9469  -46.3770 O.2       13 UNK        -0.5000 
     79 N          -4.4705  -24.0784  -45.7677 N.am      14 UNK        -0.5000 
     80 CA         -5.6876  -23.8103  -44.9989 C.3       14 UNK         0.1400 
     81 CB         -6.2313  -25.1315  -44.4343 C.3       14 UNK        -0.1800 
     82 C          -6.7561  -23.0992  -45.8478 C.2       14 UNK         0.5000 
     83 O          -7.0675  -23.5674  -46.9438 O.2       14 UNK        -0.5000 
     84 N          -7.2511  -21.9600  -45.3442 N.am      15 UNK        -0.5000 
     85 CA         -8.1938  -21.0446  -46.0020 C.3       15 UNK         0.1400 
     86 CB         -9.5774  -21.7107  -46.1591 C.3       15 UNK        -0.1800 
     87 C          -7.6664  -20.4486  -47.3295 C.2       15 UNK         0.5000 
     88 O          -8.4677  -20.0524  -48.1773 O.2       15 UNK        -0.5000 
     89 N          -6.3327  -20.3956  -47.4821 N.am      16 UNK        -0.5000 
     90 CA         -5.5897  -19.9498  -48.6645 C.3       16 UNK         0.1400 
     91 CB         -5.8080  -18.4452  -48.9248 C.3       16 UNK        -0.1800 
     92 C          -5.8568  -20.8245  -49.9094 C.2       16 UNK         0.5000 
     93 O          -5.8976  -20.3098  -51.0275 O.2       16 UNK        -0.5000 
     94 N          -6.0369  -22.1382  -49.7031 N.am      17 UNK        -0.5000 
     95 CA         -6.3821  -23.1174  -50.7389 C.3       17 UNK         0.1400 
     96 CB         -6.6209  -24.4880  -50.0869 C.3       17 UNK        -0.1800 
     97 C          -5.3801  -23.2394  -51.9068 C.2       17 UNK         0.5000 
     98 O          -5.7794  -23.6838  -52.9843 O.2       17 UNK        -0.5000 
     99 N          -4.1178  -22.8315  -51.7073 N.am      18 UNK        -0.5000 
    100 CA        -3.0911  -22.8191  -52.7520 C.3       18 UNK         0.1400 
    101 CB        -1.6943  -22.7888  -52.1123 C.3       18 UNK        -0.1800 
    102 C         -3.2392  -21.6587  -53.7559 C.2       18 UNK         0.5000 
    103 O         -2.5051  -21.6496  -54.7437 O.2       18 UNK        -0.5000 
    104 N         -4.1568  -20.7053  -53.5157 N.am      19 UNK        -0.5000 
    105 CA        -4.3826  -19.4983  -54.3258 C.3       19 UNK         0.1400 
    106 CB        -5.5760  -18.7118  -53.7652 C.3       19 UNK        -0.1800 
    107 C         -4.5707  -19.7414  -55.8371 C.2       19 UNK         0.5000 
    108 O         -4.1315  -18.9165  -56.6398 O.2       19 UNK        -0.5000 
    109 N         -5.1726  -20.8838  -56.1964 N.am      20 UNK        -0.5000 
    110 CA        -5.3609  -21.3347  -57.5771 C.3       20 UNK         0.1400 
    111 CB        -6.2642  -22.5774  -57.5770 C.3       20 UNK        -0.1800 
    112 C         -4.0407  -21.6269  -58.3209 C.2       20 UNK         0.5000 
    113 O         -3.9807  -21.4365  -59.5362 O.2       20 UNK        -0.5000 
    114 N         -3.0121  -22.0691  -57.5850 N.am      21 UNK        -0.5000 
    115 CA        -1.6543  -22.2719  -58.0913 C.3       21 UNK         0.1400 
    116 CB        -1.0205  -23.4716  -57.3694 C.3       21 UNK        -0.1800 
    117 C         -0.7947  -21.0095  -57.8995 C.2       21 UNK         0.5000 
    118 O          0.0473  -20.7146  -58.7485 O.2       21 UNK        -0.5000 
    119 N         -1.0235  -20.2956  -56.7890 N.am      22 UNK        -0.5000 
    120 CA        -0.3601  -19.0362  -56.4177 C.3       22 UNK         0.1400 
    121 C         -0.5969  -17.8787  -57.4294 C.2       22 UNK         0.5000 
    122 N         -1.8167  -17.6952  -57.9213 N.am      22 UNK        -0.7600 
    123 O          0.3290  -17.1490  -57.7729 O.2       22 UNK        -0.5000 
    124 C124       -0.7569  -18.6018  -54.9795 C.3       23 UNK        -0.0398 
    125 S125        0.6393  -17.9916  -53.9818 S.3       23 UNK        -0.2404 
    126 C126        0.4379  -19.0154  -52.4901 C.3       23 UNK        -0.0205 
    127 H127       -5.3714  -12.7476  -48.8386 H         1 UNK         0.0600 
    128 H128       -5.6893  -13.9954  -50.0478 H         1 UNK         0.0600 
    129 H129       -6.1566  -14.2573  -48.3645 H         1 UNK         0.0600 
    130 H130       -3.2434  -12.6880  -48.2235 H         1 UNK         0.3000 
    131 H131       -1.1491  -13.1023  -47.8785 H         1 UNK         0.0600 
    132 H132       -1.2073  -15.8497  -49.2136 H         1 UNK         0.0800 
    133 H133       -1.3113  -14.3923  -50.1520 H         1 UNK         0.0800 
    134 H134        0.6680  -16.5241  -47.7861 H         1 UNK         0.0800 
    135 H135        2.2774  -15.8591  -47.8041 H         1 UNK         0.0800 
    136 H136        0.0279  -17.1099  -50.6072 H         1 UNK         0.1150 
    137 H137        2.9278  -19.9726  -51.9184 H         1 UNK         0.1150 
    138 H138        3.7561  -17.4967  -48.5227 H         1 UNK         0.1150 
    139 H139        5.4624  -18.9351  -49.3308 H         1 UNK         0.0800 
    140 H140        5.3580  -19.5028  -50.9781 H         1 UNK         0.0800 
    141 H141        3.4115  -19.9660  -47.7154 H         1 UNK         0.0800 
    142 H142        4.5520  -21.0947  -47.0553 H         1 UNK         0.0800 
    143 H143        3.0643  -22.9888  -47.8917 H         1 UNK         0.0600 
    144 H144        2.6391  -21.3615  -45.5893 H         1 UNK         0.3000 
    145 H145        0.6726  -23.8233  -43.8636 H         1 UNK         0.0600 
    146 H146        2.5231  -23.4426  -42.2613 H         1 UNK         0.0600 
    147 H147        3.0824  -24.4126  -43.6160 H         1 UNK         0.0600 
    148 H148        3.5076  -22.7082  -43.5237 H         1 UNK         0.0600 
    149 H149        1.5389  -21.2252  -43.0817 H         1 UNK         0.3000 
    150 H150       -1.3706  -19.4580  -44.2227 H         1 UNK         0.0600 
    151 H151       -0.3368  -20.2825  -41.4555 H         1 UNK         0.0600 
    152 H152       -1.9911  -20.3937  -42.0352 H         1 UNK         0.0600 
    153 H153       -1.2564  -18.8202  -41.7745 H         1 UNK         0.0600 
    154 H154        0.8881  -18.4639  -42.8864 H         1 UNK         0.3000 
    155 H155        3.0236  -17.9388  -45.7396 H         1 UNK         0.0600 
    156 H156        1.5173  -16.0890  -43.8174 H         1 UNK         0.0600 
    157 H157        1.5499  -15.9683  -45.5576 H         1 UNK         0.0600 
    158 H158        3.0226  -15.6889  -44.6440 H         1 UNK         0.0600 
    159 H159        3.3495  -17.5908  -42.8997 H         1 UNK         0.3000 
    160 H160        4.8218  -20.7597  -42.2417 H         1 UNK         0.0600 
    161 H161        6.0674  -17.9594  -42.3954 H         1 UNK         0.0600 
    162 H162        6.6872  -19.3986  -43.1962 H         1 UNK         0.0600 
    163 H163        6.6732  -19.3141  -41.4420 H         1 UNK         0.0600 
    164 H164        4.3605  -18.4050  -40.6586 H         1 UNK         0.3000 
    165 H165        1.0452  -19.2028  -39.6296 H         1 UNK         0.0600 
    166 H166        2.0796  -19.0494  -37.3837 H         1 UNK         0.0600 
    167 H167        3.6861  -19.2858  -38.0730 H         1 UNK         0.0600 
    168 H168        2.4967  -20.5810  -38.1347 H         1 UNK         0.0600 
    169 H169        2.8240  -17.1016  -38.8868 H         1 UNK         0.3000 
    170 H170        2.0138  -14.8852  -39.5694 H         1 UNK         0.0600 
    171 H171        4.3123  -15.7080  -40.3152 H         1 UNK         0.0600 
    172 H172        3.8478  -15.4427  -41.9916 H         1 UNK         0.0600 
    173 H173        4.0018  -14.0848  -40.8830 H         1 UNK         0.0600 
    174 H174        0.7378  -15.1208  -42.0898 H         1 UNK         0.3000 
    175 H175        0.1183  -11.6237  -42.4831 H         1 UNK         0.0600 
    176 H176        1.5122  -13.4962  -44.4604 H         1 UNK         0.0600 
    177 H177        0.6234  -12.0313  -44.8683 H         1 UNK         0.0600 
    178 H178        2.1123  -11.9271  -43.9412 H         1 UNK         0.0600 
    179 H179       -0.9149  -13.8192  -43.9466 H         1 UNK         0.3000 
    180 H180       -3.5126  -14.7586  -41.8628 H         1 UNK         0.0600 
    181 H181       -3.9763  -12.3368  -43.6854 H         1 UNK         0.0600 
    182 H182       -4.4261  -12.4417  -41.9877 H         1 UNK         0.0600 
    183 H183       -5.2085  -13.4859  -43.1617 H         1 UNK         0.0600 
    184 H184       -3.3895  -14.4686  -44.7375 H         1 UNK         0.3000 
    185 H185       -1.4672  -17.3240  -45.3926 H         1 UNK         0.0600 
    186 H186       -3.5279  -18.2577  -46.4682 H         1 UNK         0.0600 
    187 H187       -3.5843  -18.4818  -44.7279 H         1 UNK         0.0600 
    188 H188       -4.5334  -17.2064  -45.4801 H         1 UNK         0.0600 
    189 H189       -3.0676  -16.0064  -47.2180 H         1 UNK         0.3000 
    190 H190        0.6758  -20.3721  -47.2160 H         1 UNK         0.3000 
    191 H191       -0.5603  -20.4999  -49.8204 H         1 UNK         0.0600 
    192 H192       -2.2391  -19.0078  -48.7679 H         1 UNK         0.0600 
    193 H193       -0.6222  -18.4768  -48.3373 H         1 UNK         0.0600 
    194 H194       -1.5904  -19.3690  -47.1707 H         1 UNK         0.0600 
    195 H195       -0.8040  -22.4525  -47.0125 H         1 UNK         0.3000 
    196 H196       -1.9036  -24.2464  -46.4097 H         1 UNK         0.0600 
    197 H197       -3.5332  -24.1844  -49.0097 H         1 UNK         0.0600 
    198 H198       -1.9767  -24.9860  -48.8237 H         1 UNK         0.0600 
    199 H199       -3.3675  -25.5399  -47.9088 H         1 UNK         0.0600 
    200 H200       -4.2008  -25.0478  -45.8429 H         1 UNK         0.3000 
    201 H201       -5.4111  -23.1667  -44.1613 H         1 UNK         0.0600 
    202 H202       -6.4904  -25.8321  -45.2293 H         1 UNK         0.0600 
    203 H203       -7.1308  -24.9613  -43.8412 H         1 UNK         0.0600 
    204 H204       -5.5013  -25.6146  -43.7846 H         1 UNK         0.0600 
    205 H205       -6.9123  -21.6508  -44.4435 H         1 UNK         0.3000 
    206 H206       -8.3141  -20.1979  -45.3248 H         1 UNK         0.0600 
    207 H207       -9.9288  -22.1191  -45.2116 H         1 UNK         0.0600 
    208 H208      -10.3238  -20.9905  -46.4959 H         1 UNK         0.0600 
    209 H209       -9.5562  -22.5221  -46.8872 H         1 UNK         0.0600 
    210 H210       -5.7525  -20.7952  -46.7524 H         1 UNK         0.3000 
    211 H211       -4.5368  -20.0801  -48.4177 H         1 UNK         0.0600 
    212 H212       -5.1342  -18.0847  -49.7031 H         1 UNK         0.0600 
    213 H213       -5.6100  -17.8556  -48.0299 H         1 UNK         0.0600 
    214 H214       -6.8255  -18.2302  -49.2514 H         1 UNK         0.0600 
    215 H215       -6.0156  -22.4813  -48.7516 H         1 UNK         0.3000 
    216 H216       -7.3266  -22.7911  -51.1784 H         1 UNK         0.0600 
    217 H217       -5.7568  -24.8207  -49.5125 H         1 UNK         0.0600 
    218 H218       -6.8316  -25.2518  -50.8366 H         1 UNK         0.0600 
    219 H219       -7.4786  -24.4573  -49.4154 H         1 UNK         0.0600 
    220 H220       -3.8465  -22.4562  -50.8011 H         1 UNK         0.3000 
    221 H221       -3.1716  -23.7480  -53.3204 H         1 UNK         0.0600 
    222 H222       -1.5868  -23.5571  -51.3463 H         1 UNK         0.0600 
    223 H223       -1.4836  -21.8221  -51.6559 H         1 UNK         0.0600 
    224 H224       -0.9204  -22.9653  -52.8603 H         1 UNK         0.0600 
    225 H225       -4.7146  -20.7773  -52.6706 H         1 UNK         0.3000 
    226 H226       -3.5003  -18.8703  -54.2107 H         1 UNK         0.0600 
    227 H227       -6.4787  -19.3228  -53.7292 H         1 UNK         0.0600 
    228 H228       -5.3709  -18.3533  -52.7564 H         1 UNK         0.0600 
    229 H229       -5.7946  -17.8352  -54.3767 H         1 UNK         0.0600 
    230 H230       -5.4894  -21.5062  -55.4668 H         1 UNK         0.3000 
    231 H231       -5.8742  -20.5389  -58.1208 H         1 UNK         0.0600 
    232 H232       -5.8156  -23.4004  -57.0191 H         1 UNK         0.0600 
    233 H233       -6.4451  -22.9293  -58.5935 H         1 UNK         0.0600 
    234 H234       -7.2353  -22.3595  -57.1322 H         1 UNK         0.0600 
    235 H235       -3.1287  -22.1474  -56.5811 H         1 UNK         0.3000 
    236 H236       -1.6854  -22.5001  -59.1589 H         1 UNK         0.0600 
    237 H237       -1.6025  -24.3792  -57.5299 H         1 UNK         0.0600 
    238 H238       -0.0127  -23.6614  -57.7407 H         1 UNK         0.0600 
    239 H239       -0.9480  -23.3064  -56.2937 H         1 UNK         0.0600 
    240 H240       -1.6918  -20.6650  -56.1204 H         1 UNK         0.3000 
    241 H241        0.7094  -19.2551  -56.4318 H         1 UNK         0.0600 
    242 H242       -1.9781  -16.9524  -58.5823 H         1 UNK         0.3800 
    243 H243       -2.6011  -18.2520  -57.5921 H         1 UNK         0.3800 
    244 H244       -1.1897  -19.4446  -54.4437 H         1 UNK         0.0800 
    245 H245       -1.5366  -17.8380  -54.9838 H         1 UNK         0.0800 
    246 H246        0.6107  -20.0636  -52.7406 H         1 UNK         0.0800 
    247 H247       -0.5925  -18.9487  -52.1363 H         1 UNK         0.0800 
@<TRIPOS>BOND
     1    1    2 1    
     2    1  127 1    
     3    1  128 1    
     4    1  129 1    
     5    2    3 2    
     6    2    4 am   BACKBONE|DICT|INTERRES
     7    4    5 1    
     8    4  130 1    
     9    5    6 1    
    10    5   65 1    
    11    5  131 1    
    12    6    7 1    
    13    6  132 1    
    14    6  133 1    
    15    7    8 1    
    16    8    9 1    
    17    8  134 1    
    18    8  135 1    
    19    9   10 ar   
    20    9   14 ar   
    21   10   11 ar   
    22   10  136 1    
    23   11   12 ar   
    24   11  126 1    
    25   12   13 ar   
    26   12  137 1    
    27   13   14 ar   
    28   13   15 1    
    29   14  138 1    
    30   15   16 1    
    31   15  139 1    
    32   15  140 1    
    33   16   17 1    
    34   17   18 1    
    35   17  141 1    
    36   17  142 1    
    37   18   19 1    
    38   18   67 1    
    39   18  143 1    
    40   19   20 am   BACKBONE|DICT|INTERRES
    41   19  144 1    
    42   20   21 2    
    43   20   22 1    
    44   22   23 1    
    45   22   24 1    
    46   22  145 1    
    47   23  146 1    
    48   23  147 1    
    49   23  148 1    
    50   24   25 am   BACKBONE|DICT|INTERRES
    51   24  149 1    
    52   25   26 2    
    53   25   27 1    
    54   27   28 1    
    55   27   29 1    
    56   27  150 1    
    57   28  151 1    
    58   28  152 1    
    59   28  153 1    
    60   29   30 am   BACKBONE|DICT|INTERRES
    61   29  154 1    
    62   30   31 2    
    63   30   32 1    
    64   32   33 1    
    65   32   34 1    
    66   32  155 1    
    67   33  156 1    
    68   33  157 1    
    69   33  158 1    
    70   34   35 am   BACKBONE|DICT|INTERRES
    71   34  159 1    
    72   35   36 2    
    73   35   37 1    
    74   37   38 1    
    75   37   39 1    
    76   37  160 1    
    77   38  161 1    
    78   38  162 1    
    79   38  163 1    
    80   39   40 am   BACKBONE|DICT|INTERRES
    81   39  164 1    
    82   40   41 2    
    83   40   42 1    
    84   42   43 1    
    85   42   44 1    
    86   42  165 1    
    87   43  166 1    
    88   43  167 1    
    89   43  168 1    
    90   44   45 am   BACKBONE|DICT|INTERRES
    91   44  169 1    
    92   45   46 2    
    93   45   47 1    
    94   47   48 1    
    95   47   49 1    
    96   47  170 1    
    97   48  171 1    
    98   48  172 1    
    99   48  173 1    
   100   49   50 am   BACKBONE|DICT|INTERRES
   101   49  174 1    
   102   50   51 2    
   103   50   52 1    
   104   52   53 1    
   105   52   54 1    
   106   52  175 1    
   107   53  176 1    
   108   53  177 1    
   109   53  178 1    
   110   54   55 am   BACKBONE|DICT|INTERRES
   111   54  179 1    
   112   55   56 2    
   113   55   57 1    
   114   57   58 1    
   115   57   59 1    
   116   57  180 1    
   117   58  181 1    
   118   58  182 1    
   119   58  183 1    
   120   59   60 am   BACKBONE|DICT|INTERRES
   121   59  184 1    
   122   60   61 2    
   123   60   62 1    
   124   62   63 1    
   125   62   64 1    
   126   62  185 1    
   127   63  186 1    
   128   63  187 1    
   129   63  188 1    
   130   64   65 am   BACKBONE|DICT|INTERRES
   131   64  189 1    
   132   65   66 2    
   133   67   68 2    
   134   67   69 am   BACKBONE|DICT|INTERRES
   135   69   70 1    
   136   69  190 1    
   137   70   71 1    
   138   70   72 1    
   139   70  191 1    
   140   71  192 1    
   141   71  193 1    
   142   71  194 1    
   143   72   73 2    
   144   72   74 am   BACKBONE|DICT|INTERRES
   145   74   75 1    
   146   74  195 1    
   147   75   76 1    
   148   75   77 1    
   149   75  196 1    
   150   76  197 1    
   151   76  198 1    
   152   76  199 1    
   153   77   78 2    
   154   77   79 am   BACKBONE|DICT|INTERRES
   155   79   80 1    
   156   79  200 1    
   157   80   81 1    
   158   80   82 1    
   159   80  201 1    
   160   81  202 1    
   161   81  203 1    
   162   81  204 1    
   163   82   83 2    
   164   82   84 am   BACKBONE|DICT|INTERRES
   165   84   85 1    
   166   84  205 1    
   167   85   86 1    
   168   85   87 1    
   169   85  206 1    
   170   86  207 1    
   171   86  208 1    
   172   86  209 1    
   173   87   88 2    
   174   87   89 am   BACKBONE|DICT|INTERRES
   175   89   90 1    
   176   89  210 1    
   177   90   91 1    
   178   90   92 1    
   179   90  211 1    
   180   91  212 1    
   181   91  213 1    
   182   91  214 1    
   183   92   93 2    
   184   92   94 am   BACKBONE|DICT|INTERRES
   185   94   95 1    
   186   94  215 1    
   187   95   96 1    
   188   95   97 1    
   189   95  216 1    
   190   96  217 1    
   191   96  218 1    
   192   96  219 1    
   193   97   98 2    
   194   97   99 am   BACKBONE|DICT|INTERRES
   195   99  100 1    
   196   99  220 1    
   197  100  101 1    
   198  100  102 1    
   199  100  221 1    
   200  101  222 1    
   201  101  223 1    
   202  101  224 1    
   203  102  103 2    
   204  102  104 am   BACKBONE|DICT|INTERRES
   205  104  105 1    
   206  104  225 1    
   207  105  106 1    
   208  105  107 1    
   209  105  226 1    
   210  106  227 1    
   211  106  228 1    
   212  106  229 1    
   213  107  108 2    
   214  107  109 am   BACKBONE|DICT|INTERRES
   215  109  110 1    
   216  109  230 1    
   217  110  111 1    
   218  110  112 1    
   219  110  231 1    
   220  111  232 1    
   221  111  233 1    
   222  111  234 1    
   223  112  113 2    
   224  112  114 am   BACKBONE|DICT|INTERRES
   225  114  115 1    
   226  114  235 1    
   227  115  116 1    
   228  115  117 1    
   229  115  236 1    
   230  116  237 1    
   231  116  238 1    
   232  116  239 1    
   233  117  118 2    
   234  117  119 am   BACKBONE|DICT|INTERRES
   235  119  120 1    
   236  119  240 1    
   237  120  121 1    
   238  120  124 1    
   239  120  241 1    
   240  121  122 am   BACKBONE|DICT|INTERRES
   241  121  123 2    
   242  122  242 1    
   243  122  243 1    
   244  124  125 1    
   245  124  244 1    
   246  124  245 1    
   247  125  126 1    
   248  126  246 1    
   249  126  247 1    
@<TRIPOS>SUBSTRUCTURE
     1 UNK         1 GROUP             0       ****    0 ROOT    
