@<TRIPOS>MOLECULE
3R540
247   249    1
SMALL
USER_CHARGES


@<TRIPOS>ATOM
      1 CA         -0.2139  -12.8431  -52.6100 C.3       0 UNK        -0.1800 
      2 C          -0.7464  -13.1363  -51.2159 C.2       0 UNK         0.5000 
      3 O          -0.3628  -12.4641  -50.2576 O.2       0 UNK        -0.5000 
      4 N          -1.6518  -14.1143  -51.0946 N.am      1 UNK        -0.5000 
      5 CA         -2.2839  -14.5718  -49.8524 C.3       1 UNK         0.1400 
      6 C6         -2.7386  -16.0502  -49.9709 C.3       23 UNK        -0.0398 
      7 S7         -3.0266  -16.8975  -48.3770 S.3       23 UNK        -0.2404 
      8 C8         -1.3997  -16.8654  -47.5556 C.3       23 UNK        -0.0205 
      9 C9         -0.2942  -17.5120  -48.3751 C.ar      23 UNK        -0.0193 
     10 C10         0.6511  -16.7174  -49.0313 C.ar      23 UNK        -0.1150 
     11 C11         1.6962  -17.3059  -49.7467 C.ar      23 UNK        -0.0193 
     12 C12         1.8116  -18.6987  -49.7709 C.ar      23 UNK        -0.1150 
     13 C13         0.8637  -19.5055  -49.1367 C.ar      23 UNK        -0.0193 
     14 C14        -0.1925  -18.9045  -48.4449 C.ar      23 UNK        -0.1150 
     15 C15         0.9747  -21.0206  -49.2362 C.3       23 UNK        -0.0205 
     16 S16         1.6922  -21.7585  -47.7306 S.3       23 UNK        -0.2404 
     17 C17         0.1932  -22.1016  -46.7528 C.3       23 UNK        -0.0398 
     18 CA         -0.0404  -23.6190  -46.5663 C.3       11 UNK         0.1400 
     19 N           0.9131  -24.2240  -45.6304 N.am      11 UNK        -0.5000 
     20 C           1.1122  -25.5453  -45.5063 C.2       10 UNK         0.5000 
     21 O           0.5100  -26.3882  -46.1697 O.2       10 UNK        -0.5000 
     22 CA          2.1039  -26.0128  -44.4227 C.3       10 UNK         0.1400 
     23 CB          3.5365  -26.0215  -44.9755 C.3       10 UNK        -0.1800 
     24 N           2.0627  -25.1982  -43.2085 N.am      10 UNK        -0.5000 
     25 C           0.9751  -24.9826  -42.4552 C.2       9 UNK         0.5000 
     26 O          -0.1100  -25.5267  -42.6572 O.2       9 UNK        -0.5000 
     27 CA          1.0966  -23.9412  -41.3254 C.3       9 UNK         0.1400 
     28 CB          1.2964  -24.6420  -39.9737 C.3       9 UNK        -0.1800 
     29 N           2.1648  -22.9518  -41.5170 N.am      9 UNK        -0.5000 
     30 C           2.2817  -22.1195  -42.5614 C.2       8 UNK         0.5000 
     31 O           1.5265  -22.1325  -43.5373 O.2       8 UNK        -0.5000 
     32 CA          3.4914  -21.1663  -42.5301 C.3       8 UNK         0.1400 
     33 CB          4.7518  -21.8976  -43.0198 C.3       8 UNK        -0.1800 
     34 N           3.2933  -19.9766  -43.3575 N.am      8 UNK        -0.5000 
     35 C           2.3778  -19.0262  -43.1337 C.2       7 UNK         0.5000 
     36 O           1.6145  -19.0199  -42.1633 O.2       7 UNK        -0.5000 
     37 CA          2.3069  -17.9093  -44.1929 C.3       7 UNK         0.1400 
     38 CB          1.6194  -18.4131  -45.4712 C.3       7 UNK        -0.1800 
     39 N           1.5901  -16.7272  -43.7177 N.am      7 UNK        -0.5000 
     40 C           2.0377  -15.8665  -42.7930 C.2       6 UNK         0.5000 
     41 O           3.1448  -15.9556  -42.2586 O.2       6 UNK        -0.5000 
     42 CA          1.0971  -14.6972  -42.4426 C.3       6 UNK         0.1400 
     43 CB          1.8366  -13.4803  -41.8529 C.3       6 UNK        -0.1800 
     44 N           0.3481  -14.2964  -43.6309 N.am      6 UNK        -0.5000 
     45 C          -0.8648  -13.7396  -43.6665 C.2       5 UNK         0.5000 
     46 O          -1.5190  -13.4708  -42.6576 O.2       5 UNK        -0.5000 
     47 CA         -1.4249  -13.4308  -45.0752 C.3       5 UNK         0.1400 
     48 CB         -2.7670  -12.6809  -45.0352 C.3       5 UNK        -0.1800 
     49 N          -0.4845  -12.6760  -45.9117 N.am      5 UNK        -0.5000 
     50 C           0.6203  -13.1617  -46.4958 C.2       4 UNK         0.5000 
     51 O           0.9540  -14.3445  -46.4095 O.2       4 UNK        -0.5000 
     52 CA          1.4957  -12.1668  -47.2824 C.3       4 UNK         0.1400 
     53 CB          2.3989  -12.8747  -48.3093 C.3       4 UNK        -0.1800 
     54 N           0.6722  -11.1807  -47.9792 N.am      4 UNK        -0.5000 
     55 C           0.4173   -9.9324  -47.5662 C.2       3 UNK         0.5000 
     56 O           0.8613   -9.4503  -46.5243 O.2       3 UNK        -0.5000 
     57 CA         -0.5310   -9.1028  -48.4506 C.3       3 UNK         0.1400 
     58 CB          0.2090   -8.5645  -49.6850 C.3       3 UNK        -0.1800 
     59 N          -1.6826   -9.8937  -48.8851 N.am      3 UNK        -0.5000 
     60 C          -2.7368  -10.1914  -48.1098 C.2       2 UNK         0.5000 
     61 O          -2.8993   -9.7508  -46.9725 O.2       2 UNK        -0.5000 
     62 CA         -3.7318  -11.2100  -48.6817 C.3       2 UNK         0.1400 
     63 CB         -4.5822  -10.6060  -49.8134 C.3       2 UNK        -0.1800 
     64 N          -2.9653  -12.3528  -49.1577 N.am      2 UNK        -0.5000 
     65 C          -3.3929  -13.5913  -49.4052 C.2       1 UNK         0.5000 
     66 O          -4.5691  -13.9449  -49.3163 O.2       1 UNK        -0.5000 
     67 C          -1.5040  -23.8918  -46.1678 C.2       11 UNK         0.5000 
     68 O          -2.3558  -23.9832  -47.0529 O.2       11 UNK        -0.5000 
     69 N          -1.7728  -24.0296  -44.8630 N.am      12 UNK        -0.5000 
     70 CA         -3.0823  -24.4104  -44.3393 C.3       12 UNK         0.1400 
     71 CB         -3.2172  -23.9386  -42.8833 C.3       12 UNK        -0.1800 
     72 C          -3.3045  -25.9276  -44.4569 C.2       12 UNK         0.5000 
     73 O          -4.3787  -26.3491  -44.8840 O.2       12 UNK        -0.5000 
     74 N          -2.2767  -26.7158  -44.1091 N.am      13 UNK        -0.5000 
     75 CA         -2.2860  -28.1800  -44.1395 C.3       13 UNK         0.1400 
     76 CB         -1.0053  -28.7118  -43.4790 C.3       13 UNK        -0.1800 
     77 C          -2.4484  -28.7604  -45.5562 C.2       13 UNK         0.5000 
     78 O          -3.2299  -29.6937  -45.7431 O.2       13 UNK        -0.5000 
     79 N          -1.7339  -28.1824  -46.5318 N.am      14 UNK        -0.5000 
     80 CA         -1.8339  -28.5386  -47.9501 C.3       14 UNK         0.1400 
     81 CB         -0.5421  -28.1079  -48.6636 C.3       14 UNK        -0.1800 
     82 C          -3.0564  -27.9077  -48.6463 C.2       14 UNK         0.5000 
     83 O          -3.3584  -28.2812  -49.7800 O.2       14 UNK        -0.5000 
     84 N          -3.7070  -26.9436  -47.9763 N.am      15 UNK        -0.5000 
     85 CA         -4.8140  -26.1054  -48.4512 C.3       15 UNK         0.1400 
     86 CB         -6.0709  -26.9502  -48.7431 C.3       15 UNK        -0.1800 
     87 C          -4.4238  -25.1839  -49.6270 C.2       15 UNK         0.5000 
     88 O          -5.2941  -24.7274  -50.3685 O.2       15 UNK        -0.5000 
     89 N          -3.1225  -24.8903  -49.7561 N.am      16 UNK        -0.5000 
     90 CA         -2.5528  -23.9765  -50.7455 C.3       16 UNK         0.1400 
     91 CB         -1.0219  -24.0910  -50.7184 C.3       16 UNK        -0.1800 
     92 C          -2.9932  -22.5193  -50.5246 C.2       16 UNK         0.5000 
     93 O          -3.1415  -21.7831  -51.4987 O.2       16 UNK        -0.5000 
     94 N          -3.2509  -22.1513  -49.2596 N.am      17 UNK        -0.5000 
     95 CA         -3.7693  -20.8475  -48.8321 C.3       17 UNK         0.1400 
     96 CB         -3.7634  -20.7938  -47.2949 C.3       17 UNK        -0.1800 
     97 C          -5.1774  -20.5049  -49.3675 C.2       17 UNK         0.5000 
     98 O          -5.5951  -19.3521  -49.2607 O.2       17 UNK        -0.5000 
     99 N          -5.8946  -21.4920  -49.9265 N.am      18 UNK        -0.5000 
    100 CA        -7.1837  -21.2972  -50.5913 C.3       18 UNK         0.1400 
    101 CB        -7.8427  -22.6635  -50.8317 C.3       18 UNK        -0.1800 
    102 C         -7.0670  -20.5139  -51.9149 C.2       18 UNK         0.5000 
    103 O         -8.0402  -19.8768  -52.3208 O.2       18 UNK        -0.5000 
    104 N         -5.8929  -20.5639  -52.5602 N.am      19 UNK        -0.5000 
    105 CA        -5.5761  -19.7732  -53.7445 C.3       19 UNK         0.1400 
    106 CB        -4.5684  -20.5403  -54.6140 C.3       19 UNK        -0.1800 
    107 C         -5.0064  -18.4118  -53.3175 C.2       19 UNK         0.5000 
    108 O         -4.1061  -18.3609  -52.4757 O.2       19 UNK        -0.5000 
    109 N         -5.5136  -17.3325  -53.9266 N.am      20 UNK        -0.5000 
    110 CA        -5.0715  -15.9605  -53.6649 C.3       20 UNK         0.1400 
    111 CB        -6.0243  -14.9735  -54.3548 C.3       20 UNK        -0.1800 
    112 C         -3.6184  -15.7070  -54.1038 C.2       20 UNK         0.5000 
    113 O         -2.8931  -14.9870  -53.4190 O.2       20 UNK        -0.5000 
    114 N         -3.1981  -16.3409  -55.2056 N.am      21 UNK        -0.5000 
    115 CA        -1.8477  -16.2713  -55.7669 C.3       21 UNK         0.1400 
    116 CB        -1.9281  -16.5827  -57.2726 C.3       21 UNK        -0.1800 
    117 C         -0.8564  -17.1901  -55.0180 C.2       21 UNK         0.5000 
    118 O         -0.1925  -18.0201  -55.6416 O.2       21 UNK        -0.5000 
    119 N         -0.7822  -17.0232  -53.6918 N.am      22 UNK        -0.5000 
    120 CA         0.0576  -17.7944  -52.7606 C.3       22 UNK         0.1400 
    121 C         -0.2927  -19.3110  -52.7148 C.2       22 UNK         0.5000 
    122 N         -1.5689  -19.6499  -52.5985 N.am      22 UNK        -0.7600 
    123 O          0.5740  -20.1804  -52.7588 O.2       22 UNK        -0.5000 
    124 C124        1.5752  -17.4805  -52.9182 C.3       23 UNK        -0.0398 
    125 S125        1.9999  -15.8899  -52.1246 S.3       23 UNK        -0.2404 
    126 C126        2.6820  -16.4422  -50.5220 C.3       23 UNK        -0.0205 
    127 H127       -0.5765  -11.8750  -52.9545 H         1 UNK         0.0600 
    128 H128       -0.5216  -13.6028  -53.3286 H         1 UNK         0.0600 
    129 H129        0.8756  -12.8166  -52.5942 H         1 UNK         0.0600 
    130 H130       -2.0325  -14.5193  -51.9480 H         1 UNK         0.3000 
    131 H131       -1.5150  -14.5245  -49.0817 H         1 UNK         0.0600 
    132 H132       -3.6431  -16.1313  -50.5756 H         1 UNK         0.0800 
    133 H133       -1.9866  -16.6300  -50.5046 H         1 UNK         0.0800 
    134 H134       -1.1341  -15.8405  -47.3028 H         1 UNK         0.0800 
    135 H135       -1.4853  -17.3888  -46.6024 H         1 UNK         0.0800 
    136 H136        0.5750  -15.6403  -48.9915 H         1 UNK         0.1150 
    137 H137        2.6229  -19.1599  -50.3160 H         1 UNK         0.1150 
    138 H138       -0.9321  -19.5135  -47.9486 H         1 UNK         0.1150 
    139 H139       -0.0038  -21.4497  -49.4539 H         1 UNK         0.0800 
    140 H140        1.6056  -21.2904  -50.0847 H         1 UNK         0.0800 
    141 H141       -0.6554  -21.6482  -47.2614 H         1 UNK         0.0800 
    142 H142        0.2704  -21.5924  -45.7914 H         1 UNK         0.0800 
    143 H143        0.1034  -24.1043  -47.5334 H         1 UNK         0.0600 
    144 H144        1.3989  -23.5851  -45.0100 H         1 UNK         0.3000 
    145 H145        1.8379  -27.0341  -44.1456 H         1 UNK         0.0600 
    146 H146        4.2380  -26.4308  -44.2484 H         1 UNK         0.0600 
    147 H147        3.6045  -26.6374  -45.8734 H         1 UNK         0.0600 
    148 H148        3.8725  -25.0177  -45.2394 H         1 UNK         0.0600 
    149 H149        2.9087  -24.7050  -42.9666 H         1 UNK         0.3000 
    150 H150        0.1507  -23.3968  -41.2915 H         1 UNK         0.0600 
    151 H151        2.2457  -25.1779  -39.9350 H         1 UNK         0.0600 
    152 H152        0.5024  -25.3668  -39.7876 H         1 UNK         0.0600 
    153 H153        1.2792  -23.9269  -39.1511 H         1 UNK         0.0600 
    154 H154        2.8438  -22.8885  -40.7720 H         1 UNK         0.3000 
    155 H155        3.6491  -20.8392  -41.5003 H         1 UNK         0.0600 
    156 H156        4.6424  -22.2422  -44.0492 H         1 UNK         0.0600 
    157 H157        4.9668  -22.7710  -42.4029 H         1 UNK         0.0600 
    158 H158        5.6272  -21.2494  -42.9743 H         1 UNK         0.0600 
    159 H159        3.8505  -19.9241  -44.1972 H         1 UNK         0.3000 
    160 H160        3.3273  -17.6106  -44.4421 H         1 UNK         0.0600 
    161 H161        0.5882  -18.7155  -45.2854 H         1 UNK         0.0600 
    162 H162        2.1412  -19.2736  -45.8913 H         1 UNK         0.0600 
    163 H163        1.6119  -17.6391  -46.2386 H         1 UNK         0.0600 
    164 H164        0.6563  -16.5995  -44.0765 H         1 UNK         0.3000 
    165 H165        0.3991  -15.0763  -41.6934 H         1 UNK         0.0600 
    166 H166        1.1413  -12.6823  -41.5920 H         1 UNK         0.0600 
    167 H167        2.3736  -13.7489  -40.9425 H         1 UNK         0.0600 
    168 H168        2.5624  -13.0747  -42.5586 H         1 UNK         0.0600 
    169 H169        0.8048  -14.4721  -44.5235 H         1 UNK         0.3000 
    170 H170       -1.6111  -14.3952  -45.5494 H         1 UNK         0.0600 
    171 H171       -3.5029  -13.2181  -44.4357 H         1 UNK         0.0600 
    172 H172       -2.6587  -11.6820  -44.6109 H         1 UNK         0.0600 
    173 H173       -3.1857  -12.5787  -46.0352 H         1 UNK         0.0600 
    174 H174       -0.6616  -11.6852  -45.9945 H         1 UNK         0.3000 
    175 H175        2.1425  -11.6692  -46.5573 H         1 UNK         0.0600 
    176 H176        3.0875  -13.5642  -47.8193 H         1 UNK         0.0600 
    177 H177        1.8168  -13.4498  -49.0295 H         1 UNK         0.0600 
    178 H178        3.0017  -12.1564  -48.8651 H         1 UNK         0.0600 
    179 H179        0.2607  -11.5080  -48.8507 H         1 UNK         0.3000 
    180 H180       -0.8845   -8.2507  -47.8660 H         1 UNK         0.0600 
    181 H181        0.5712   -9.3711  -50.3241 H         1 UNK         0.0600 
    182 H182        1.0717   -7.9649  -49.3917 H         1 UNK         0.0600 
    183 H183       -0.4400   -7.9270  -50.2856 H         1 UNK         0.0600 
    184 H184       -1.6301  -10.2834  -49.8152 H         1 UNK         0.3000 
    185 H185       -4.3922  -11.5358  -47.8758 H         1 UNK         0.0600 
    186 H186       -5.1168   -9.7204  -49.4680 H         1 UNK         0.0600 
    187 H187       -3.9709  -10.3111  -50.6669 H         1 UNK         0.0600 
    188 H188       -5.3286  -11.3165  -50.1687 H         1 UNK         0.0600 
    189 H189       -1.9729  -12.1883  -49.2966 H         1 UNK         0.3000 
    190 H190       -1.0122  -23.9816  -44.1998 H         1 UNK         0.3000 
    191 H191       -3.8574  -23.9098  -44.9243 H         1 UNK         0.0600 
    192 H192       -3.0912  -22.8585  -42.8071 H         1 UNK         0.0600 
    193 H193       -4.2048  -24.1792  -42.4880 H         1 UNK         0.0600 
    194 H194       -2.4815  -24.4080  -42.2302 H         1 UNK         0.0600 
    195 H195       -1.4426  -26.2800  -43.7234 H         1 UNK         0.3000 
    196 H196       -3.1378  -28.5157  -43.5446 H         1 UNK         0.0600 
    197 H197       -1.0082  -29.8018  -43.4424 H         1 UNK         0.0600 
    198 H198       -0.9100  -28.3513  -42.4545 H         1 UNK         0.0600 
    199 H199       -0.1147  -28.4040  -44.0265 H         1 UNK         0.0600 
    200 H200       -1.0649  -27.4531  -46.2958 H         1 UNK         0.3000 
    201 H201       -1.9257  -29.6232  -48.0382 H         1 UNK         0.0600 
    202 H202       -0.5454  -28.4258  -49.7069 H         1 UNK         0.0600 
    203 H203        0.3360  -28.5501  -48.1924 H         1 UNK         0.0600 
    204 H204       -0.4182  -27.0242  -48.6526 H         1 UNK         0.0600 
    205 H205       -3.3873  -26.7358  -47.0402 H         1 UNK         0.3000 
    206 H206       -5.0549  -25.4383  -47.6223 H         1 UNK         0.0600 
    207 H207       -6.3232  -27.5858  -47.8943 H         1 UNK         0.0600 
    208 H208       -6.9339  -26.3122  -48.9370 H         1 UNK         0.0600 
    209 H209       -5.9375  -27.5902  -49.6155 H         1 UNK         0.0600 
    210 H210       -2.4932  -25.2488  -49.0526 H         1 UNK         0.3000 
    211 H211       -2.9046  -24.2836  -51.7325 H         1 UNK         0.0600 
    212 H212       -0.6159  -23.8226  -49.7439 H         1 UNK         0.0600 
    213 H213       -0.5673  -23.4288  -51.4568 H         1 UNK         0.0600 
    214 H214       -0.6981  -25.1062  -50.9485 H         1 UNK         0.0600 
    215 H215       -3.0988  -22.8373  -48.5267 H         1 UNK         0.3000 
    216 H216       -3.0902  -20.0800  -49.2097 H         1 UNK         0.0600 
    217 H217       -4.1331  -19.8325  -46.9350 H         1 UNK         0.0600 
    218 H218       -2.7612  -20.9179  -46.8909 H         1 UNK         0.0600 
    219 H219       -4.3953  -21.5719  -46.8648 H         1 UNK         0.0600 
    220 H220       -5.4940  -22.4193  -49.9803 H         1 UNK         0.3000 
    221 H221       -7.8276  -20.7230  -49.9218 H         1 UNK         0.0600 
    222 H222       -7.2647  -23.2704  -51.5296 H         1 UNK         0.0600 
    223 H223       -7.9443  -23.2247  -49.9026 H         1 UNK         0.0600 
    224 H224       -8.8422  -22.5453  -51.2520 H         1 UNK         0.0600 
    225 H225       -5.1135  -21.0447  -52.1260 H         1 UNK         0.3000 
    226 H226       -6.4797  -19.6166  -54.3376 H         1 UNK         0.0600 
    227 H227       -4.2911  -19.9619  -55.4961 H         1 UNK         0.0600 
    228 H228       -3.6523  -20.7674  -54.0694 H         1 UNK         0.0600 
    229 H229       -4.9894  -21.4837  -54.9617 H         1 UNK         0.0600 
    230 H230       -6.2534  -17.4487  -54.6043 H         1 UNK         0.3000 
    231 H231       -5.1259  -15.7877  -52.5880 H         1 UNK         0.0600 
    232 H232       -6.0346  -15.1107  -55.4368 H         1 UNK         0.0600 
    233 H233       -5.7271  -13.9425  -54.1571 H         1 UNK         0.0600 
    234 H234       -7.0451  -15.0910  -53.9908 H         1 UNK         0.0600 
    235 H235       -3.8481  -16.9497  -55.6799 H         1 UNK         0.3000 
    236 H236       -1.4757  -15.2498  -55.6619 H         1 UNK         0.0600 
    237 H237       -2.5978  -15.8903  -57.7830 H         1 UNK         0.0600 
    238 H238       -0.9493  -16.4907  -57.7452 H         1 UNK         0.0600 
    239 H239       -2.2891  -17.5955  -57.4556 H         1 UNK         0.0600 
    240 H240       -1.3906  -16.3273  -53.2801 H         1 UNK         0.3000 
    241 H241       -0.2335  -17.4540  -51.7683 H         1 UNK         0.0600 
    242 H242       -2.3111  -18.9589  -52.5476 H         1 UNK         0.3800 
    243 H243       -1.8294  -20.6209  -52.4873 H         1 UNK         0.3800 
    244 H244        2.2036  -18.2570  -52.4834 H         1 UNK         0.0800 
    245 H245        1.8600  -17.4402  -53.9696 H         1 UNK         0.0800 
    246 H246        3.6124  -16.9852  -50.6949 H         1 UNK         0.0800 
    247 H247        2.9467  -15.5668  -49.9276 H         1 UNK         0.0800 
@<TRIPOS>BOND
     1    1    2 1    
     2    1  127 1    
     3    1  128 1    
     4    1  129 1    
     5    2    3 2    
     6    2    4 am   BACKBONE|DICT|INTERRES
     7    4    5 1    
     8    4  130 1    
     9    5    6 1    
    10    5   65 1    
    11    5  131 1    
    12    6    7 1    
    13    6  132 1    
    14    6  133 1    
    15    7    8 1    
    16    8    9 1    
    17    8  134 1    
    18    8  135 1    
    19    9   10 ar   
    20    9   14 ar   
    21   10   11 ar   
    22   10  136 1    
    23   11   12 ar   
    24   11  126 1    
    25   12   13 ar   
    26   12  137 1    
    27   13   14 ar   
    28   13   15 1    
    29   14  138 1    
    30   15   16 1    
    31   15  139 1    
    32   15  140 1    
    33   16   17 1    
    34   17   18 1    
    35   17  141 1    
    36   17  142 1    
    37   18   19 1    
    38   18   67 1    
    39   18  143 1    
    40   19   20 am   BACKBONE|DICT|INTERRES
    41   19  144 1    
    42   20   21 2    
    43   20   22 1    
    44   22   23 1    
    45   22   24 1    
    46   22  145 1    
    47   23  146 1    
    48   23  147 1    
    49   23  148 1    
    50   24   25 am   BACKBONE|DICT|INTERRES
    51   24  149 1    
    52   25   26 2    
    53   25   27 1    
    54   27   28 1    
    55   27   29 1    
    56   27  150 1    
    57   28  151 1    
    58   28  152 1    
    59   28  153 1    
    60   29   30 am   BACKBONE|DICT|INTERRES
    61   29  154 1    
    62   30   31 2    
    63   30   32 1    
    64   32   33 1    
    65   32   34 1    
    66   32  155 1    
    67   33  156 1    
    68   33  157 1    
    69   33  158 1    
    70   34   35 am   BACKBONE|DICT|INTERRES
    71   34  159 1    
    72   35   36 2    
    73   35   37 1    
    74   37   38 1    
    75   37   39 1    
    76   37  160 1    
    77   38  161 1    
    78   38  162 1    
    79   38  163 1    
    80   39   40 am   BACKBONE|DICT|INTERRES
    81   39  164 1    
    82   40   41 2    
    83   40   42 1    
    84   42   43 1    
    85   42   44 1    
    86   42  165 1    
    87   43  166 1    
    88   43  167 1    
    89   43  168 1    
    90   44   45 am   BACKBONE|DICT|INTERRES
    91   44  169 1    
    92   45   46 2    
    93   45   47 1    
    94   47   48 1    
    95   47   49 1    
    96   47  170 1    
    97   48  171 1    
    98   48  172 1    
    99   48  173 1    
   100   49   50 am   BACKBONE|DICT|INTERRES
   101   49  174 1    
   102   50   51 2    
   103   50   52 1    
   104   52   53 1    
   105   52   54 1    
   106   52  175 1    
   107   53  176 1    
   108   53  177 1    
   109   53  178 1    
   110   54   55 am   BACKBONE|DICT|INTERRES
   111   54  179 1    
   112   55   56 2    
   113   55   57 1    
   114   57   58 1    
   115   57   59 1    
   116   57  180 1    
   117   58  181 1    
   118   58  182 1    
   119   58  183 1    
   120   59   60 am   BACKBONE|DICT|INTERRES
   121   59  184 1    
   122   60   61 2    
   123   60   62 1    
   124   62   63 1    
   125   62   64 1    
   126   62  185 1    
   127   63  186 1    
   128   63  187 1    
   129   63  188 1    
   130   64   65 am   BACKBONE|DICT|INTERRES
   131   64  189 1    
   132   65   66 2    
   133   67   68 2    
   134   67   69 am   BACKBONE|DICT|INTERRES
   135   69   70 1    
   136   69  190 1    
   137   70   71 1    
   138   70   72 1    
   139   70  191 1    
   140   71  192 1    
   141   71  193 1    
   142   71  194 1    
   143   72   73 2    
   144   72   74 am   BACKBONE|DICT|INTERRES
   145   74   75 1    
   146   74  195 1    
   147   75   76 1    
   148   75   77 1    
   149   75  196 1    
   150   76  197 1    
   151   76  198 1    
   152   76  199 1    
   153   77   78 2    
   154   77   79 am   BACKBONE|DICT|INTERRES
   155   79   80 1    
   156   79  200 1    
   157   80   81 1    
   158   80   82 1    
   159   80  201 1    
   160   81  202 1    
   161   81  203 1    
   162   81  204 1    
   163   82   83 2    
   164   82   84 am   BACKBONE|DICT|INTERRES
   165   84   85 1    
   166   84  205 1    
   167   85   86 1    
   168   85   87 1    
   169   85  206 1    
   170   86  207 1    
   171   86  208 1    
   172   86  209 1    
   173   87   88 2    
   174   87   89 am   BACKBONE|DICT|INTERRES
   175   89   90 1    
   176   89  210 1    
   177   90   91 1    
   178   90   92 1    
   179   90  211 1    
   180   91  212 1    
   181   91  213 1    
   182   91  214 1    
   183   92   93 2    
   184   92   94 am   BACKBONE|DICT|INTERRES
   185   94   95 1    
   186   94  215 1    
   187   95   96 1    
   188   95   97 1    
   189   95  216 1    
   190   96  217 1    
   191   96  218 1    
   192   96  219 1    
   193   97   98 2    
   194   97   99 am   BACKBONE|DICT|INTERRES
   195   99  100 1    
   196   99  220 1    
   197  100  101 1    
   198  100  102 1    
   199  100  221 1    
   200  101  222 1    
   201  101  223 1    
   202  101  224 1    
   203  102  103 2    
   204  102  104 am   BACKBONE|DICT|INTERRES
   205  104  105 1    
   206  104  225 1    
   207  105  106 1    
   208  105  107 1    
   209  105  226 1    
   210  106  227 1    
   211  106  228 1    
   212  106  229 1    
   213  107  108 2    
   214  107  109 am   BACKBONE|DICT|INTERRES
   215  109  110 1    
   216  109  230 1    
   217  110  111 1    
   218  110  112 1    
   219  110  231 1    
   220  111  232 1    
   221  111  233 1    
   222  111  234 1    
   223  112  113 2    
   224  112  114 am   BACKBONE|DICT|INTERRES
   225  114  115 1    
   226  114  235 1    
   227  115  116 1    
   228  115  117 1    
   229  115  236 1    
   230  116  237 1    
   231  116  238 1    
   232  116  239 1    
   233  117  118 2    
   234  117  119 am   BACKBONE|DICT|INTERRES
   235  119  120 1    
   236  119  240 1    
   237  120  121 1    
   238  120  124 1    
   239  120  241 1    
   240  121  122 am   BACKBONE|DICT|INTERRES
   241  121  123 2    
   242  122  242 1    
   243  122  243 1    
   244  124  125 1    
   245  124  244 1    
   246  124  245 1    
   247  125  126 1    
   248  126  246 1    
   249  126  247 1    
@<TRIPOS>SUBSTRUCTURE
     1 UNK         1 GROUP             0       ****    0 ROOT    
