@<TRIPOS>MOLECULE
3R540
247   249    1
SMALL
USER_CHARGES


@<TRIPOS>ATOM
      1 CA          1.2929  -13.1282  -55.1064 C.3       0 UNK        -0.1800 
      2 C           1.6806  -13.6900  -53.7460 C.2       0 UNK         0.5000 
      3 O           0.7997  -13.9941  -52.9415 O.2       0 UNK        -0.5000 
      4 N           2.9909  -13.8318  -53.4954 N.am      1 UNK        -0.5000 
      5 CA          3.5948  -14.3190  -52.2462 C.3       1 UNK         0.1400 
      6 C6          3.1235  -15.7590  -51.8828 C.3       23 UNK        -0.0398 
      7 S7          4.3775  -16.7418  -50.9837 S.3       23 UNK        -0.2404 
      8 C8          4.0577  -18.4285  -51.6012 C.3       23 UNK        -0.0205 
      9 C9          2.8443  -19.0700  -50.9393 C.ar      23 UNK        -0.0193 
     10 C10         1.5543  -18.6933  -51.3252 C.ar      23 UNK        -0.1150 
     11 C11         0.4349  -19.2725  -50.7263 C.ar      23 UNK        -0.0193 
     12 C12         0.6107  -20.2535  -49.7512 C.ar      23 UNK        -0.1150 
     13 C13         1.8890  -20.6622  -49.3697 C.ar      23 UNK        -0.0193 
     14 C14         3.0055  -20.0582  -49.9593 C.ar      23 UNK        -0.1150 
     15 C15         2.0419  -21.7877  -48.3569 C.3       23 UNK        -0.0205 
     16 S16         1.3677  -21.3540  -46.7198 S.3       23 UNK        -0.2404 
     17 C17         1.3548  -22.9908  -45.9003 C.3       23 UNK        -0.0398 
     18 CA         -0.0506  -23.4983  -45.4737 C.3       11 UNK         0.1400 
     19 N          -0.7196  -22.5443  -44.5762 N.am      11 UNK        -0.5000 
     20 C          -1.6785  -22.8281  -43.6835 C.2       10 UNK         0.5000 
     21 O          -2.1443  -23.9587  -43.5299 O.2       10 UNK        -0.5000 
     22 CA         -2.2121  -21.6462  -42.8531 C.3       10 UNK         0.1400 
     23 CB         -3.1420  -22.0746  -41.6995 C.3       10 UNK        -0.1800 
     24 N          -1.1345  -20.7854  -42.3681 N.am      10 UNK        -0.5000 
     25 C          -0.1391  -21.0960  -41.5259 C.2       9 UNK         0.5000 
     26 O           0.0102  -22.1995  -41.0000 O.2       9 UNK        -0.5000 
     27 CA          0.8627  -19.9673  -41.2159 C.3       9 UNK         0.1400 
     28 CB          2.0500  -20.0286  -42.1898 C.3       9 UNK        -0.1800 
     29 N           0.2538  -18.6363  -41.2805 N.am      9 UNK        -0.5000 
     30 C          -0.6574  -18.1683  -40.4153 C.2       8 UNK         0.5000 
     31 O          -1.0168  -18.7750  -39.4054 O.2       8 UNK        -0.5000 
     32 CA         -1.2960  -16.8065  -40.7478 C.3       8 UNK         0.1400 
     33 CB         -0.3942  -15.6513  -40.2875 C.3       8 UNK        -0.1800 
     34 N          -1.6050  -16.6592  -42.1724 N.am      8 UNK        -0.5000 
     35 C          -2.5464  -17.3625  -42.8200 C.2       7 UNK         0.5000 
     36 O          -3.2897  -18.1753  -42.2706 O.2       7 UNK        -0.5000 
     37 CA         -2.6650  -17.1456  -44.3399 C.3       7 UNK         0.1400 
     38 CB         -3.5384  -15.9216  -44.6496 C.3       7 UNK        -0.1800 
     39 N          -1.3663  -17.0063  -44.9986 N.am      7 UNK        -0.5000 
     40 C          -0.4435  -17.9767  -45.0738 C.2       6 UNK         0.5000 
     41 O          -0.6080  -19.1102  -44.6220 O.2       6 UNK        -0.5000 
     42 CA          0.9186  -17.5990  -45.6860 C.3       6 UNK         0.1400 
     43 CB          0.8624  -17.5805  -47.2185 C.3       6 UNK        -0.1800 
     44 N           1.4082  -16.3087  -45.2052 N.am      6 UNK        -0.5000 
     45 C           1.7005  -16.0255  -43.9294 C.2       5 UNK         0.5000 
     46 O           1.6412  -16.8444  -43.0143 O.2       5 UNK        -0.5000 
     47 CA          2.0723  -14.5678  -43.6157 C.3       5 UNK         0.1400 
     48 CB          3.5514  -14.2973  -43.9289 C.3       5 UNK        -0.1800 
     49 N           1.2274  -13.6261  -44.3498 N.am      5 UNK        -0.5000 
     50 C          -0.0670  -13.4075  -44.0792 C.2       4 UNK         0.5000 
     51 O          -0.6750  -13.9573  -43.1611 O.2       4 UNK        -0.5000 
     52 CA         -0.8140  -12.4353  -45.0104 C.3       4 UNK         0.1400 
     53 CB         -0.5595  -10.9793  -44.5927 C.3       4 UNK        -0.1800 
     54 N          -0.4483  -12.6092  -46.4168 N.am      4 UNK        -0.5000 
     55 C          -0.7583  -13.6914  -47.1436 C.2       3 UNK         0.5000 
     56 O          -1.4065  -14.6416  -46.7101 O.2       3 UNK        -0.5000 
     57 CA         -0.2248  -13.7387  -48.5865 C.3       3 UNK         0.1400 
     58 CB         -1.1859  -13.0082  -49.5358 C.3       3 UNK        -0.1800 
     59 N           1.1265  -13.1959  -48.7585 N.am      3 UNK        -0.5000 
     60 C           2.2202  -13.5900  -48.0916 C.2       2 UNK         0.5000 
     61 O           2.1997  -14.3872  -47.1543 O.2       2 UNK        -0.5000 
     62 CA          3.5632  -13.0522  -48.6157 C.3       2 UNK         0.1400 
     63 CB          4.7268  -13.3030  -47.6404 C.3       2 UNK        -0.1800 
     64 N           3.8545  -13.7186  -49.8815 N.am      2 UNK        -0.5000 
     65 C           3.4081  -13.3195  -51.0769 C.2       1 UNK         0.5000 
     66 O           2.8664  -12.2244  -51.2547 O.2       1 UNK        -0.5000 
     67 C          -0.9458  -23.9530  -46.6575 C.2       11 UNK         0.5000 
     68 O          -0.4727  -24.0869  -47.7867 O.2       11 UNK        -0.5000 
     69 N          -2.2367  -24.1886  -46.3849 N.am      12 UNK        -0.5000 
     70 CA         -3.2980  -24.4380  -47.3621 C.3       12 UNK         0.1400 
     71 CB         -4.6520  -24.4772  -46.6397 C.3       12 UNK        -0.1800 
     72 C          -3.0899  -25.7019  -48.2128 C.2       12 UNK         0.5000 
     73 O          -3.4937  -25.7172  -49.3751 O.2       12 UNK        -0.5000 
     74 N          -2.4277  -26.7154  -47.6393 N.am      13 UNK        -0.5000 
     75 CA         -2.0499  -27.9533  -48.3235 C.3       13 UNK         0.1400 
     76 CB         -1.5538  -28.9705  -47.2847 C.3       13 UNK        -0.1800 
     77 C          -0.9879  -27.7383  -49.4200 C.2       13 UNK         0.5000 
     78 O          -1.0002  -28.4565  -50.4202 O.2       13 UNK        -0.5000 
     79 N          -0.1016  -26.7529  -49.2199 N.am      14 UNK        -0.5000 
     80 CA          0.9001  -26.3352  -50.1997 C.3       14 UNK         0.1400 
     81 CB          2.1315  -25.7820  -49.4661 C.3       14 UNK        -0.1800 
     82 C           0.3272  -25.2986  -51.1822 C.2       14 UNK         0.5000 
     83 O           0.6957  -25.3146  -52.3570 O.2       14 UNK        -0.5000 
     84 N          -0.5680  -24.4295  -50.6896 N.am      15 UNK        -0.5000 
     85 CA         -1.2722  -23.4107  -51.4697 C.3       15 UNK         0.1400 
     86 CB         -2.0964  -22.5259  -50.5198 C.3       15 UNK        -0.1800 
     87 C          -2.2034  -24.0218  -52.5296 C.2       15 UNK         0.5000 
     88 O          -2.1770  -23.6011  -53.6860 O.2       15 UNK        -0.5000 
     89 N          -3.0282  -24.9829  -52.0845 N.am      16 UNK        -0.5000 
     90 CA         -4.0999  -25.6626  -52.8175 C.3       16 UNK         0.1400 
     91 CB         -3.5233  -26.5046  -53.9746 C.3       16 UNK        -0.1800 
     92 C          -5.2424  -24.7243  -53.2723 C.2       16 UNK         0.5000 
     93 O          -6.0256  -25.1048  -54.1451 O.2       16 UNK        -0.5000 
     94 N          -5.3373  -23.5270  -52.6768 N.am      17 UNK        -0.5000 
     95 CA         -6.3020  -22.4874  -53.0160 C.3       17 UNK         0.1400 
     96 CB         -5.9107  -21.8195  -54.3502 C.3       17 UNK        -0.1800 
     97 C          -6.3551  -21.4315  -51.9034 C.2       17 UNK         0.5000 
     98 O          -5.3743  -21.2445  -51.1753 O.2       17 UNK        -0.5000 
     99 N          -7.5004  -20.7369  -51.8366 N.am      18 UNK        -0.5000 
    100 CA        -7.7691  -19.4947  -51.0988 C.3       18 UNK         0.1400 
    101 CB        -7.0211  -18.3281  -51.7754 C.3       18 UNK        -0.1800 
    102 C         -7.4994  -19.5413  -49.5798 C.2       18 UNK         0.5000 
    103 O         -7.2577  -18.4939  -48.9804 O.2       18 UNK        -0.5000 
    104 N         -7.5102  -20.7422  -48.9810 N.am      19 UNK        -0.5000 
    105 CA        -7.1952  -21.0155  -47.5702 C.3       19 UNK         0.1400 
    106 CB        -8.3352  -20.5155  -46.6590 C.3       19 UNK        -0.1800 
    107 C         -5.8076  -20.4791  -47.1436 C.2       19 UNK         0.5000 
    108 O         -5.6452  -20.0032  -46.0196 O.2       19 UNK        -0.5000 
    109 N         -4.8461  -20.5506  -48.0766 N.am      20 UNK        -0.5000 
    110 CA        -3.4708  -20.0510  -47.9917 C.3       20 UNK         0.1400 
    111 CB        -2.7300  -20.5789  -46.7494 C.3       20 UNK        -0.1800 
    112 C         -3.3202  -18.5248  -48.1533 C.2       20 UNK         0.5000 
    113 O         -2.1941  -18.0395  -48.0947 O.2       20 UNK        -0.5000 
    114 N         -4.4024  -17.7916  -48.4494 N.am      21 UNK        -0.5000 
    115 CA        -4.3649  -16.3580  -48.7694 C.3       21 UNK         0.1400 
    116 CB        -5.6399  -15.6868  -48.2302 C.3       21 UNK        -0.1800 
    117 C         -4.1674  -16.0959  -50.2817 C.2       21 UNK         0.5000 
    118 O         -4.5406  -15.0298  -50.7711 O.2       21 UNK        -0.5000 
    119 N         -3.6014  -17.0753  -51.0001 N.am      22 UNK        -0.5000 
    120 CA        -3.3638  -17.0780  -52.4552 C.3       22 UNK         0.1400 
    121 C         -2.3226  -16.0505  -52.9977 C.2       22 UNK         0.5000 
    122 N         -1.5580  -15.3720  -52.1526 N.am      22 UNK        -0.7600 
    123 O         -2.2088  -15.8748  -54.2077 O.2       22 UNK        -0.5000 
    124 C124       -3.1065  -18.5219  -52.9847 C.3       23 UNK        -0.0398 
    125 S125       -1.4214  -19.2300  -52.7981 S.3       23 UNK        -0.2404 
    126 C126       -0.9593  -18.8004  -51.0927 C.3       23 UNK        -0.0205 
    127 H127        0.6460  -13.8319  -55.6306 H         1 UNK         0.0600 
    128 H128        0.7495  -12.1916  -54.9828 H         1 UNK         0.0600 
    129 H129        2.1655  -12.9368  -55.7315 H         1 UNK         0.0600 
    130 H130        3.6523  -13.5311  -54.1974 H         1 UNK         0.3000 
    131 H131        4.6664  -14.3499  -52.4494 H         1 UNK         0.0600 
    132 H132        2.8902  -16.2956  -52.8030 H         1 UNK         0.0800 
    133 H133        2.1955  -15.7422  -51.3075 H         1 UNK         0.0800 
    134 H134        4.9454  -19.0346  -51.4150 H         1 UNK         0.0800 
    135 H135        3.9282  -18.4148  -52.6843 H         1 UNK         0.0800 
    136 H136        1.4111  -17.9419  -52.0873 H         1 UNK         0.1150 
    137 H137       -0.2464  -20.6855  -49.2617 H         1 UNK         0.1150 
    138 H138        3.9990  -20.3674  -49.6669 H         1 UNK         0.1150 
    139 H139        1.5144  -22.6579  -48.7459 H         1 UNK         0.0800 
    140 H140        3.0881  -22.0771  -48.2494 H         1 UNK         0.0800 
    141 H141        1.9826  -22.9062  -45.0124 H         1 UNK         0.0800 
    142 H142        1.8538  -23.7293  -46.5296 H         1 UNK         0.0800 
    143 H143        0.1227  -24.4074  -44.8944 H         1 UNK         0.0600 
    144 H144       -0.4255  -21.5797  -44.6697 H         1 UNK         0.3000 
    145 H145       -2.8016  -21.0340  -43.5369 H         1 UNK         0.0600 
    146 H146       -3.5024  -21.2078  -41.1452 H         1 UNK         0.0600 
    147 H147       -4.0168  -22.6029  -42.0801 H         1 UNK         0.0600 
    148 H148       -2.6396  -22.7387  -40.9957 H         1 UNK         0.0600 
    149 H149       -1.0903  -19.8745  -42.8124 H         1 UNK         0.3000 
    150 H150        1.2396  -20.1221  -40.2029 H         1 UNK         0.0600 
    151 H151        2.5405  -21.0019  -42.1488 H         1 UNK         0.0600 
    152 H152        2.7993  -19.2754  -41.9460 H         1 UNK         0.0600 
    153 H153        1.7337  -19.8637  -43.2206 H         1 UNK         0.0600 
    154 H154        0.5555  -18.0369  -42.0451 H         1 UNK         0.3000 
    155 H155       -2.2348  -16.7385  -40.1942 H         1 UNK         0.0600 
    156 H156        0.5566  -15.6435  -40.8200 H         1 UNK         0.0600 
    157 H157       -0.1730  -15.7297  -39.2224 H         1 UNK         0.0600 
    158 H158       -0.8762  -14.6870  -40.4489 H         1 UNK         0.0600 
    159 H159       -1.0706  -15.9667  -42.6850 H         1 UNK         0.3000 
    160 H160       -3.1605  -18.0216  -44.7608 H         1 UNK         0.0600 
    161 H161       -3.7040  -15.8215  -45.7219 H         1 UNK         0.0600 
    162 H162       -3.0795  -14.9986  -44.2939 H         1 UNK         0.0600 
    163 H163       -4.5173  -16.0089  -44.1768 H         1 UNK         0.0600 
    164 H164       -1.1854  -16.1196  -45.4599 H         1 UNK         0.3000 
    165 H165        1.6379  -18.3629  -45.3844 H         1 UNK         0.0600 
    166 H166        1.8513  -17.4351  -47.6537 H         1 UNK         0.0600 
    167 H167        0.4732  -18.5239  -47.5987 H         1 UNK         0.0600 
    168 H168        0.2116  -16.7890  -47.5881 H         1 UNK         0.0600 
    169 H169        1.5340  -15.5793  -45.9034 H         1 UNK         0.3000 
    170 H170        1.9190  -14.4033  -42.5471 H         1 UNK         0.0600 
    171 H171        4.1970  -14.9445  -43.3340 H         1 UNK         0.0600 
    172 H172        3.7840  -14.4820  -44.9775 H         1 UNK         0.0600 
    173 H173        3.8230  -13.2669  -43.6996 H         1 UNK         0.0600 
    174 H174        1.6313  -13.2018  -45.1722 H         1 UNK         0.3000 
    175 H175       -1.8830  -12.6356  -44.9097 H         1 UNK         0.0600 
    176 H176       -1.1475  -10.2877  -45.1964 H         1 UNK         0.0600 
    177 H177       -0.8395  -10.8185  -43.5507 H         1 UNK         0.0600 
    178 H178        0.4914  -10.7065  -44.6963 H         1 UNK         0.0600 
    179 H179        0.0926  -11.8745  -46.8486 H         1 UNK         0.3000 
    180 H180       -0.1873  -14.7877  -48.8860 H         1 UNK         0.0600 
    181 H181       -1.2665  -11.9489  -49.2892 H         1 UNK         0.0600 
    182 H182       -2.1886  -13.4349  -49.4838 H         1 UNK         0.0600 
    183 H183       -0.8533  -13.0833  -50.5712 H         1 UNK         0.0600 
    184 H184        1.2559  -12.5643  -49.5383 H         1 UNK         0.3000 
    185 H185        3.4707  -11.9740  -48.7621 H         1 UNK         0.0600 
    186 H186        4.8739  -14.3664  -47.4464 H         1 UNK         0.0600 
    187 H187        5.6616  -12.9039  -48.0342 H         1 UNK         0.0600 
    188 H188        4.5436  -12.8141  -46.6831 H         1 UNK         0.0600 
    189 H189        4.2637  -14.6417  -49.8112 H         1 UNK         0.3000 
    190 H190       -2.5169  -24.1280  -45.4108 H         1 UNK         0.3000 
    191 H191       -3.3130  -23.5877  -48.0438 H         1 UNK         0.0600 
    192 H192       -4.6928  -25.2840  -45.9069 H         1 UNK         0.0600 
    193 H193       -5.4685  -24.6312  -47.3465 H         1 UNK         0.0600 
    194 H194       -4.8473  -23.5398  -46.1183 H         1 UNK         0.0600 
    195 H195       -2.1333  -26.6133  -46.6792 H         1 UNK         0.3000 
    196 H196       -2.9422  -28.3613  -48.8031 H         1 UNK         0.0600 
    197 H197       -1.2861  -29.9150  -47.7603 H         1 UNK         0.0600 
    198 H198       -2.3250  -29.1876  -46.5455 H         1 UNK         0.0600 
    199 H199       -0.6719  -28.6081  -46.7549 H         1 UNK         0.0600 
    200 H200       -0.1929  -26.1732  -48.3961 H         1 UNK         0.3000 
    201 H201        1.2231  -27.2008  -50.7824 H         1 UNK         0.0600 
    202 H202        2.5995  -26.5517  -48.8524 H         1 UNK         0.0600 
    203 H203        1.8745  -24.9490  -48.8137 H         1 UNK         0.0600 
    204 H204        2.8827  -25.4278  -50.1730 H         1 UNK         0.0600 
    205 H205       -0.7440  -24.4402  -49.6906 H         1 UNK         0.3000 
    206 H206       -0.5227  -22.7905  -51.9659 H         1 UNK         0.0600 
    207 H207       -1.5596  -22.3194  -49.5975 H         1 UNK         0.0600 
    208 H208       -2.3378  -21.5758  -50.9957 H         1 UNK         0.0600 
    209 H209       -3.0424  -22.9871  -50.2383 H         1 UNK         0.0600 
    210 H210       -2.9819  -25.2296  -51.0980 H         1 UNK         0.3000 
    211 H211       -4.5511  -26.3537  -52.1039 H         1 UNK         0.0600 
    212 H212       -3.1210  -25.8778  -54.7711 H         1 UNK         0.0600 
    213 H213       -4.2906  -27.1412  -54.4166 H         1 UNK         0.0600 
    214 H214       -2.7236  -27.1583  -53.6250 H         1 UNK         0.0600 
    215 H215       -4.6858  -23.2766  -51.9449 H         1 UNK         0.3000 
    216 H216       -7.2910  -22.9422  -53.1099 H         1 UNK         0.0600 
    217 H217       -6.5976  -21.0113  -54.6055 H         1 UNK         0.0600 
    218 H218       -5.9329  -22.5299  -55.1767 H         1 UNK         0.0600 
    219 H219       -4.9062  -21.3946  -54.3026 H         1 UNK         0.0600 
    220 H220       -8.2466  -21.0171  -52.4583 H         1 UNK         0.3000 
    221 H221       -8.8381  -19.3045  -51.2021 H         1 UNK         0.0600 
    222 H222       -5.9438  -18.4369  -51.6660 H         1 UNK         0.0600 
    223 H223       -7.2461  -18.2770  -52.8407 H         1 UNK         0.0600 
    224 H224       -7.2998  -17.3671  -51.3415 H         1 UNK         0.0600 
    225 H225       -7.7008  -21.5493  -49.5576 H         1 UNK         0.3000 
    226 H226       -7.1429  -22.1004  -47.4696 H         1 UNK         0.0600 
    227 H227       -9.2970  -20.9217  -46.9720 H         1 UNK         0.0600 
    228 H228       -8.1750  -20.8244  -45.6254 H         1 UNK         0.0600 
    229 H229       -8.4118  -19.4278  -46.6673 H         1 UNK         0.0600 
    230 H230       -5.1092  -20.9182  -48.9849 H         1 UNK         0.3000 
    231 H231       -2.9729  -20.4807  -48.8582 H         1 UNK         0.0600 
    232 H232       -2.9288  -21.6341  -46.5893 H         1 UNK         0.0600 
    233 H233       -3.0243  -20.0494  -45.8450 H         1 UNK         0.0600 
    234 H234       -1.6518  -20.4584  -46.8593 H         1 UNK         0.0600 
    235 H235       -5.3129  -18.2365  -48.5131 H         1 UNK         0.3000 
    236 H236       -3.5181  -15.8953  -48.2579 H         1 UNK         0.0600 
    237 H237       -5.5660  -14.6007  -48.2960 H         1 UNK         0.0600 
    238 H238       -6.5235  -15.9875  -48.7931 H         1 UNK         0.0600 
    239 H239       -5.8077  -15.9365  -47.1824 H         1 UNK         0.0600 
    240 H240       -3.3191  -17.9052  -50.5045 H         1 UNK         0.3000 
    241 H241       -4.3109  -16.7593  -52.8947 H         1 UNK         0.0600 
    242 H242       -0.8305  -14.7587  -52.5142 H         1 UNK         0.3800 
    243 H243       -1.6713  -15.4847  -51.1615 H         1 UNK         0.3800 
    244 H244       -3.8131  -19.2184  -52.5315 H         1 UNK         0.0800 
    245 H245       -3.3346  -18.5481  -54.0514 H         1 UNK         0.0800 
    246 H246       -0.9898  -17.7237  -50.9409 H         1 UNK         0.0800 
    247 H247       -1.6926  -19.2402  -50.4220 H         1 UNK         0.0800 
@<TRIPOS>BOND
     1    1    2 1    
     2    1  127 1    
     3    1  128 1    
     4    1  129 1    
     5    2    3 2    
     6    2    4 am   BACKBONE|DICT|INTERRES
     7    4    5 1    
     8    4  130 1    
     9    5    6 1    
    10    5   65 1    
    11    5  131 1    
    12    6    7 1    
    13    6  132 1    
    14    6  133 1    
    15    7    8 1    
    16    8    9 1    
    17    8  134 1    
    18    8  135 1    
    19    9   10 ar   
    20    9   14 ar   
    21   10   11 ar   
    22   10  136 1    
    23   11   12 ar   
    24   11  126 1    
    25   12   13 ar   
    26   12  137 1    
    27   13   14 ar   
    28   13   15 1    
    29   14  138 1    
    30   15   16 1    
    31   15  139 1    
    32   15  140 1    
    33   16   17 1    
    34   17   18 1    
    35   17  141 1    
    36   17  142 1    
    37   18   19 1    
    38   18   67 1    
    39   18  143 1    
    40   19   20 am   BACKBONE|DICT|INTERRES
    41   19  144 1    
    42   20   21 2    
    43   20   22 1    
    44   22   23 1    
    45   22   24 1    
    46   22  145 1    
    47   23  146 1    
    48   23  147 1    
    49   23  148 1    
    50   24   25 am   BACKBONE|DICT|INTERRES
    51   24  149 1    
    52   25   26 2    
    53   25   27 1    
    54   27   28 1    
    55   27   29 1    
    56   27  150 1    
    57   28  151 1    
    58   28  152 1    
    59   28  153 1    
    60   29   30 am   BACKBONE|DICT|INTERRES
    61   29  154 1    
    62   30   31 2    
    63   30   32 1    
    64   32   33 1    
    65   32   34 1    
    66   32  155 1    
    67   33  156 1    
    68   33  157 1    
    69   33  158 1    
    70   34   35 am   BACKBONE|DICT|INTERRES
    71   34  159 1    
    72   35   36 2    
    73   35   37 1    
    74   37   38 1    
    75   37   39 1    
    76   37  160 1    
    77   38  161 1    
    78   38  162 1    
    79   38  163 1    
    80   39   40 am   BACKBONE|DICT|INTERRES
    81   39  164 1    
    82   40   41 2    
    83   40   42 1    
    84   42   43 1    
    85   42   44 1    
    86   42  165 1    
    87   43  166 1    
    88   43  167 1    
    89   43  168 1    
    90   44   45 am   BACKBONE|DICT|INTERRES
    91   44  169 1    
    92   45   46 2    
    93   45   47 1    
    94   47   48 1    
    95   47   49 1    
    96   47  170 1    
    97   48  171 1    
    98   48  172 1    
    99   48  173 1    
   100   49   50 am   BACKBONE|DICT|INTERRES
   101   49  174 1    
   102   50   51 2    
   103   50   52 1    
   104   52   53 1    
   105   52   54 1    
   106   52  175 1    
   107   53  176 1    
   108   53  177 1    
   109   53  178 1    
   110   54   55 am   BACKBONE|DICT|INTERRES
   111   54  179 1    
   112   55   56 2    
   113   55   57 1    
   114   57   58 1    
   115   57   59 1    
   116   57  180 1    
   117   58  181 1    
   118   58  182 1    
   119   58  183 1    
   120   59   60 am   BACKBONE|DICT|INTERRES
   121   59  184 1    
   122   60   61 2    
   123   60   62 1    
   124   62   63 1    
   125   62   64 1    
   126   62  185 1    
   127   63  186 1    
   128   63  187 1    
   129   63  188 1    
   130   64   65 am   BACKBONE|DICT|INTERRES
   131   64  189 1    
   132   65   66 2    
   133   67   68 2    
   134   67   69 am   BACKBONE|DICT|INTERRES
   135   69   70 1    
   136   69  190 1    
   137   70   71 1    
   138   70   72 1    
   139   70  191 1    
   140   71  192 1    
   141   71  193 1    
   142   71  194 1    
   143   72   73 2    
   144   72   74 am   BACKBONE|DICT|INTERRES
   145   74   75 1    
   146   74  195 1    
   147   75   76 1    
   148   75   77 1    
   149   75  196 1    
   150   76  197 1    
   151   76  198 1    
   152   76  199 1    
   153   77   78 2    
   154   77   79 am   BACKBONE|DICT|INTERRES
   155   79   80 1    
   156   79  200 1    
   157   80   81 1    
   158   80   82 1    
   159   80  201 1    
   160   81  202 1    
   161   81  203 1    
   162   81  204 1    
   163   82   83 2    
   164   82   84 am   BACKBONE|DICT|INTERRES
   165   84   85 1    
   166   84  205 1    
   167   85   86 1    
   168   85   87 1    
   169   85  206 1    
   170   86  207 1    
   171   86  208 1    
   172   86  209 1    
   173   87   88 2    
   174   87   89 am   BACKBONE|DICT|INTERRES
   175   89   90 1    
   176   89  210 1    
   177   90   91 1    
   178   90   92 1    
   179   90  211 1    
   180   91  212 1    
   181   91  213 1    
   182   91  214 1    
   183   92   93 2    
   184   92   94 am   BACKBONE|DICT|INTERRES
   185   94   95 1    
   186   94  215 1    
   187   95   96 1    
   188   95   97 1    
   189   95  216 1    
   190   96  217 1    
   191   96  218 1    
   192   96  219 1    
   193   97   98 2    
   194   97   99 am   BACKBONE|DICT|INTERRES
   195   99  100 1    
   196   99  220 1    
   197  100  101 1    
   198  100  102 1    
   199  100  221 1    
   200  101  222 1    
   201  101  223 1    
   202  101  224 1    
   203  102  103 2    
   204  102  104 am   BACKBONE|DICT|INTERRES
   205  104  105 1    
   206  104  225 1    
   207  105  106 1    
   208  105  107 1    
   209  105  226 1    
   210  106  227 1    
   211  106  228 1    
   212  106  229 1    
   213  107  108 2    
   214  107  109 am   BACKBONE|DICT|INTERRES
   215  109  110 1    
   216  109  230 1    
   217  110  111 1    
   218  110  112 1    
   219  110  231 1    
   220  111  232 1    
   221  111  233 1    
   222  111  234 1    
   223  112  113 2    
   224  112  114 am   BACKBONE|DICT|INTERRES
   225  114  115 1    
   226  114  235 1    
   227  115  116 1    
   228  115  117 1    
   229  115  236 1    
   230  116  237 1    
   231  116  238 1    
   232  116  239 1    
   233  117  118 2    
   234  117  119 am   BACKBONE|DICT|INTERRES
   235  119  120 1    
   236  119  240 1    
   237  120  121 1    
   238  120  124 1    
   239  120  241 1    
   240  121  122 am   BACKBONE|DICT|INTERRES
   241  121  123 2    
   242  122  242 1    
   243  122  243 1    
   244  124  125 1    
   245  124  244 1    
   246  124  245 1    
   247  125  126 1    
   248  126  246 1    
   249  126  247 1    
@<TRIPOS>SUBSTRUCTURE
     1 UNK         1 GROUP             0       ****    0 ROOT    
