@<TRIPOS>MOLECULE
3R540
247   249    1
SMALL
USER_CHARGES


@<TRIPOS>ATOM
      1 CA         -0.2810  -13.4695  -52.4032 C.3       0 UNK        -0.1800 
      2 C           0.1787  -12.7650  -51.1337 C.2       0 UNK         0.5000 
      3 O           0.0700  -11.5423  -51.0347 O.2       0 UNK        -0.5000 
      4 N           0.6983  -13.5317  -50.1695 N.am      1 UNK        -0.5000 
      5 CA          1.1118  -13.0643  -48.8435 C.3       1 UNK         0.1400 
      6 C6          2.1628  -14.0151  -48.2087 C.3       23 UNK        -0.0398 
      7 S7          1.6363  -15.7632  -48.1019 S.3       23 UNK        -0.2404 
      8 C8          2.5873  -16.4873  -49.4729 C.3       23 UNK        -0.0205 
      9 C9          1.9575  -17.7824  -49.9553 C.ar      23 UNK        -0.0193 
     10 C10         0.8846  -17.7431  -50.8484 C.ar      23 UNK        -0.1150 
     11 C11         0.3099  -18.9237  -51.3248 C.ar      23 UNK        -0.0193 
     12 C12         0.8069  -20.1553  -50.8854 C.ar      23 UNK        -0.1150 
     13 C13         1.8783  -20.2096  -49.9847 C.ar      23 UNK        -0.0193 
     14 C14         2.4533  -19.0171  -49.5306 C.ar      23 UNK        -0.1150 
     15 C15         2.4193  -21.5585  -49.5158 C.3       23 UNK        -0.0205 
     16 S16         2.5681  -21.6851  -47.6992 S.3       23 UNK        -0.2404 
     17 C17         0.8589  -21.3323  -47.1784 C.3       23 UNK        -0.0398 
     18 CA          0.2749  -22.4073  -46.2328 C.3       11 UNK         0.1400 
     19 N           0.9542  -22.4199  -44.9392 N.am      11 UNK        -0.5000 
     20 C           1.1719  -23.4945  -44.1741 C.2       10 UNK         0.5000 
     21 O           0.8169  -24.6334  -44.4823 O.2       10 UNK        -0.5000 
     22 CA          1.8906  -23.2361  -42.8307 C.3       10 UNK         0.1400 
     23 CB          2.6154  -24.4812  -42.2790 C.3       10 UNK        -0.1800 
     24 N           2.7842  -22.0718  -42.8742 N.am      10 UNK        -0.5000 
     25 C           3.8958  -21.9142  -43.6107 C.2       9 UNK         0.5000 
     26 O           4.3880  -22.8019  -44.3078 O.2       9 UNK        -0.5000 
     27 CA          4.5669  -20.5237  -43.5905 C.3       9 UNK         0.1400 
     28 CB          4.3825  -19.8247  -44.9473 C.3       9 UNK        -0.1800 
     29 N           4.0595  -19.6394  -42.5394 N.am      9 UNK        -0.5000 
     30 C           4.3532  -19.7405  -41.2364 C.2       8 UNK         0.5000 
     31 O           5.1440  -20.5641  -40.7753 O.2       8 UNK        -0.5000 
     32 CA          3.6041  -18.7867  -40.2845 C.3       8 UNK         0.1400 
     33 CB          4.3312  -17.4377  -40.1799 C.3       8 UNK        -0.1800 
     34 N           2.2089  -18.5635  -40.6762 N.am      8 UNK        -0.5000 
     35 C           1.2665  -19.5174  -40.7069 C.2       7 UNK         0.5000 
     36 O           1.4672  -20.6872  -40.3813 O.2       7 UNK        -0.5000 
     37 CA         -0.1181  -19.1173  -41.2437 C.3       7 UNK         0.1400 
     38 CB         -0.9407  -18.3914  -40.1696 C.3       7 UNK        -0.1800 
     39 N          -0.0336  -18.2952  -42.4512 N.am      7 UNK        -0.5000 
     40 C           0.4402  -18.7274  -43.6282 C.2       6 UNK         0.5000 
     41 O           0.7886  -19.8887  -43.8325 O.2       6 UNK        -0.5000 
     42 CA          0.5783  -17.6931  -44.7584 C.3       6 UNK         0.1400 
     43 CB         -0.7596  -17.5082  -45.4895 C.3       6 UNK        -0.1800 
     44 N           1.0683  -16.4036  -44.2740 N.am      6 UNK        -0.5000 
     45 C           2.2667  -16.2110  -43.7053 C.2       5 UNK         0.5000 
     46 O           3.1128  -17.0947  -43.5765 O.2       5 UNK        -0.5000 
     47 CA          2.5401  -14.8153  -43.1212 C.3       5 UNK         0.1400 
     48 CB          2.9795  -13.8267  -44.2106 C.3       5 UNK        -0.1800 
     49 N           1.3741  -14.2859  -42.4154 N.am      5 UNK        -0.5000 
     50 C           0.9182  -14.7602  -41.2482 C.2       4 UNK         0.5000 
     51 O           1.4600  -15.6715  -40.6225 O.2       4 UNK        -0.5000 
     52 CA         -0.3822  -14.1341  -40.7111 C.3       4 UNK         0.1400 
     53 CB         -0.0833  -12.8342  -39.9496 C.3       4 UNK        -0.1800 
     54 N          -1.3561  -13.8631  -41.7706 N.am      4 UNK        -0.5000 
     55 C          -1.9890  -14.8136  -42.4726 C.2       3 UNK         0.5000 
     56 O          -1.8394  -16.0189  -42.2778 O.2       3 UNK        -0.5000 
     57 CA         -2.9057  -14.3401  -43.6169 C.3       3 UNK         0.1400 
     58 CB         -4.3091  -14.0152  -43.0841 C.3       3 UNK        -0.1800 
     59 N          -2.3865  -13.1859  -44.3595 N.am      3 UNK        -0.5000 
     60 C          -1.2118  -13.1603  -45.0025 C.2       2 UNK         0.5000 
     61 O          -0.4003  -14.0870  -44.9722 O.2       2 UNK        -0.5000 
     62 CA         -0.8641  -11.8642  -45.7594 C.3       2 UNK         0.1400 
     63 CB         -0.2885  -10.8242  -44.7852 C.3       2 UNK        -0.1800 
     64 N           0.1126  -12.0935  -46.8267 N.am      2 UNK        -0.5000 
     65 C          -0.1079  -12.8363  -47.9204 C.2       1 UNK         0.5000 
     66 O          -1.2057  -13.3280  -48.2000 O.2       1 UNK        -0.5000 
     67 C          -1.2313  -22.1413  -46.0768 C.2       11 UNK         0.5000 
     68 O          -1.9708  -22.4640  -47.0029 O.2       11 UNK        -0.5000 
     69 N          -1.6574  -21.5273  -44.9602 N.am      12 UNK        -0.5000 
     70 CA         -2.9902  -20.9450  -44.7383 C.3       12 UNK         0.1400 
     71 CB         -3.1118  -20.4836  -43.2787 C.3       12 UNK        -0.1800 
     72 C          -4.1932  -21.8275  -45.1254 C.2       12 UNK         0.5000 
     73 O          -5.1515  -21.3192  -45.7074 O.2       12 UNK        -0.5000 
     74 N          -4.1050  -23.1322  -44.8353 N.am      13 UNK        -0.5000 
     75 CA         -5.1288  -24.1265  -45.1673 C.3       13 UNK         0.1400 
     76 CB         -4.7885  -25.4482  -44.4621 C.3       13 UNK        -0.1800 
     77 C          -5.3064  -24.3546  -46.6827 C.2       13 UNK         0.5000 
     78 O          -6.4124  -24.6753  -47.1186 O.2       13 UNK        -0.5000 
     79 N          -4.2248  -24.1810  -47.4525 N.am      14 UNK        -0.5000 
     80 CA         -4.2120  -24.2787  -48.9098 C.3       14 UNK         0.1400 
     81 CB         -2.8711  -24.8767  -49.3648 C.3       14 UNK        -0.1800 
     82 C          -4.4353  -22.8998  -49.5481 C.2       14 UNK         0.5000 
     83 O          -5.2139  -22.7860  -50.4948 O.2       14 UNK        -0.5000 
     84 N          -3.7704  -21.8681  -49.0081 N.am      15 UNK        -0.5000 
     85 CA         -3.8105  -20.4784  -49.4716 C.3       15 UNK         0.1400 
     86 CB         -2.7821  -19.6452  -48.6937 C.3       15 UNK        -0.1800 
     87 C          -5.2090  -19.8360  -49.4040 C.2       15 UNK         0.5000 
     88 O          -5.4905  -18.9348  -50.1931 O.2       15 UNK        -0.5000 
     89 N          -6.0880  -20.3588  -48.5367 N.am      16 UNK        -0.5000 
     90 CA         -7.5219  -20.0523  -48.4955 C.3       16 UNK         0.1400 
     91 CB         -8.1547  -20.7962  -47.3098 C.3       16 UNK        -0.1800 
     92 C          -8.2722  -20.3925  -49.8041 C.2       16 UNK         0.5000 
     93 O          -9.2870  -19.7608  -50.0989 O.2       16 UNK        -0.5000 
     94 N          -7.7458  -21.3555  -50.5726 N.am      17 UNK        -0.5000 
     95 CA         -8.1981  -21.7404  -51.9102 C.3       17 UNK         0.1400 
     96 CB         -8.5044  -23.2486  -51.9042 C.3       17 UNK        -0.1800 
     97 C          -7.1395  -21.3770  -52.9753 C.2       17 UNK         0.5000 
     98 O          -7.1247  -21.9748  -54.0526 O.2       17 UNK        -0.5000 
     99 N          -6.2469  -20.4281  -52.6461 N.am      18 UNK        -0.5000 
    100 CA        -5.1186  -19.9286  -53.4422 C.3       18 UNK         0.1400 
    101 CB        -5.6231  -19.2253  -54.7180 C.3       18 UNK        -0.1800 
    102 C         -4.0384  -20.9879  -53.7501 C.2       18 UNK         0.5000 
    103 O         -3.2332  -20.7864  -54.6600 O.2       18 UNK        -0.5000 
    104 N         -4.0424  -22.1112  -53.0167 N.am      19 UNK        -0.5000 
    105 CA        -3.1403  -23.2657  -53.1298 C.3       19 UNK         0.1400 
    106 CB        -1.7361  -22.8820  -52.6198 C.3       19 UNK        -0.1800 
    107 C         -3.0983  -23.9217  -54.5299 C.2       19 UNK         0.5000 
    108 O         -2.1643  -24.6693  -54.8226 O.2       19 UNK        -0.5000 
    109 N         -4.0958  -23.6081  -55.3730 N.am      20 UNK        -0.5000 
    110 CA        -4.1878  -23.9079  -56.8055 C.3       20 UNK         0.1400 
    111 CB        -4.4112  -25.4182  -57.0287 C.3       20 UNK        -0.1800 
    112 C         -3.0034  -23.3457  -57.6297 C.2       20 UNK         0.5000 
    113 O         -2.6542  -23.9240  -58.6610 O.2       20 UNK        -0.5000 
    114 N         -2.3976  -22.2421  -57.1642 N.am      21 UNK        -0.5000 
    115 CA        -1.1783  -21.6695  -57.7407 C.3       21 UNK         0.1400 
    116 CB         0.0491  -22.2775  -57.0401 C.3       21 UNK        -0.1800 
    117 C         -1.1356  -20.1350  -57.6664 C.2       21 UNK         0.5000 
    118 O         -0.5926  -19.5085  -58.5775 O.2       21 UNK        -0.5000 
    119 N         -1.6941  -19.5506  -56.6003 N.am      22 UNK        -0.5000 
    120 CA        -1.6939  -18.1012  -56.3394 C.3       22 UNK         0.1400 
    121 C         -2.8361  -17.3216  -57.0559 C.2       22 UNK         0.5000 
    122 N         -3.7384  -17.9721  -57.7806 N.am      22 UNK        -0.7600 
    123 O         -2.8989  -16.0987  -56.9634 O.2       22 UNK        -0.5000 
    124 C124       -1.6687  -17.7965  -54.8178 C.3       23 UNK        -0.0398 
    125 S125       -0.1931  -18.4860  -53.9930 S.3       23 UNK        -0.2404 
    126 C126       -0.8317  -18.8479  -52.3275 C.3       23 UNK        -0.0205 
    127 H127       -0.1033  -14.5444  -52.3593 H         1 UNK         0.0600 
    128 H128       -1.3480  -13.3080  -52.5562 H         1 UNK         0.0600 
    129 H129        0.2523  -13.0728  -53.2671 H         1 UNK         0.0600 
    130 H130        0.7073  -14.5341  -50.2828 H         1 UNK         0.3000 
    131 H131        1.5938  -12.0923  -48.9701 H         1 UNK         0.0600 
    132 H132        2.4328  -13.6783  -47.2086 H         1 UNK         0.0800 
    133 H133        3.0898  -13.9570  -48.7806 H         1 UNK         0.0800 
    134 H134        3.6150  -16.6561  -49.1473 H         1 UNK         0.0800 
    135 H135        2.6413  -15.7858  -50.3067 H         1 UNK         0.0800 
    136 H136        0.5040  -16.7908  -51.1887 H         1 UNK         0.1150 
    137 H137        0.3658  -21.0706  -51.2537 H         1 UNK         0.1150 
    138 H138        3.2850  -19.0516  -48.8409 H         1 UNK         0.1150 
    139 H139        1.7859  -22.3731  -49.8705 H         1 UNK         0.0800 
    140 H140        3.4024  -21.7157  -49.9611 H         1 UNK         0.0800 
    141 H141        0.2402  -21.2462  -48.0733 H         1 UNK         0.0800 
    142 H142        0.8431  -20.3476  -46.7080 H         1 UNK         0.0800 
    143 H143        0.3830  -23.3828  -46.7119 H         1 UNK         0.0600 
    144 H144        1.2241  -21.5102  -44.5723 H         1 UNK         0.3000 
    145 H145        1.1045  -22.9774  -42.1201 H         1 UNK         0.0600 
    146 H146        3.1146  -24.2602  -41.3356 H         1 UNK         0.0600 
    147 H147        1.9099  -25.2910  -42.0897 H         1 UNK         0.0600 
    148 H148        3.3639  -24.8592  -42.9757 H         1 UNK         0.0600 
    149 H149        2.4711  -21.2756  -42.3336 H         1 UNK         0.3000 
    150 H150        5.6354  -20.6778  -43.4278 H         1 UNK         0.0600 
    151 H151        4.7916  -20.4273  -45.7590 H         1 UNK         0.0600 
    152 H152        4.8932  -18.8619  -44.9693 H         1 UNK         0.0600 
    153 H153        3.3289  -19.6498  -45.1684 H         1 UNK         0.0600 
    154 H154        3.4605  -18.8766  -42.8429 H         1 UNK         0.3000 
    155 H155        3.6002  -19.2462  -39.2939 H         1 UNK         0.0600 
    156 H156        4.3515  -16.9154  -41.1364 H         1 UNK         0.0600 
    157 H157        5.3644  -17.5747  -39.8584 H         1 UNK         0.0600 
    158 H158        3.8479  -16.7848  -39.4529 H         1 UNK         0.0600 
    159 H159        1.9523  -17.6125  -40.9217 H         1 UNK         0.3000 
    160 H160       -0.6439  -20.0388  -41.5004 H         1 UNK         0.0600 
    161 H161       -1.9548  -18.1954  -40.5184 H         1 UNK         0.0600 
    162 H162       -0.4924  -17.4375  -39.8923 H         1 UNK         0.0600 
    163 H163       -1.0196  -18.9938  -39.2639 H         1 UNK         0.0600 
    164 H164       -0.3801  -17.3435  -42.3798 H         1 UNK         0.3000 
    165 H165        1.3077  -18.0745  -45.4758 H         1 UNK         0.0600 
    166 H166       -0.6699  -16.7863  -46.3014 H         1 UNK         0.0600 
    167 H167       -1.0973  -18.4486  -45.9265 H         1 UNK         0.0600 
    168 H168       -1.5419  -17.1571  -44.8166 H         1 UNK         0.0600 
    169 H169        0.4528  -15.6020  -44.3967 H         1 UNK         0.3000 
    170 H170        3.3594  -14.9112  -42.4054 H         1 UNK         0.0600 
    171 H171        3.8262  -14.2178  -44.7763 H         1 UNK         0.0600 
    172 H172        2.1760  -13.6246  -44.9167 H         1 UNK         0.0600 
    173 H173        3.2883  -12.8759  -43.7763 H         1 UNK         0.0600 
    174 H174        0.8303  -13.5878  -42.9001 H         1 UNK         0.3000 
    175 H175       -0.8286  -14.8439  -40.0114 H         1 UNK         0.0600 
    176 H176       -0.9876  -12.4245  -39.4992 H         1 UNK         0.0600 
    177 H177        0.6292  -13.0105  -39.1425 H         1 UNK         0.0600 
    178 H178        0.3424  -12.0714  -40.6028 H         1 UNK         0.0600 
    179 H179       -1.5345  -12.8958  -41.9964 H         1 UNK         0.3000 
    180 H180       -2.9957  -15.1676  -44.3235 H         1 UNK         0.0600 
    181 H181       -4.2944  -13.1653  -42.4006 H         1 UNK         0.0600 
    182 H182       -4.7275  -14.8649  -42.5428 H         1 UNK         0.0600 
    183 H183       -4.9958  -13.7809  -43.8977 H         1 UNK         0.0600 
    184 H184       -2.9918  -12.3793  -44.4137 H         1 UNK         0.3000 
    185 H185       -1.7765  -11.4665  -46.2085 H         1 UNK         0.0600 
    186 H186        0.6305  -11.1775  -44.3152 H         1 UNK         0.0600 
    187 H187       -0.0650   -9.8871  -45.2956 H         1 UNK         0.0600 
    188 H188       -0.9972  -10.5950  -43.9885 H         1 UNK         0.0600 
    189 H189        1.0388  -11.7293  -46.6613 H         1 UNK         0.3000 
    190 H190       -0.9555  -21.2974  -44.2698 H         1 UNK         0.3000 
    191 H191       -3.0490  -20.0533  -45.3631 H         1 UNK         0.0600 
    192 H192       -2.4361  -19.6552  -43.0739 H         1 UNK         0.0600 
    193 H193       -2.8868  -21.2895  -42.5794 H         1 UNK         0.0600 
    194 H194       -4.1196  -20.1284  -43.0587 H         1 UNK         0.0600 
    195 H195       -3.2718  -23.4681  -44.3750 H         1 UNK         0.3000 
    196 H196       -6.0836  -23.7677  -44.7769 H         1 UNK         0.0600 
    197 H197       -5.5451  -26.2067  -44.6673 H         1 UNK         0.0600 
    198 H198       -4.7450  -25.3189  -43.3805 H         1 UNK         0.0600 
    199 H199       -3.8277  -25.8447  -44.7930 H         1 UNK         0.0600 
    200 H200       -3.3718  -23.8408  -47.0217 H         1 UNK         0.3000 
    201 H201       -5.0106  -24.9430  -49.2470 H         1 UNK         0.0600 
    202 H202       -2.7023  -25.8518  -48.9079 H         1 UNK         0.0600 
    203 H203       -2.0277  -24.2364  -49.1033 H         1 UNK         0.0600 
    204 H204       -2.8513  -25.0202  -50.4447 H         1 UNK         0.0600 
    205 H205       -3.1369  -22.0628  -48.2343 H         1 UNK         0.3000 
    206 H206       -3.5104  -20.4812  -50.5211 H         1 UNK         0.0600 
    207 H207       -1.7764  -20.0478  -48.8130 H         1 UNK         0.0600 
    208 H208       -2.7606  -18.6149  -49.0516 H         1 UNK         0.0600 
    209 H209       -3.0119  -19.6184  -47.6297 H         1 UNK         0.0600 
    210 H210       -5.7573  -21.0526  -47.8774 H         1 UNK         0.3000 
    211 H211       -7.6283  -18.9790  -48.3264 H         1 UNK         0.0600 
    212 H212       -8.0213  -21.8756  -47.3959 H         1 UNK         0.0600 
    213 H213       -9.2258  -20.5995  -47.2483 H         1 UNK         0.0600 
    214 H214       -7.7133  -20.4787  -46.3650 H         1 UNK         0.0600 
    215 H215       -6.8950  -21.8170  -50.2640 H         1 UNK         0.3000 
    216 H216       -9.1119  -21.2057  -52.1757 H         1 UNK         0.0600 
    217 H217       -8.9058  -23.5744  -52.8645 H         1 UNK         0.0600 
    218 H218       -9.2456  -23.4960  -51.1442 H         1 UNK         0.0600 
    219 H219       -7.6090  -23.8383  -51.7029 H         1 UNK         0.0600 
    220 H220       -6.3373  -19.9945  -51.7339 H         1 UNK         0.3000 
    221 H221       -4.6259  -19.1752  -52.8267 H         1 UNK         0.0600 
    222 H222       -6.0454  -19.9318  -55.4330 H         1 UNK         0.0600 
    223 H223       -6.3884  -18.4852  -54.4846 H         1 UNK         0.0600 
    224 H224       -4.8134  -18.6996  -55.2219 H         1 UNK         0.0600 
    225 H225       -4.7413  -22.1991  -52.2849 H         1 UNK         0.3000 
    226 H226       -3.5438  -24.0273  -52.4630 H         1 UNK         0.0600 
    227 H227       -1.7862  -22.4435  -51.6230 H         1 UNK         0.0600 
    228 H228       -1.2504  -22.1632  -53.2807 H         1 UNK         0.0600 
    229 H229       -1.0876  -23.7562  -52.5541 H         1 UNK         0.0600 
    230 H230       -4.8179  -22.9974  -55.0142 H         1 UNK         0.3000 
    231 H231       -5.0760  -23.3873  -57.1659 H         1 UNK         0.0600 
    232 H232       -5.2541  -25.7827  -56.4415 H         1 UNK         0.0600 
    233 H233       -3.5327  -26.0024  -56.7534 H         1 UNK         0.0600 
    234 H234       -4.6312  -25.6320  -58.0752 H         1 UNK         0.0600 
    235 H235       -2.7474  -21.8166  -56.3122 H         1 UNK         0.3000 
    236 H236       -1.1247  -21.9218  -58.8019 H         1 UNK         0.0600 
    237 H237        0.9757  -21.8652  -57.4415 H         1 UNK         0.0600 
    238 H238        0.0355  -22.0781  -55.9676 H         1 UNK         0.0600 
    239 H239        0.0870  -23.3582  -57.1779 H         1 UNK         0.0600 
    240 H240       -2.1410  -20.1126  -55.8798 H         1 UNK         0.3000 
    241 H241       -0.7720  -17.6891  -56.7542 H         1 UNK         0.0600 
    242 H242       -4.4681  -17.4563  -58.2468 H         1 UNK         0.3800 
    243 H243       -3.6903  -18.9734  -57.8750 H         1 UNK         0.3800 
    244 H244       -1.6655  -16.7198  -54.6394 H         1 UNK         0.0800 
    245 H245       -2.5685  -18.1820  -54.3386 H         1 UNK         0.0800 
    246 H246       -1.3959  -19.7812  -52.3486 H         1 UNK         0.0800 
    247 H247       -1.5294  -18.0675  -52.0195 H         1 UNK         0.0800 
@<TRIPOS>BOND
     1    1    2 1    
     2    1  127 1    
     3    1  128 1    
     4    1  129 1    
     5    2    3 2    
     6    2    4 am   BACKBONE|DICT|INTERRES
     7    4    5 1    
     8    4  130 1    
     9    5    6 1    
    10    5   65 1    
    11    5  131 1    
    12    6    7 1    
    13    6  132 1    
    14    6  133 1    
    15    7    8 1    
    16    8    9 1    
    17    8  134 1    
    18    8  135 1    
    19    9   10 ar   
    20    9   14 ar   
    21   10   11 ar   
    22   10  136 1    
    23   11   12 ar   
    24   11  126 1    
    25   12   13 ar   
    26   12  137 1    
    27   13   14 ar   
    28   13   15 1    
    29   14  138 1    
    30   15   16 1    
    31   15  139 1    
    32   15  140 1    
    33   16   17 1    
    34   17   18 1    
    35   17  141 1    
    36   17  142 1    
    37   18   19 1    
    38   18   67 1    
    39   18  143 1    
    40   19   20 am   BACKBONE|DICT|INTERRES
    41   19  144 1    
    42   20   21 2    
    43   20   22 1    
    44   22   23 1    
    45   22   24 1    
    46   22  145 1    
    47   23  146 1    
    48   23  147 1    
    49   23  148 1    
    50   24   25 am   BACKBONE|DICT|INTERRES
    51   24  149 1    
    52   25   26 2    
    53   25   27 1    
    54   27   28 1    
    55   27   29 1    
    56   27  150 1    
    57   28  151 1    
    58   28  152 1    
    59   28  153 1    
    60   29   30 am   BACKBONE|DICT|INTERRES
    61   29  154 1    
    62   30   31 2    
    63   30   32 1    
    64   32   33 1    
    65   32   34 1    
    66   32  155 1    
    67   33  156 1    
    68   33  157 1    
    69   33  158 1    
    70   34   35 am   BACKBONE|DICT|INTERRES
    71   34  159 1    
    72   35   36 2    
    73   35   37 1    
    74   37   38 1    
    75   37   39 1    
    76   37  160 1    
    77   38  161 1    
    78   38  162 1    
    79   38  163 1    
    80   39   40 am   BACKBONE|DICT|INTERRES
    81   39  164 1    
    82   40   41 2    
    83   40   42 1    
    84   42   43 1    
    85   42   44 1    
    86   42  165 1    
    87   43  166 1    
    88   43  167 1    
    89   43  168 1    
    90   44   45 am   BACKBONE|DICT|INTERRES
    91   44  169 1    
    92   45   46 2    
    93   45   47 1    
    94   47   48 1    
    95   47   49 1    
    96   47  170 1    
    97   48  171 1    
    98   48  172 1    
    99   48  173 1    
   100   49   50 am   BACKBONE|DICT|INTERRES
   101   49  174 1    
   102   50   51 2    
   103   50   52 1    
   104   52   53 1    
   105   52   54 1    
   106   52  175 1    
   107   53  176 1    
   108   53  177 1    
   109   53  178 1    
   110   54   55 am   BACKBONE|DICT|INTERRES
   111   54  179 1    
   112   55   56 2    
   113   55   57 1    
   114   57   58 1    
   115   57   59 1    
   116   57  180 1    
   117   58  181 1    
   118   58  182 1    
   119   58  183 1    
   120   59   60 am   BACKBONE|DICT|INTERRES
   121   59  184 1    
   122   60   61 2    
   123   60   62 1    
   124   62   63 1    
   125   62   64 1    
   126   62  185 1    
   127   63  186 1    
   128   63  187 1    
   129   63  188 1    
   130   64   65 am   BACKBONE|DICT|INTERRES
   131   64  189 1    
   132   65   66 2    
   133   67   68 2    
   134   67   69 am   BACKBONE|DICT|INTERRES
   135   69   70 1    
   136   69  190 1    
   137   70   71 1    
   138   70   72 1    
   139   70  191 1    
   140   71  192 1    
   141   71  193 1    
   142   71  194 1    
   143   72   73 2    
   144   72   74 am   BACKBONE|DICT|INTERRES
   145   74   75 1    
   146   74  195 1    
   147   75   76 1    
   148   75   77 1    
   149   75  196 1    
   150   76  197 1    
   151   76  198 1    
   152   76  199 1    
   153   77   78 2    
   154   77   79 am   BACKBONE|DICT|INTERRES
   155   79   80 1    
   156   79  200 1    
   157   80   81 1    
   158   80   82 1    
   159   80  201 1    
   160   81  202 1    
   161   81  203 1    
   162   81  204 1    
   163   82   83 2    
   164   82   84 am   BACKBONE|DICT|INTERRES
   165   84   85 1    
   166   84  205 1    
   167   85   86 1    
   168   85   87 1    
   169   85  206 1    
   170   86  207 1    
   171   86  208 1    
   172   86  209 1    
   173   87   88 2    
   174   87   89 am   BACKBONE|DICT|INTERRES
   175   89   90 1    
   176   89  210 1    
   177   90   91 1    
   178   90   92 1    
   179   90  211 1    
   180   91  212 1    
   181   91  213 1    
   182   91  214 1    
   183   92   93 2    
   184   92   94 am   BACKBONE|DICT|INTERRES
   185   94   95 1    
   186   94  215 1    
   187   95   96 1    
   188   95   97 1    
   189   95  216 1    
   190   96  217 1    
   191   96  218 1    
   192   96  219 1    
   193   97   98 2    
   194   97   99 am   BACKBONE|DICT|INTERRES
   195   99  100 1    
   196   99  220 1    
   197  100  101 1    
   198  100  102 1    
   199  100  221 1    
   200  101  222 1    
   201  101  223 1    
   202  101  224 1    
   203  102  103 2    
   204  102  104 am   BACKBONE|DICT|INTERRES
   205  104  105 1    
   206  104  225 1    
   207  105  106 1    
   208  105  107 1    
   209  105  226 1    
   210  106  227 1    
   211  106  228 1    
   212  106  229 1    
   213  107  108 2    
   214  107  109 am   BACKBONE|DICT|INTERRES
   215  109  110 1    
   216  109  230 1    
   217  110  111 1    
   218  110  112 1    
   219  110  231 1    
   220  111  232 1    
   221  111  233 1    
   222  111  234 1    
   223  112  113 2    
   224  112  114 am   BACKBONE|DICT|INTERRES
   225  114  115 1    
   226  114  235 1    
   227  115  116 1    
   228  115  117 1    
   229  115  236 1    
   230  116  237 1    
   231  116  238 1    
   232  116  239 1    
   233  117  118 2    
   234  117  119 am   BACKBONE|DICT|INTERRES
   235  119  120 1    
   236  119  240 1    
   237  120  121 1    
   238  120  124 1    
   239  120  241 1    
   240  121  122 am   BACKBONE|DICT|INTERRES
   241  121  123 2    
   242  122  242 1    
   243  122  243 1    
   244  124  125 1    
   245  124  244 1    
   246  124  245 1    
   247  125  126 1    
   248  126  246 1    
   249  126  247 1    
@<TRIPOS>SUBSTRUCTURE
     1 UNK         1 GROUP             0       ****    0 ROOT    
