@<TRIPOS>MOLECULE
3R540
247   249    1
SMALL
USER_CHARGES


@<TRIPOS>ATOM
      1 CA         -2.2128  -13.0890  -43.2852 C.3       0 UNK        -0.1800 
      2 C          -2.3065  -13.1721  -44.8024 C.2       0 UNK         0.5000 
      3 O          -3.4020  -13.3180  -45.3440 O.2       0 UNK        -0.5000 
      4 N          -1.1641  -13.0743  -45.4871 N.am      1 UNK        -0.5000 
      5 CA         -1.0353  -13.0518  -46.9415 C.3       1 UNK         0.1400 
      6 C6         -1.2085  -14.4533  -47.5903 C.3       23 UNK        -0.0398 
      7 S7         -1.7850  -14.3388  -49.3194 S.3       23 UNK        -0.2404 
      8 C8         -2.3266  -16.0435  -49.6476 C.3       23 UNK        -0.0205 
      9 C9         -1.1566  -16.9538  -49.9879 C.ar      23 UNK        -0.0193 
     10 C10        -0.7571  -17.1131  -51.3187 C.ar      23 UNK        -0.1150 
     11 C11         0.3003  -17.9685  -51.6501 C.ar      23 UNK        -0.0193 
     12 C12         0.9699  -18.6472  -50.6280 C.ar      23 UNK        -0.1150 
     13 C13         0.5858  -18.4906  -49.2943 C.ar      23 UNK        -0.0193 
     14 C14        -0.4844  -17.6490  -48.9794 C.ar      23 UNK        -0.1150 
     15 C15         1.3541  -19.2061  -48.1964 C.3       23 UNK        -0.0205 
     16 S16         0.9658  -20.9823  -48.1188 S.3       23 UNK        -0.2404 
     17 C17        -0.7424  -20.9718  -47.4822 C.3       23 UNK        -0.0398 
     18 CA         -1.0380  -22.2317  -46.6355 C.3       11 UNK         0.1400 
     19 N          -0.3133  -22.2390  -45.3551 N.am      11 UNK        -0.5000 
     20 C          -0.2736  -23.2495  -44.4719 C.2       10 UNK         0.5000 
     21 O          -0.8813  -24.3105  -44.6205 O.2       10 UNK        -0.5000 
     22 CA          0.5364  -23.0194  -43.1860 C.3       10 UNK         0.1400 
     23 CB          2.0456  -23.1271  -43.4537 C.3       10 UNK        -0.1800 
     24 N           0.2218  -21.7178  -42.5981 N.am      10 UNK        -0.5000 
     25 C          -0.8239  -21.4900  -41.7902 C.2       9 UNK         0.5000 
     26 O          -1.5690  -22.3788  -41.3772 O.2       9 UNK        -0.5000 
     27 CA         -1.1080  -20.0281  -41.3844 C.3       9 UNK         0.1400 
     28 CB         -0.4368  -19.6984  -40.0428 C.3       9 UNK        -0.1800 
     29 N          -0.6881  -19.0445  -42.3830 N.am      9 UNK        -0.5000 
     30 C          -1.1848  -18.9514  -43.6241 C.2       8 UNK         0.5000 
     31 O          -2.0941  -19.6593  -44.0559 O.2       8 UNK        -0.5000 
     32 CA         -0.4973  -17.9453  -44.5640 C.3       8 UNK         0.1400 
     33 CB         -1.0861  -16.5417  -44.3832 C.3       8 UNK        -0.1800 
     34 N           0.9578  -17.8960  -44.3963 N.am      8 UNK        -0.5000 
     35 C           1.7837  -18.9451  -44.5264 C.2       7 UNK         0.5000 
     36 O           1.4013  -20.0763  -44.8152 O.2       7 UNK        -0.5000 
     37 CA          3.2740  -18.7065  -44.2474 C.3       7 UNK         0.1400 
     38 CB          3.9556  -18.0169  -45.4380 C.3       7 UNK        -0.1800 
     39 N           3.4608  -17.9204  -43.0304 N.am      7 UNK        -0.5000 
     40 C           3.2564  -18.3954  -41.7929 C.2       6 UNK         0.5000 
     41 O           2.9782  -19.5691  -41.5474 O.2       6 UNK        -0.5000 
     42 CA          3.3468  -17.3788  -40.6396 C.3       6 UNK         0.1400 
     43 CB          4.7899  -17.2736  -40.1246 C.3       6 UNK        -0.1800 
     44 N           2.8743  -16.0475  -41.0253 N.am      6 UNK        -0.5000 
     45 C           1.6003  -15.7482  -41.3177 C.2       5 UNK         0.5000 
     46 O           0.6748  -16.5573  -41.2484 O.2       5 UNK        -0.5000 
     47 CA          1.3349  -14.3198  -41.8326 C.3       5 UNK         0.1400 
     48 CB          1.1393  -13.3425  -40.6649 C.3       5 UNK        -0.1800 
     49 N           2.4063  -13.8340  -42.7103 N.am      5 UNK        -0.5000 
     50 C           2.6581  -14.3502  -43.9195 C.2       4 UNK         0.5000 
     51 O           1.9664  -15.2351  -44.4300 O.2       4 UNK        -0.5000 
     52 CA          3.9150  -13.8555  -44.6508 C.3       4 UNK         0.1400 
     53 CB          5.1541  -14.5488  -44.0417 C.3       4 UNK        -0.1800 
     54 N           3.7287  -14.1631  -46.0699 N.am      4 UNK        -0.5000 
     55 C           4.6167  -14.2425  -47.0683 C.2       3 UNK         0.5000 
     56 O           5.8297  -14.0674  -46.9527 O.2       3 UNK        -0.5000 
     57 CA          4.0182  -14.5337  -48.4594 C.3       3 UNK         0.1400 
     58 CB          3.5195  -15.9863  -48.5588 C.3       3 UNK        -0.1800 
     59 N           2.9169  -13.6246  -48.7822 N.am      3 UNK        -0.5000 
     60 C           3.0375  -12.2968  -48.9321 C.2       2 UNK         0.5000 
     61 O           4.1155  -11.7012  -48.9193 O.2       2 UNK        -0.5000 
     62 CA          1.7378  -11.4891  -49.1221 C.3       2 UNK         0.1400 
     63 CB          1.5033  -11.1937  -50.6117 C.3       2 UNK        -0.1800 
     64 N           0.5395  -12.1313  -48.5743 N.am      2 UNK        -0.5000 
     65 C           0.3200  -12.4038  -47.2818 C.2       1 UNK         0.5000 
     66 O           1.1356  -12.1737  -46.3835 O.2       1 UNK        -0.5000 
     67 C          -2.5573  -22.4516  -46.4869 C.2       11 UNK         0.5000 
     68 O          -3.1748  -22.9701  -47.4186 O.2       11 UNK        -0.5000 
     69 N          -3.1181  -22.1380  -45.3098 N.am      12 UNK        -0.5000 
     70 CA         -4.4708  -22.4926  -44.8694 C.3       12 UNK         0.1400 
     71 CB         -4.6542  -22.0459  -43.4120 C.3       12 UNK        -0.1800 
     72 C          -4.8044  -23.9924  -45.0158 C.2       12 UNK         0.5000 
     73 O          -5.9492  -24.3265  -45.3210 O.2       12 UNK        -0.5000 
     74 N          -3.7949  -24.8545  -44.8388 N.am      13 UNK        -0.5000 
     75 CA         -3.8725  -26.2901  -45.0869 C.3       13 UNK         0.1400 
     76 CB         -3.3190  -27.0444  -43.8672 C.3       13 UNK        -0.1800 
     77 C          -3.0912  -26.6612  -46.3574 C.2       13 UNK         0.5000 
     78 O          -3.6412  -27.3274  -47.2340 O.2       13 UNK        -0.5000 
     79 N          -1.8275  -26.2200  -46.4415 N.am      14 UNK        -0.5000 
     80 CA         -0.8478  -26.6494  -47.4444 C.3       14 UNK         0.1400 
     81 CB          0.5459  -26.1498  -47.0318 C.3       14 UNK        -0.1800 
     82 C          -1.1657  -26.2256  -48.8902 C.2       14 UNK         0.5000 
     83 O          -0.7487  -26.9173  -49.8199 O.2       14 UNK        -0.5000 
     84 N          -1.8958  -25.1169  -49.0561 N.am      15 UNK        -0.5000 
     85 CA         -2.3540  -24.5996  -50.3469 C.3       15 UNK         0.1400 
     86 CB         -1.6836  -23.2385  -50.6071 C.3       15 UNK        -0.1800 
     87 C          -3.8889  -24.4848  -50.3841 C.2       15 UNK         0.5000 
     88 O          -4.4157  -23.8104  -51.2699 O.2       15 UNK        -0.5000 
     89 N          -4.5744  -25.1067  -49.4098 N.am      16 UNK        -0.5000 
     90 CA         -6.0249  -25.0908  -49.1895 C.3       16 UNK         0.1400 
     91 CB         -6.7317  -25.9585  -50.2501 C.3       16 UNK        -0.1800 
     92 C          -6.6094  -23.6644  -49.0784 C.2       16 UNK         0.5000 
     93 O          -7.6576  -23.3781  -49.6590 O.2       16 UNK        -0.5000 
     94 N          -5.8944  -22.7962  -48.3465 N.am      17 UNK        -0.5000 
     95 CA         -6.1602  -21.3668  -48.1531 C.3       17 UNK         0.1400 
     96 CB         -7.5062  -21.1287  -47.4368 C.3       17 UNK        -0.1800 
     97 C          -5.9926  -20.5657  -49.4566 C.2       17 UNK         0.5000 
     98 O          -6.8141  -19.7027  -49.7698 O.2       17 UNK        -0.5000 
     99 N          -4.9024  -20.8771  -50.1726 N.am      18 UNK        -0.5000 
    100 CA        -4.4773  -20.3016  -51.4491 C.3       18 UNK         0.1400 
    101 CB        -4.0998  -18.8166  -51.2852 C.3       18 UNK        -0.1800 
    102 C         -5.5045  -20.5619  -52.5671 C.2       18 UNK         0.5000 
    103 O         -6.0158  -19.6269  -53.1847 O.2       18 UNK        -0.5000 
    104 N         -5.7790  -21.8518  -52.8038 N.am      19 UNK        -0.5000 
    105 CA        -6.6134  -22.3451  -53.9034 C.3       19 UNK         0.1400 
    106 CB        -7.0400  -23.7871  -53.5917 C.3       19 UNK        -0.1800 
    107 C         -5.9091  -22.2663  -55.2755 C.2       19 UNK         0.5000 
    108 O         -6.5725  -22.3779  -56.3079 O.2       19 UNK        -0.5000 
    109 N         -4.5832  -22.0713  -55.2607 N.am      20 UNK        -0.5000 
    110 CA        -3.7403  -21.7591  -56.4141 C.3       20 UNK         0.1400 
    111 CB        -2.2717  -21.9144  -55.9799 C.3       20 UNK        -0.1800 
    112 C         -4.0070  -20.3411  -56.9671 C.2       20 UNK         0.5000 
    113 O         -4.8035  -19.5873  -56.4034 O.2       20 UNK        -0.5000 
    114 N         -3.3038  -19.9801  -58.0497 N.am      21 UNK        -0.5000 
    115 CA        -3.4136  -18.6907  -58.7473 C.3       21 UNK         0.1400 
    116 CB        -2.4720  -18.7015  -59.9616 C.3       21 UNK        -0.1800 
    117 C         -3.1468  -17.4463  -57.8711 C.2       21 UNK         0.5000 
    118 O         -3.6603  -16.3700  -58.1798 O.2       21 UNK        -0.5000 
    119 N         -2.3718  -17.6175  -56.7934 N.am      22 UNK        -0.5000 
    120 CA        -2.1482  -16.6140  -55.7419 C.3       22 UNK         0.1400 
    121 C         -3.3190  -16.4507  -54.7247 C.2       22 UNK         0.5000 
    122 N         -4.3631  -17.2695  -54.7597 N.am      22 UNK        -0.7600 
    123 O         -3.2834  -15.5491  -53.8920 O.2       22 UNK        -0.5000 
    124 C124       -0.7871  -16.8330  -55.0345 C.3       23 UNK        -0.0398 
    125 S125       -0.6004  -18.4803  -54.2615 S.3       23 UNK        -0.2404 
    126 C126        0.7609  -18.1491  -53.0936 C.3       23 UNK        -0.0205 
    127 H127       -2.9918  -12.4339  -42.8952 H         1 UNK         0.0600 
    128 H128       -1.2501  -12.6917  -42.9636 H         1 UNK         0.0600 
    129 H129       -2.3447  -14.0768  -42.8442 H         1 UNK         0.0600 
    130 H130       -0.2854  -12.9073  -45.0109 H         1 UNK         0.3000 
    131 H131       -1.8101  -12.3801  -47.3184 H         1 UNK         0.0600 
    132 H132       -0.2876  -15.0369  -47.5408 H         1 UNK         0.0800 
    133 H133       -1.9567  -15.0269  -47.0423 H         1 UNK         0.0800 
    134 H134       -2.8827  -16.4349  -48.7945 H         1 UNK         0.0800 
    135 H135       -3.0296  -16.0269  -50.4823 H         1 UNK         0.0800 
    136 H136       -1.2802  -16.5747  -52.0955 H         1 UNK         0.1150 
    137 H137        1.7992  -19.2986  -50.8657 H         1 UNK         0.1150 
    138 H138       -0.7889  -17.5255  -47.9504 H         1 UNK         0.1150 
    139 H139        2.4237  -19.0897  -48.3756 H         1 UNK         0.0800 
    140 H140        1.1561  -18.7391  -47.2343 H         1 UNK         0.0800 
    141 H141       -1.4062  -20.9002  -48.3449 H         1 UNK         0.0800 
    142 H142       -0.9174  -20.0735  -46.8928 H         1 UNK         0.0800 
    143 H143       -0.6780  -23.0943  -47.1979 H         1 UNK         0.0600 
    144 H144        0.2536  -21.4146  -45.1628 H         1 UNK         0.3000 
    145 H145        0.2716  -23.8074  -42.4777 H         1 UNK         0.0600 
    146 H146        2.6184  -22.9763  -42.5385 H         1 UNK         0.0600 
    147 H147        2.3003  -24.1154  -43.8386 H         1 UNK         0.0600 
    148 H148        2.3888  -22.3959  -44.1851 H         1 UNK         0.0600 
    149 H149        0.7663  -20.9309  -42.9278 H         1 UNK         0.3000 
    150 H150       -2.1881  -19.9290  -41.2586 H         1 UNK         0.0600 
    151 H151       -0.7610  -20.3887  -39.2630 H         1 UNK         0.0600 
    152 H152       -0.6902  -18.6910  -39.7117 H         1 UNK         0.0600 
    153 H153        0.6493  -19.7649  -40.1100 H         1 UNK         0.0600 
    154 H154        0.0246  -18.3813  -42.0990 H         1 UNK         0.3000 
    155 H155       -0.6962  -18.2565  -45.5886 H         1 UNK         0.0600 
    156 H156       -0.9530  -16.1764  -43.3656 H         1 UNK         0.0600 
    157 H157       -2.1552  -16.5341  -44.5985 H         1 UNK         0.0600 
    158 H158       -0.6111  -15.8314  -45.0576 H         1 UNK         0.0600 
    159 H159        1.3555  -16.9783  -44.2131 H         1 UNK         0.3000 
    160 H160        3.7485  -19.6803  -44.1074 H         1 UNK         0.0600 
    161 H161        3.5234  -17.0386  -45.6435 H         1 UNK         0.0600 
    162 H162        3.8531  -18.6160  -46.3432 H         1 UNK         0.0600 
    163 H163        5.0224  -17.8837  -45.2595 H         1 UNK         0.0600 
    164 H164        3.6544  -16.9382  -43.1447 H         1 UNK         0.3000 
    165 H165        2.7162  -17.7426  -39.8253 H         1 UNK         0.0600 
    166 H166        4.8534  -16.6101  -39.2620 H         1 UNK         0.0600 
    167 H167        5.1639  -18.2492  -39.8107 H         1 UNK         0.0600 
    168 H168        5.4661  -16.8940  -40.8917 H         1 UNK         0.0600 
    169 H169        3.5699  -15.3203  -41.0975 H         1 UNK         0.3000 
    170 H170        0.4093  -14.3484  -42.4096 H         1 UNK         0.0600 
    171 H171        0.3334  -13.6754  -40.0093 H         1 UNK         0.0600 
    172 H172        2.0408  -13.2514  -40.0578 H         1 UNK         0.0600 
    173 H173        0.8738  -12.3482  -41.0244 H         1 UNK         0.0600 
    174 H174        3.0033  -13.1061  -42.3441 H         1 UNK         0.3000 
    175 H175        3.9909  -12.7734  -44.5346 H         1 UNK         0.0600 
    176 H176        5.1836  -15.6115  -44.2792 H         1 UNK         0.0600 
    177 H177        6.0794  -14.1001  -44.4013 H         1 UNK         0.0600 
    178 H178        5.1722  -14.4547  -42.9553 H         1 UNK         0.0600 
    179 H179        2.7577  -14.3392  -46.2924 H         1 UNK         0.3000 
    180 H180        4.8060  -14.3910  -49.2020 H         1 UNK         0.0600 
    181 H181        2.6883  -16.1803  -47.8796 H         1 UNK         0.0600 
    182 H182        4.3158  -16.6901  -48.3135 H         1 UNK         0.0600 
    183 H183        3.1820  -16.2191  -49.5691 H         1 UNK         0.0600 
    184 H184        1.9935  -14.0262  -48.8373 H         1 UNK         0.3000 
    185 H185        1.8699  -10.5383  -48.6017 H         1 UNK         0.0600 
    186 H186        2.3645  -10.6890  -51.0515 H         1 UNK         0.0600 
    187 H187        1.3329  -12.1088  -51.1805 H         1 UNK         0.0600 
    188 H188        0.6402  -10.5432  -50.7545 H         1 UNK         0.0600 
    189 H189       -0.1771  -12.3798  -49.2433 H         1 UNK         0.3000 
    190 H190       -2.5540  -21.6240  -44.6422 H         1 UNK         0.3000 
    191 H191       -5.1797  -21.9354  -45.4788 H         1 UNK         0.0600 
    192 H192       -4.4951  -20.9728  -43.3040 H         1 UNK         0.0600 
    193 H193       -5.6640  -22.2615  -43.0605 H         1 UNK         0.0600 
    194 H194       -3.9581  -22.5567  -42.7459 H         1 UNK         0.0600 
    195 H195       -2.8753  -24.4869  -44.6177 H         1 UNK         0.3000 
    196 H196       -4.9087  -26.6032  -45.2313 H         1 UNK         0.0600 
    197 H197       -3.3404  -28.1226  -44.0311 H         1 UNK         0.0600 
    198 H198       -3.9149  -26.8391  -42.9778 H         1 UNK         0.0600 
    199 H199       -2.2878  -26.7641  -43.6481 H         1 UNK         0.0600 
    200 H200       -1.4636  -25.6332  -45.6935 H         1 UNK         0.3000 
    201 H201       -0.8284  -27.7411  -47.4297 H         1 UNK         0.0600 
    202 H202        0.8142  -26.5050  -46.0366 H         1 UNK         0.0600 
    203 H203        0.6010  -25.0615  -47.0238 H         1 UNK         0.0600 
    204 H204        1.3102  -26.5102  -47.7214 H         1 UNK         0.0600 
    205 H205       -2.2180  -24.6072  -48.2417 H         1 UNK         0.3000 
    206 H206       -2.0760  -25.2766  -51.1566 H         1 UNK         0.0600 
    207 H207       -0.5997  -23.3050  -50.5122 H         1 UNK         0.0600 
    208 H208       -1.8984  -22.8817  -51.6150 H         1 UNK         0.0600 
    209 H209       -2.0350  -22.4797  -49.9099 H         1 UNK         0.0600 
    210 H210       -4.0464  -25.6641  -48.7508 H         1 UNK         0.3000 
    211 H211       -6.1918  -25.5583  -48.2177 H         1 UNK         0.0600 
    212 H212       -6.5979  -25.5569  -51.2538 H         1 UNK         0.0600 
    213 H213       -7.8036  -26.0204  -50.0593 H         1 UNK         0.0600 
    214 H214       -6.3434  -26.9769  -50.2447 H         1 UNK         0.0600 
    215 H215       -5.0139  -23.1217  -47.9574 H         1 UNK         0.3000 
    216 H216       -5.3737  -20.9962  -47.4963 H         1 UNK         0.0600 
    217 H217       -7.6182  -20.0798  -47.1603 H         1 UNK         0.0600 
    218 H218       -7.5743  -21.7154  -46.5207 H         1 UNK         0.0600 
    219 H219       -8.3565  -21.3902  -48.0669 H         1 UNK         0.0600 
    220 H220       -4.3411  -21.6472  -49.8395 H         1 UNK         0.3000 
    221 H221       -3.5685  -20.8329  -51.7357 H         1 UNK         0.0600 
    222 H222       -4.9664  -18.1926  -51.0657 H         1 UNK         0.0600 
    223 H223       -3.3807  -18.6893  -50.4773 H         1 UNK         0.0600 
    224 H224       -3.6375  -18.4306  -52.1942 H         1 UNK         0.0600 
    225 H225       -5.3314  -22.5623  -52.2258 H         1 UNK         0.3000 
    226 H226       -7.5119  -21.7274  -53.9606 H         1 UNK         0.0600 
    227 H227       -7.6002  -23.8349  -52.6576 H         1 UNK         0.0600 
    228 H228       -7.6835  -24.1855  -54.3770 H         1 UNK         0.0600 
    229 H229       -6.1783  -24.4499  -53.5029 H         1 UNK         0.0600 
    230 H230       -4.1455  -21.9884  -54.3566 H         1 UNK         0.3000 
    231 H231       -3.9564  -22.4785  -57.2064 H         1 UNK         0.0600 
    232 H232       -2.0026  -21.1918  -55.2083 H         1 UNK         0.0600 
    233 H233       -1.5877  -21.7711  -56.8168 H         1 UNK         0.0600 
    234 H234       -2.0822  -22.9119  -55.5825 H         1 UNK         0.0600 
    235 H235       -2.6590  -20.6452  -58.4517 H         1 UNK         0.3000 
    236 H236       -4.4390  -18.6081  -59.1131 H         1 UNK         0.0600 
    237 H237       -2.7194  -19.5121  -60.6472 H         1 UNK         0.0600 
    238 H238       -2.5470  -17.7695  -60.5237 H         1 UNK         0.0600 
    239 H239       -1.4304  -18.8201  -59.6605 H         1 UNK         0.0600 
    240 H240       -1.9991  -18.5366  -56.6073 H         1 UNK         0.3000 
    241 H241       -2.0783  -15.6443  -56.2383 H         1 UNK         0.0600 
    242 H242       -4.4214  -18.0367  -55.4243 H         1 UNK         0.3800 
    243 H243       -5.1022  -17.1601  -54.0845 H         1 UNK         0.3800 
    244 H244        0.0178  -16.7164  -55.7613 H         1 UNK         0.0800 
    245 H245       -0.6188  -16.0545  -54.2889 H         1 UNK         0.0800 
    246 H246        1.3227  -17.2669  -53.4025 H         1 UNK         0.0800 
    247 H247        1.4575  -18.9860  -53.1611 H         1 UNK         0.0800 
@<TRIPOS>BOND
     1    1    2 1    
     2    1  127 1    
     3    1  128 1    
     4    1  129 1    
     5    2    3 2    
     6    2    4 am   BACKBONE|DICT|INTERRES
     7    4    5 1    
     8    4  130 1    
     9    5    6 1    
    10    5   65 1    
    11    5  131 1    
    12    6    7 1    
    13    6  132 1    
    14    6  133 1    
    15    7    8 1    
    16    8    9 1    
    17    8  134 1    
    18    8  135 1    
    19    9   10 ar   
    20    9   14 ar   
    21   10   11 ar   
    22   10  136 1    
    23   11   12 ar   
    24   11  126 1    
    25   12   13 ar   
    26   12  137 1    
    27   13   14 ar   
    28   13   15 1    
    29   14  138 1    
    30   15   16 1    
    31   15  139 1    
    32   15  140 1    
    33   16   17 1    
    34   17   18 1    
    35   17  141 1    
    36   17  142 1    
    37   18   19 1    
    38   18   67 1    
    39   18  143 1    
    40   19   20 am   BACKBONE|DICT|INTERRES
    41   19  144 1    
    42   20   21 2    
    43   20   22 1    
    44   22   23 1    
    45   22   24 1    
    46   22  145 1    
    47   23  146 1    
    48   23  147 1    
    49   23  148 1    
    50   24   25 am   BACKBONE|DICT|INTERRES
    51   24  149 1    
    52   25   26 2    
    53   25   27 1    
    54   27   28 1    
    55   27   29 1    
    56   27  150 1    
    57   28  151 1    
    58   28  152 1    
    59   28  153 1    
    60   29   30 am   BACKBONE|DICT|INTERRES
    61   29  154 1    
    62   30   31 2    
    63   30   32 1    
    64   32   33 1    
    65   32   34 1    
    66   32  155 1    
    67   33  156 1    
    68   33  157 1    
    69   33  158 1    
    70   34   35 am   BACKBONE|DICT|INTERRES
    71   34  159 1    
    72   35   36 2    
    73   35   37 1    
    74   37   38 1    
    75   37   39 1    
    76   37  160 1    
    77   38  161 1    
    78   38  162 1    
    79   38  163 1    
    80   39   40 am   BACKBONE|DICT|INTERRES
    81   39  164 1    
    82   40   41 2    
    83   40   42 1    
    84   42   43 1    
    85   42   44 1    
    86   42  165 1    
    87   43  166 1    
    88   43  167 1    
    89   43  168 1    
    90   44   45 am   BACKBONE|DICT|INTERRES
    91   44  169 1    
    92   45   46 2    
    93   45   47 1    
    94   47   48 1    
    95   47   49 1    
    96   47  170 1    
    97   48  171 1    
    98   48  172 1    
    99   48  173 1    
   100   49   50 am   BACKBONE|DICT|INTERRES
   101   49  174 1    
   102   50   51 2    
   103   50   52 1    
   104   52   53 1    
   105   52   54 1    
   106   52  175 1    
   107   53  176 1    
   108   53  177 1    
   109   53  178 1    
   110   54   55 am   BACKBONE|DICT|INTERRES
   111   54  179 1    
   112   55   56 2    
   113   55   57 1    
   114   57   58 1    
   115   57   59 1    
   116   57  180 1    
   117   58  181 1    
   118   58  182 1    
   119   58  183 1    
   120   59   60 am   BACKBONE|DICT|INTERRES
   121   59  184 1    
   122   60   61 2    
   123   60   62 1    
   124   62   63 1    
   125   62   64 1    
   126   62  185 1    
   127   63  186 1    
   128   63  187 1    
   129   63  188 1    
   130   64   65 am   BACKBONE|DICT|INTERRES
   131   64  189 1    
   132   65   66 2    
   133   67   68 2    
   134   67   69 am   BACKBONE|DICT|INTERRES
   135   69   70 1    
   136   69  190 1    
   137   70   71 1    
   138   70   72 1    
   139   70  191 1    
   140   71  192 1    
   141   71  193 1    
   142   71  194 1    
   143   72   73 2    
   144   72   74 am   BACKBONE|DICT|INTERRES
   145   74   75 1    
   146   74  195 1    
   147   75   76 1    
   148   75   77 1    
   149   75  196 1    
   150   76  197 1    
   151   76  198 1    
   152   76  199 1    
   153   77   78 2    
   154   77   79 am   BACKBONE|DICT|INTERRES
   155   79   80 1    
   156   79  200 1    
   157   80   81 1    
   158   80   82 1    
   159   80  201 1    
   160   81  202 1    
   161   81  203 1    
   162   81  204 1    
   163   82   83 2    
   164   82   84 am   BACKBONE|DICT|INTERRES
   165   84   85 1    
   166   84  205 1    
   167   85   86 1    
   168   85   87 1    
   169   85  206 1    
   170   86  207 1    
   171   86  208 1    
   172   86  209 1    
   173   87   88 2    
   174   87   89 am   BACKBONE|DICT|INTERRES
   175   89   90 1    
   176   89  210 1    
   177   90   91 1    
   178   90   92 1    
   179   90  211 1    
   180   91  212 1    
   181   91  213 1    
   182   91  214 1    
   183   92   93 2    
   184   92   94 am   BACKBONE|DICT|INTERRES
   185   94   95 1    
   186   94  215 1    
   187   95   96 1    
   188   95   97 1    
   189   95  216 1    
   190   96  217 1    
   191   96  218 1    
   192   96  219 1    
   193   97   98 2    
   194   97   99 am   BACKBONE|DICT|INTERRES
   195   99  100 1    
   196   99  220 1    
   197  100  101 1    
   198  100  102 1    
   199  100  221 1    
   200  101  222 1    
   201  101  223 1    
   202  101  224 1    
   203  102  103 2    
   204  102  104 am   BACKBONE|DICT|INTERRES
   205  104  105 1    
   206  104  225 1    
   207  105  106 1    
   208  105  107 1    
   209  105  226 1    
   210  106  227 1    
   211  106  228 1    
   212  106  229 1    
   213  107  108 2    
   214  107  109 am   BACKBONE|DICT|INTERRES
   215  109  110 1    
   216  109  230 1    
   217  110  111 1    
   218  110  112 1    
   219  110  231 1    
   220  111  232 1    
   221  111  233 1    
   222  111  234 1    
   223  112  113 2    
   224  112  114 am   BACKBONE|DICT|INTERRES
   225  114  115 1    
   226  114  235 1    
   227  115  116 1    
   228  115  117 1    
   229  115  236 1    
   230  116  237 1    
   231  116  238 1    
   232  116  239 1    
   233  117  118 2    
   234  117  119 am   BACKBONE|DICT|INTERRES
   235  119  120 1    
   236  119  240 1    
   237  120  121 1    
   238  120  124 1    
   239  120  241 1    
   240  121  122 am   BACKBONE|DICT|INTERRES
   241  121  123 2    
   242  122  242 1    
   243  122  243 1    
   244  124  125 1    
   245  124  244 1    
   246  124  245 1    
   247  125  126 1    
   248  126  246 1    
   249  126  247 1    
@<TRIPOS>SUBSTRUCTURE
     1 UNK         1 GROUP             0       ****    0 ROOT    
