@<TRIPOS>MOLECULE
3R540
247   249    1
SMALL
USER_CHARGES


@<TRIPOS>ATOM
      1 CA         -5.2664  -13.2254  -49.3310 C.3       0 UNK        -0.1800 
      2 C          -4.3556  -14.2990  -48.7538 C.2       0 UNK         0.5000 
      3 O          -4.8468  -15.3040  -48.2392 O.2       0 UNK        -0.5000 
      4 N          -3.0339  -14.0831  -48.8265 N.am      1 UNK        -0.5000 
      5 CA         -1.9535  -14.9652  -48.3622 C.3       1 UNK         0.1400 
      6 C6         -1.9967  -16.3695  -49.0195 C.3       23 UNK        -0.0398 
      7 S7         -0.5313  -17.4084  -48.7021 S.3       23 UNK        -0.2404 
      8 C8          0.5971  -16.9366  -50.0517 C.3       23 UNK        -0.0205 
      9 C9          1.3453  -18.1381  -50.6167 C.ar      23 UNK        -0.0193 
     10 C10         1.3201  -18.3930  -51.9907 C.ar      23 UNK        -0.1150 
     11 C11         2.0007  -19.4886  -52.5286 C.ar      23 UNK        -0.0193 
     12 C12         2.7008  -20.3462  -51.6750 C.ar      23 UNK        -0.1150 
     13 C13         2.7348  -20.1058  -50.2971 C.ar      23 UNK        -0.0193 
     14 C14         2.0719  -18.9899  -49.7777 C.ar      23 UNK        -0.1150 
     15 C15         3.4986  -21.0458  -49.3764 C.3       23 UNK        -0.0205 
     16 S16         2.4435  -22.3944  -48.7556 S.3       23 UNK        -0.2404 
     17 C17         1.7072  -21.6251  -47.2741 C.3       23 UNK        -0.0398 
     18 CA          0.6635  -22.5423  -46.5889 C.3       11 UNK         0.1400 
     19 N           0.5293  -22.2624  -45.1551 N.am      11 UNK        -0.5000 
     20 C          -0.1936  -22.9969  -44.2955 C.2       10 UNK         0.5000 
     21 O          -0.7851  -24.0290  -44.6070 O.2       10 UNK        -0.5000 
     22 CA         -0.3349  -22.4597  -42.8598 C.3       10 UNK         0.1400 
     23 CB          0.9051  -22.7906  -42.0166 C.3       10 UNK        -0.1800 
     24 N          -0.5897  -21.0202  -42.8320 N.am      10 UNK        -0.5000 
     25 C          -1.6796  -20.4388  -43.3521 C.2       9 UNK         0.5000 
     26 O          -2.6257  -21.0657  -43.8297 O.2       9 UNK        -0.5000 
     27 CA         -1.6903  -18.9007  -43.3998 C.3       9 UNK         0.1400 
     28 CB         -2.1486  -18.3114  -42.0577 C.3       9 UNK        -0.1800 
     29 N          -0.3939  -18.3311  -43.7793 N.am      9 UNK        -0.5000 
     30 C           0.2133  -18.5476  -44.9559 C.2       8 UNK         0.5000 
     31 O          -0.2824  -19.2138  -45.8601 O.2       8 UNK        -0.5000 
     32 CA          1.6449  -18.0097  -45.1228 C.3       8 UNK         0.1400 
     33 CB          1.6587  -16.5293  -45.5259 C.3       8 UNK        -0.1800 
     34 N           2.4282  -18.1979  -43.9042 N.am      8 UNK        -0.5000 
     35 C           2.8535  -19.3897  -43.4630 C.2       7 UNK         0.5000 
     36 O           2.6813  -20.4437  -44.0751 O.2       7 UNK        -0.5000 
     37 CA          3.5459  -19.4077  -42.0874 C.3       7 UNK         0.1400 
     38 CB          5.0426  -19.0956  -42.2317 C.3       7 UNK        -0.1800 
     39 N           2.9416  -18.4608  -41.1476 N.am      7 UNK        -0.5000 
     40 C           1.7030  -18.5778  -40.6470 C.2       6 UNK         0.5000 
     41 O           0.9667  -19.5364  -40.8747 O.2       6 UNK        -0.5000 
     42 CA          1.1827  -17.4026  -39.7955 C.3       6 UNK         0.1400 
     43 CB          1.5482  -17.6035  -38.3176 C.3       6 UNK        -0.1800 
     44 N           1.6866  -16.1027  -40.2503 N.am      6 UNK        -0.5000 
     45 C           1.4062  -15.5578  -41.4412 C.2       5 UNK         0.5000 
     46 O           0.6531  -16.0750  -42.2696 O.2       5 UNK        -0.5000 
     47 CA          2.1618  -14.2711  -41.7944 C.3       5 UNK         0.1400 
     48 CB          3.6127  -14.6193  -42.1923 C.3       5 UNK        -0.1800 
     49 N           1.4810  -13.5937  -42.8955 N.am      5 UNK        -0.5000 
     50 C           1.7715  -12.3691  -43.3517 C.2       4 UNK         0.5000 
     51 O           2.6192  -11.6324  -42.8454 O.2       4 UNK        -0.5000 
     52 CA          0.9922  -11.8791  -44.5840 C.3       4 UNK         0.1400 
     53 CB          1.5998  -12.4578  -45.8716 C.3       4 UNK        -0.1800 
     54 N          -0.4358  -12.1947  -44.5253 N.am      4 UNK        -0.5000 
     55 C          -1.3135  -11.5378  -43.7499 C.2       3 UNK         0.5000 
     56 O          -0.9880  -10.6429  -42.9684 O.2       3 UNK        -0.5000 
     57 CA         -2.8082  -11.9003  -43.8787 C.3       3 UNK         0.1400 
     58 CB         -3.5444  -10.8438  -44.7176 C.3       3 UNK        -0.1800 
     59 N          -3.0410  -13.2122  -44.4773 N.am      3 UNK        -0.5000 
     60 C          -2.8299  -14.3799  -43.8589 C.2       2 UNK         0.5000 
     61 O          -2.4937  -14.4727  -42.6787 O.2       2 UNK        -0.5000 
     62 CA         -3.0024  -15.6579  -44.7028 C.3       2 UNK         0.1400 
     63 CB         -4.3282  -16.3585  -44.3693 C.3       2 UNK        -0.1800 
     64 N          -2.9255  -15.4595  -46.1528 N.am      2 UNK        -0.5000 
     65 C          -1.8570  -15.0107  -46.8225 C.2       1 UNK         0.5000 
     66 O          -0.8418  -14.5936  -46.2670 O.2       1 UNK        -0.5000 
     67 C          -0.6993  -22.4941  -47.3112 C.2       11 UNK         0.5000 
     68 O          -1.0422  -23.4437  -48.0149 O.2       11 UNK        -0.5000 
     69 N          -1.4694  -21.4206  -47.0752 N.am      12 UNK        -0.5000 
     70 CA         -2.8220  -21.2029  -47.5925 C.3       12 UNK         0.1400 
     71 CB         -3.3539  -19.8473  -47.1020 C.3       12 UNK        -0.1800 
     72 C          -3.7941  -22.3392  -47.2353 C.2       12 UNK         0.5000 
     73 O          -4.5413  -22.7887  -48.1031 O.2       12 UNK        -0.5000 
     74 N          -3.7375  -22.8046  -45.9810 N.am      13 UNK        -0.5000 
     75 CA         -4.5152  -23.9375  -45.4873 C.3       13 UNK         0.1400 
     76 CB         -4.4434  -23.9726  -43.9528 C.3       13 UNK        -0.1800 
     77 C          -4.0647  -25.2829  -46.0878 C.2       13 UNK         0.5000 
     78 O          -4.9136  -26.0686  -46.5105 O.2       13 UNK        -0.5000 
     79 N          -2.7484  -25.5344  -46.0970 N.am      14 UNK        -0.5000 
     80 CA         -2.1556  -26.8067  -46.5093 C.3       14 UNK         0.1400 
     81 CB         -0.7079  -26.8915  -46.0005 C.3       14 UNK        -0.1800 
     82 C          -2.2041  -27.0472  -48.0267 C.2       14 UNK         0.5000 
     83 O          -2.5977  -28.1338  -48.4535 O.2       14 UNK        -0.5000 
     84 N          -1.7817  -26.0492  -48.8133 N.am      15 UNK        -0.5000 
     85 CA         -1.6602  -26.1581  -50.2682 C.3       15 UNK         0.1400 
     86 CB         -0.5524  -25.2115  -50.7567 C.3       15 UNK        -0.1800 
     87 C          -2.9773  -25.8632  -51.0040 C.2       15 UNK         0.5000 
     88 O          -3.1071  -26.2483  -52.1668 O.2       15 UNK        -0.5000 
     89 N          -3.9103  -25.1651  -50.3380 N.am      16 UNK        -0.5000 
     90 CA         -5.2190  -24.6889  -50.8084 C.3       16 UNK         0.1400 
     91 CB         -6.1269  -25.8517  -51.2524 C.3       16 UNK        -0.1800 
     92 C          -5.1255  -23.5970  -51.8918 C.2       16 UNK         0.5000 
     93 O          -5.7124  -22.5277  -51.7299 O.2       16 UNK        -0.5000 
     94 N          -4.3597  -23.8612  -52.9583 N.am      17 UNK        -0.5000 
     95 CA         -4.0972  -22.9480  -54.0726 C.3       17 UNK         0.1400 
     96 CB         -3.3248  -23.6981  -55.1674 C.3       17 UNK        -0.1800 
     97 C          -3.3325  -21.6806  -53.6523 C.2       17 UNK         0.5000 
     98 O          -3.5073  -20.6332  -54.2741 O.2       17 UNK        -0.5000 
     99 N          -2.5309  -21.7797  -52.5831 N.am      18 UNK        -0.5000 
    100 CA        -1.7878  -20.6714  -51.9814 C.3       18 UNK         0.1400 
    101 CB        -0.8740  -21.2118  -50.8740 C.3       18 UNK        -0.1800 
    102 C         -2.6821  -19.5233  -51.4812 C.2       18 UNK         0.5000 
    103 O         -2.2742  -18.3680  -51.5758 O.2       18 UNK        -0.5000 
    104 N         -3.9189  -19.8339  -51.0621 N.am      19 UNK        -0.5000 
    105 CA        -4.9420  -18.8449  -50.7044 C.3       19 UNK         0.1400 
    106 CB        -6.1500  -19.5697  -50.0927 C.3       19 UNK        -0.1800 
    107 C         -5.3884  -17.9647  -51.8935 C.2       19 UNK         0.5000 
    108 O         -5.8521  -16.8454  -51.6771 O.2       19 UNK        -0.5000 
    109 N         -5.2166  -18.4738  -53.1214 N.am      20 UNK        -0.5000 
    110 CA        -5.4517  -17.7722  -54.3837 C.3       20 UNK         0.1400 
    111 CB        -6.2197  -18.7140  -55.3278 C.3       20 UNK        -0.1800 
    112 C         -4.1326  -17.2839  -55.0235 C.2       20 UNK         0.5000 
    113 O         -4.1425  -16.8858  -56.1886 O.2       20 UNK        -0.5000 
    114 N         -3.0290  -17.3209  -54.2597 N.am      21 UNK        -0.5000 
    115 CA        -1.6604  -16.9483  -54.6316 C.3       21 UNK         0.1400 
    116 CB        -1.5685  -15.4625  -55.0387 C.3       21 UNK        -0.1800 
    117 C         -0.9990  -17.9035  -55.6500 C.2       21 UNK         0.5000 
    118 O         -0.0798  -17.4915  -56.3601 O.2       21 UNK        -0.5000 
    119 N         -1.4418  -19.1681  -55.6700 N.am      22 UNK        -0.5000 
    120 CA        -0.9551  -20.2620  -56.5300 C.3       22 UNK         0.1400 
    121 C         -1.2738  -20.0626  -58.0455 C.2       22 UNK         0.5000 
    122 N         -0.7758  -20.9260  -58.9220 N.am      22 UNK        -0.7600 
    123 O         -2.0078  -19.1625  -58.4473 O.2       22 UNK        -0.5000 
    124 C124        0.5326  -20.6455  -56.2612 C.3       23 UNK        -0.0398 
    125 S125        0.8611  -21.0607  -54.5122 S.3       23 UNK        -0.2404 
    126 C126        1.9980  -19.7229  -54.0324 C.3       23 UNK        -0.0205 
    127 H127       -5.8834  -13.6477  -50.1243 H         1 UNK         0.0600 
    128 H128       -4.7000  -12.3920  -49.7473 H         1 UNK         0.0600 
    129 H129       -5.9256  -12.8360  -48.5552 H         1 UNK         0.0600 
    130 H130       -2.7157  -13.2177  -49.2407 H         1 UNK         0.3000 
    131 H131       -1.0354  -14.4865  -48.7073 H         1 UNK         0.0600 
    132 H132       -2.1292  -16.2624  -50.0958 H         1 UNK         0.0800 
    133 H133       -2.8658  -16.9295  -48.6752 H         1 UNK         0.0800 
    134 H134        1.3166  -16.2086  -49.6755 H         1 UNK         0.0800 
    135 H135        0.0365  -16.4384  -50.8436 H         1 UNK         0.0800 
    136 H136        0.7770  -17.7300  -52.6462 H         1 UNK         0.1150 
    137 H137        3.2191  -21.2015  -52.0853 H         1 UNK         0.1150 
    138 H138        2.1035  -18.7908  -48.7161 H         1 UNK         0.1150 
    139 H139        4.3392  -21.4833  -49.9170 H         1 UNK         0.0800 
    140 H140        3.9328  -20.4942  -48.5411 H         1 UNK         0.0800 
    141 H141        1.2775  -20.6567  -47.5329 H         1 UNK         0.0800 
    142 H142        2.5281  -21.4171  -46.5869 H         1 UNK         0.0800 
    143 H143        1.0248  -23.5711  -46.6546 H         1 UNK         0.0600 
    144 H144        1.0119  -21.4424  -44.8050 H         1 UNK         0.3000 
    145 H145       -1.1938  -22.9564  -42.4037 H         1 UNK         0.0600 
    146 H146        0.7809  -22.4570  -40.9862 H         1 UNK         0.0600 
    147 H147        1.8040  -22.3201  -42.4133 H         1 UNK         0.0600 
    148 H148        1.0823  -23.8665  -41.9918 H         1 UNK         0.0600 
    149 H149        0.1102  -20.4366  -42.3841 H         1 UNK         0.3000 
    150 H150       -2.4115  -18.6107  -44.1645 H         1 UNK         0.0600 
    151 H151       -3.1687  -18.6211  -41.8281 H         1 UNK         0.0600 
    152 H152       -2.1336  -17.2217  -42.0730 H         1 UNK         0.0600 
    153 H153       -1.5162  -18.6406  -41.2342 H         1 UNK         0.0600 
    154 H154        0.0583  -17.7222  -43.1039 H         1 UNK         0.3000 
    155 H155        2.1228  -18.5761  -45.9252 H         1 UNK         0.0600 
    156 H156        1.1918  -16.3918  -46.5007 H         1 UNK         0.0600 
    157 H157        2.6762  -16.1459  -45.6002 H         1 UNK         0.0600 
    158 H158        1.1155  -15.9066  -44.8167 H         1 UNK         0.0600 
    159 H159        2.5620  -17.3868  -43.3207 H         1 UNK         0.3000 
    160 H160        3.4429  -20.4135  -41.6746 H         1 UNK         0.0600 
    161 H161        5.2107  -18.0904  -42.6203 H         1 UNK         0.0600 
    162 H162        5.5227  -19.7968  -42.9157 H         1 UNK         0.0600 
    163 H163        5.5559  -19.1756  -41.2733 H         1 UNK         0.0600 
    164 H164        3.4887  -17.6506  -40.8983 H         1 UNK         0.3000 
    165 H165        0.0943  -17.3887  -39.8787 H         1 UNK         0.0600 
    166 H166        1.1188  -16.8185  -37.6949 H         1 UNK         0.0600 
    167 H167        1.1656  -18.5558  -37.9475 H         1 UNK         0.0600 
    168 H168        2.6281  -17.6018  -38.1645 H         1 UNK         0.0600 
    169 H169        2.3174  -15.6214  -39.6253 H         1 UNK         0.3000 
    170 H170        2.1606  -13.6163  -40.9208 H         1 UNK         0.0600 
    171 H171        3.6449  -15.2266  -43.0978 H         1 UNK         0.0600 
    172 H172        4.2074  -13.7244  -42.3733 H         1 UNK         0.0600 
    173 H173        4.1199  -15.1766  -41.4040 H         1 UNK         0.0600 
    174 H174        0.7405  -14.1332  -43.3270 H         1 UNK         0.3000 
    175 H175        1.0972  -10.7929  -44.6317 H         1 UNK         0.0600 
    176 H176        1.5723  -13.5474  -45.8787 H         1 UNK         0.0600 
    177 H177        1.0681  -12.1035  -46.7548 H         1 UNK         0.0600 
    178 H178        2.6433  -12.1587  -45.9771 H         1 UNK         0.0600 
    179 H179       -0.7580  -12.9480  -45.1245 H         1 UNK         0.3000 
    180 H180       -3.2353  -11.8964  -42.8735 H         1 UNK         0.0600 
    181 H181       -4.6140  -11.0499  -44.7621 H         1 UNK         0.0600 
    182 H182       -3.1658  -10.8064  -45.7400 H         1 UNK         0.0600 
    183 H183       -3.4248   -9.8488  -44.2868 H         1 UNK         0.0600 
    184 H184       -3.3156  -13.2301  -45.4480 H         1 UNK         0.3000 
    185 H185       -2.1773  -16.3141  -44.4301 H         1 UNK         0.0600 
    186 H186       -5.1852  -15.7463  -44.6524 H         1 UNK         0.0600 
    187 H187       -4.4131  -17.3131  -44.8889 H         1 UNK         0.0600 
    188 H188       -4.4080  -16.5619  -43.3007 H         1 UNK         0.0600 
    189 H189       -3.7515  -15.6924  -46.6972 H         1 UNK         0.3000 
    190 H190       -1.0825  -20.6657  -46.5098 H         1 UNK         0.3000 
    191 H191       -2.7611  -21.1549  -48.6778 H         1 UNK         0.0600 
    192 H192       -4.3306  -19.6286  -47.5328 H         1 UNK         0.0600 
    193 H193       -2.6853  -19.0358  -47.3855 H         1 UNK         0.0600 
    194 H194       -3.4640  -19.8230  -46.0188 H         1 UNK         0.0600 
    195 H195       -3.1228  -22.3448  -45.3164 H         1 UNK         0.3000 
    196 H196       -5.5579  -23.7797  -45.7709 H         1 UNK         0.0600 
    197 H197       -4.8415  -23.0546  -43.5197 H         1 UNK         0.0600 
    198 H198       -3.4184  -24.0892  -43.5989 H         1 UNK         0.0600 
    199 H199       -5.0272  -24.8022  -43.5522 H         1 UNK         0.0600 
    200 H200       -2.1099  -24.8461  -45.7060 H         1 UNK         0.3000 
    201 H201       -2.7202  -27.6101  -46.0312 H         1 UNK         0.0600 
    202 H202       -0.6691  -26.8289  -44.9129 H         1 UNK         0.0600 
    203 H203       -0.0917  -26.0867  -46.4038 H         1 UNK         0.0600 
    204 H204       -0.2453  -27.8364  -46.2881 H         1 UNK         0.0600 
    205 H205       -1.4924  -25.1645  -48.3973 H         1 UNK         0.3000 
    206 H206       -1.3620  -27.1764  -50.5267 H         1 UNK         0.0600 
    207 H207       -0.8041  -24.1683  -50.5731 H         1 UNK         0.0600 
    208 H208        0.3940  -25.4183  -50.2567 H         1 UNK         0.0600 
    209 H209       -0.3857  -25.3232  -51.8288 H         1 UNK         0.0600 
    210 H210       -3.6772  -24.8793  -49.3962 H         1 UNK         0.3000 
    211 H211       -5.6966  -24.2298  -49.9424 H         1 UNK         0.0600 
    212 H212       -5.7473  -26.3581  -52.1399 H         1 UNK         0.0600 
    213 H213       -7.1282  -25.4905  -51.4900 H         1 UNK         0.0600 
    214 H214       -6.2287  -26.5939  -50.4606 H         1 UNK         0.0600 
    215 H215       -3.8958  -24.7663  -52.9805 H         1 UNK         0.3000 
    216 H216       -5.0590  -22.6319  -54.4816 H         1 UNK         0.0600 
    217 H217       -3.1535  -23.0581  -56.0337 H         1 UNK         0.0600 
    218 H218       -3.8797  -24.5699  -55.5143 H         1 UNK         0.0600 
    219 H219       -2.3518  -24.0395  -54.8112 H         1 UNK         0.0600 
    220 H220       -2.4460  -22.6801  -52.1370 H         1 UNK         0.3000 
    221 H221       -1.1557  -20.2334  -52.7531 H         1 UNK         0.0600 
    222 H222       -1.3967  -21.9143  -50.2298 H         1 UNK         0.0600 
    223 H223       -0.0161  -21.7336  -51.2984 H         1 UNK         0.0600 
    224 H224       -0.4844  -20.4105  -50.2450 H         1 UNK         0.0600 
    225 H225       -4.2160  -20.8010  -51.0780 H         1 UNK         0.3000 
    226 H226       -4.5179  -18.1856  -49.9447 H         1 UNK         0.0600 
    227 H227       -5.8534  -20.2271  -49.2756 H         1 UNK         0.0600 
    228 H228       -6.8693  -18.8543  -49.6923 H         1 UNK         0.0600 
    229 H229       -6.6712  -20.1761  -50.8341 H         1 UNK         0.0600 
    230 H230       -4.7904  -19.3887  -53.2137 H         1 UNK         0.3000 
    231 H231       -6.0699  -16.8889  -54.2128 H         1 UNK         0.0600 
    232 H232       -6.4898  -18.2074  -56.2550 H         1 UNK         0.0600 
    233 H233       -7.1455  -19.0622  -54.8695 H         1 UNK         0.0600 
    234 H234       -5.6273  -19.5900  -55.5938 H         1 UNK         0.0600 
    235 H235       -3.1217  -17.6674  -53.3113 H         1 UNK         0.3000 
    236 H236       -1.0827  -17.0568  -53.7148 H         1 UNK         0.0600 
    237 H237       -2.0465  -15.2739  -56.0000 H         1 UNK         0.0600 
    238 H238       -2.0396  -14.8194  -54.2953 H         1 UNK         0.0600 
    239 H239       -0.5286  -15.1458  -55.1263 H         1 UNK         0.0600 
    240 H240       -2.2293  -19.4169  -55.0801 H         1 UNK         0.3000 
    241 H241       -1.5617  -21.1202  -56.2418 H         1 UNK         0.0600 
    242 H242       -0.9971  -20.8051  -59.8985 H         1 UNK         0.3800 
    243 H243       -0.1981  -21.7031  -58.6432 H         1 UNK         0.3800 
    244 H244        1.2009  -19.8504  -56.5938 H         1 UNK         0.0800 
    245 H245        0.8117  -21.5261  -56.8401 H         1 UNK         0.0800 
    246 H246        3.0054  -19.9702  -54.3699 H         1 UNK         0.0800 
    247 H247        1.7218  -18.8015  -54.5467 H         1 UNK         0.0800 
@<TRIPOS>BOND
     1    1    2 1    
     2    1  127 1    
     3    1  128 1    
     4    1  129 1    
     5    2    3 2    
     6    2    4 am   BACKBONE|DICT|INTERRES
     7    4    5 1    
     8    4  130 1    
     9    5    6 1    
    10    5   65 1    
    11    5  131 1    
    12    6    7 1    
    13    6  132 1    
    14    6  133 1    
    15    7    8 1    
    16    8    9 1    
    17    8  134 1    
    18    8  135 1    
    19    9   10 ar   
    20    9   14 ar   
    21   10   11 ar   
    22   10  136 1    
    23   11   12 ar   
    24   11  126 1    
    25   12   13 ar   
    26   12  137 1    
    27   13   14 ar   
    28   13   15 1    
    29   14  138 1    
    30   15   16 1    
    31   15  139 1    
    32   15  140 1    
    33   16   17 1    
    34   17   18 1    
    35   17  141 1    
    36   17  142 1    
    37   18   19 1    
    38   18   67 1    
    39   18  143 1    
    40   19   20 am   BACKBONE|DICT|INTERRES
    41   19  144 1    
    42   20   21 2    
    43   20   22 1    
    44   22   23 1    
    45   22   24 1    
    46   22  145 1    
    47   23  146 1    
    48   23  147 1    
    49   23  148 1    
    50   24   25 am   BACKBONE|DICT|INTERRES
    51   24  149 1    
    52   25   26 2    
    53   25   27 1    
    54   27   28 1    
    55   27   29 1    
    56   27  150 1    
    57   28  151 1    
    58   28  152 1    
    59   28  153 1    
    60   29   30 am   BACKBONE|DICT|INTERRES
    61   29  154 1    
    62   30   31 2    
    63   30   32 1    
    64   32   33 1    
    65   32   34 1    
    66   32  155 1    
    67   33  156 1    
    68   33  157 1    
    69   33  158 1    
    70   34   35 am   BACKBONE|DICT|INTERRES
    71   34  159 1    
    72   35   36 2    
    73   35   37 1    
    74   37   38 1    
    75   37   39 1    
    76   37  160 1    
    77   38  161 1    
    78   38  162 1    
    79   38  163 1    
    80   39   40 am   BACKBONE|DICT|INTERRES
    81   39  164 1    
    82   40   41 2    
    83   40   42 1    
    84   42   43 1    
    85   42   44 1    
    86   42  165 1    
    87   43  166 1    
    88   43  167 1    
    89   43  168 1    
    90   44   45 am   BACKBONE|DICT|INTERRES
    91   44  169 1    
    92   45   46 2    
    93   45   47 1    
    94   47   48 1    
    95   47   49 1    
    96   47  170 1    
    97   48  171 1    
    98   48  172 1    
    99   48  173 1    
   100   49   50 am   BACKBONE|DICT|INTERRES
   101   49  174 1    
   102   50   51 2    
   103   50   52 1    
   104   52   53 1    
   105   52   54 1    
   106   52  175 1    
   107   53  176 1    
   108   53  177 1    
   109   53  178 1    
   110   54   55 am   BACKBONE|DICT|INTERRES
   111   54  179 1    
   112   55   56 2    
   113   55   57 1    
   114   57   58 1    
   115   57   59 1    
   116   57  180 1    
   117   58  181 1    
   118   58  182 1    
   119   58  183 1    
   120   59   60 am   BACKBONE|DICT|INTERRES
   121   59  184 1    
   122   60   61 2    
   123   60   62 1    
   124   62   63 1    
   125   62   64 1    
   126   62  185 1    
   127   63  186 1    
   128   63  187 1    
   129   63  188 1    
   130   64   65 am   BACKBONE|DICT|INTERRES
   131   64  189 1    
   132   65   66 2    
   133   67   68 2    
   134   67   69 am   BACKBONE|DICT|INTERRES
   135   69   70 1    
   136   69  190 1    
   137   70   71 1    
   138   70   72 1    
   139   70  191 1    
   140   71  192 1    
   141   71  193 1    
   142   71  194 1    
   143   72   73 2    
   144   72   74 am   BACKBONE|DICT|INTERRES
   145   74   75 1    
   146   74  195 1    
   147   75   76 1    
   148   75   77 1    
   149   75  196 1    
   150   76  197 1    
   151   76  198 1    
   152   76  199 1    
   153   77   78 2    
   154   77   79 am   BACKBONE|DICT|INTERRES
   155   79   80 1    
   156   79  200 1    
   157   80   81 1    
   158   80   82 1    
   159   80  201 1    
   160   81  202 1    
   161   81  203 1    
   162   81  204 1    
   163   82   83 2    
   164   82   84 am   BACKBONE|DICT|INTERRES
   165   84   85 1    
   166   84  205 1    
   167   85   86 1    
   168   85   87 1    
   169   85  206 1    
   170   86  207 1    
   171   86  208 1    
   172   86  209 1    
   173   87   88 2    
   174   87   89 am   BACKBONE|DICT|INTERRES
   175   89   90 1    
   176   89  210 1    
   177   90   91 1    
   178   90   92 1    
   179   90  211 1    
   180   91  212 1    
   181   91  213 1    
   182   91  214 1    
   183   92   93 2    
   184   92   94 am   BACKBONE|DICT|INTERRES
   185   94   95 1    
   186   94  215 1    
   187   95   96 1    
   188   95   97 1    
   189   95  216 1    
   190   96  217 1    
   191   96  218 1    
   192   96  219 1    
   193   97   98 2    
   194   97   99 am   BACKBONE|DICT|INTERRES
   195   99  100 1    
   196   99  220 1    
   197  100  101 1    
   198  100  102 1    
   199  100  221 1    
   200  101  222 1    
   201  101  223 1    
   202  101  224 1    
   203  102  103 2    
   204  102  104 am   BACKBONE|DICT|INTERRES
   205  104  105 1    
   206  104  225 1    
   207  105  106 1    
   208  105  107 1    
   209  105  226 1    
   210  106  227 1    
   211  106  228 1    
   212  106  229 1    
   213  107  108 2    
   214  107  109 am   BACKBONE|DICT|INTERRES
   215  109  110 1    
   216  109  230 1    
   217  110  111 1    
   218  110  112 1    
   219  110  231 1    
   220  111  232 1    
   221  111  233 1    
   222  111  234 1    
   223  112  113 2    
   224  112  114 am   BACKBONE|DICT|INTERRES
   225  114  115 1    
   226  114  235 1    
   227  115  116 1    
   228  115  117 1    
   229  115  236 1    
   230  116  237 1    
   231  116  238 1    
   232  116  239 1    
   233  117  118 2    
   234  117  119 am   BACKBONE|DICT|INTERRES
   235  119  120 1    
   236  119  240 1    
   237  120  121 1    
   238  120  124 1    
   239  120  241 1    
   240  121  122 am   BACKBONE|DICT|INTERRES
   241  121  123 2    
   242  122  242 1    
   243  122  243 1    
   244  124  125 1    
   245  124  244 1    
   246  124  245 1    
   247  125  126 1    
   248  126  246 1    
   249  126  247 1    
@<TRIPOS>SUBSTRUCTURE
     1 UNK         1 GROUP             0       ****    0 ROOT    
