@<TRIPOS>MOLECULE
3R540
247   249    1
SMALL
USER_CHARGES


@<TRIPOS>ATOM
      1 CA          2.5459  -15.6539  -48.1388 C.3       0 UNK        -0.1800 
      2 C           1.3974  -16.1216  -47.2577 C.2       0 UNK         0.5000 
      3 O           1.5990  -16.3862  -46.0752 O.2       0 UNK        -0.5000 
      4 N           0.1893  -16.2208  -47.8253 N.am      1 UNK        -0.5000 
      5 CA         -1.0288  -16.6501  -47.1269 C.3       1 UNK         0.1400 
      6 C6         -2.0816  -17.2066  -48.1132 C.3       23 UNK        -0.0398 
      7 S7         -2.6767  -15.9854  -49.3403 S.3       23 UNK        -0.2404 
      8 C8         -4.4134  -15.7599  -48.8378 C.3       23 UNK        -0.0205 
      9 C9         -5.3066  -16.8593  -49.3947 C.ar      23 UNK        -0.0193 
     10 C10        -5.9189  -16.7059  -50.6416 C.ar      23 UNK        -0.1150 
     11 C11        -6.7326  -17.7121  -51.1730 C.ar      23 UNK        -0.0193 
     12 C12        -6.9188  -18.8909  -50.4337 C.ar      23 UNK        -0.1150 
     13 C13        -6.3042  -19.0620  -49.1907 C.ar      23 UNK        -0.0193 
     14 C14        -5.5166  -18.0346  -48.6714 C.ar      23 UNK        -0.1150 
     15 C15        -6.4617  -20.3668  -48.4231 C.3       23 UNK        -0.0205 
     16 S16        -5.5066  -21.6937  -49.2185 S.3       23 UNK        -0.2404 
     17 C17        -5.4185  -22.9595  -47.9116 C.3       23 UNK        -0.0398 
     18 CA         -3.9790  -23.0806  -47.3372 C.3       11 UNK         0.1400 
     19 N          -3.6755  -22.0565  -46.3334 N.am      11 UNK        -0.5000 
     20 C          -3.0019  -20.9243  -46.5618 C.2       10 UNK         0.5000 
     21 O          -2.6135  -20.5651  -47.6749 O.2       10 UNK        -0.5000 
     22 CA         -2.6616  -20.0683  -45.3244 C.3       10 UNK         0.1400 
     23 CB         -3.8598  -19.1889  -44.9414 C.3       10 UNK        -0.1800 
     24 N          -2.2202  -20.8006  -44.1297 N.am      10 UNK        -0.5000 
     25 C          -1.3207  -21.7941  -44.0509 C.2       9 UNK         0.5000 
     26 O          -0.8275  -22.3602  -45.0322 O.2       9 UNK        -0.5000 
     27 CA         -0.9091  -22.2181  -42.6269 C.3       9 UNK         0.1400 
     28 CB          0.3784  -23.0589  -42.5983 C.3       9 UNK        -0.1800 
     29 N          -0.6979  -21.0319  -41.8057 N.am      9 UNK        -0.5000 
     30 C          -1.1910  -20.8142  -40.5794 C.2       8 UNK         0.5000 
     31 O          -1.9016  -21.6201  -39.9779 O.2       8 UNK        -0.5000 
     32 CA         -0.8392  -19.4677  -39.9058 C.3       8 UNK         0.1400 
     33 CB          0.2396  -19.6711  -38.8311 C.3       8 UNK        -0.1800 
     34 N          -0.3717  -18.4489  -40.8482 N.am      8 UNK        -0.5000 
     35 C          -1.1194  -17.8990  -41.8157 C.2       7 UNK         0.5000 
     36 O          -2.3302  -18.0892  -41.9210 O.2       7 UNK        -0.5000 
     37 CA         -0.3915  -17.0430  -42.8717 C.3       7 UNK         0.1400 
     38 CB         -0.6580  -15.5531  -42.6204 C.3       7 UNK        -0.1800 
     39 N           1.0563  -17.2730  -42.9374 N.am      7 UNK        -0.5000 
     40 C           1.6425  -18.4384  -43.2599 C.2       6 UNK         0.5000 
     41 O           1.0036  -19.4457  -43.5629 O.2       6 UNK        -0.5000 
     42 CA          3.1817  -18.5350  -43.1724 C.3       6 UNK         0.1400 
     43 CB          3.8142  -18.7017  -44.5622 C.3       6 UNK        -0.1800 
     44 N           3.8137  -17.4013  -42.4980 N.am      6 UNK        -0.5000 
     45 C           3.7123  -17.1170  -41.1921 C.2       5 UNK         0.5000 
     46 O           3.1028  -17.8218  -40.3867 O.2       5 UNK        -0.5000 
     47 CA          4.3623  -15.7988  -40.7196 C.3       5 UNK         0.1400 
     48 CB          5.7496  -16.0703  -40.1187 C.3       5 UNK        -0.1800 
     49 N           4.4864  -14.7822  -41.7739 N.am      5 UNK        -0.5000 
     50 C           3.4545  -14.2340  -42.4301 C.2       4 UNK         0.5000 
     51 O           2.2810  -14.5481  -42.2243 O.2       4 UNK        -0.5000 
     52 CA          3.8021  -13.2224  -43.5382 C.3       4 UNK         0.1400 
     53 CB          4.2510  -13.9603  -44.8094 C.3       4 UNK        -0.1800 
     54 N           2.6611  -12.3735  -43.8765 N.am      4 UNK        -0.5000 
     55 C           2.1582  -11.4019  -43.1083 C.2       3 UNK         0.5000 
     56 O           2.6689  -11.0443  -42.0456 O.2       3 UNK        -0.5000 
     57 CA          0.8680  -10.7082  -43.5953 C.3       3 UNK         0.1400 
     58 CB          1.1866   -9.5972  -44.6145 C.3       3 UNK        -0.1800 
     59 N          -0.1816  -11.6114  -44.0960 N.am      3 UNK        -0.5000 
     60 C          -0.1784  -12.3845  -45.1903 C.2       2 UNK         0.5000 
     61 O           0.7709  -12.4752  -45.9747 O.2       2 UNK        -0.5000 
     62 CA         -1.4573  -13.1928  -45.4532 C.3       2 UNK         0.1400 
     63 CB         -2.5134  -12.3463  -46.1821 C.3       2 UNK        -0.1800 
     64 N          -1.1044  -14.3380  -46.2790 N.am      2 UNK        -0.5000 
     65 C          -1.6272  -15.5655  -46.2007 C.2       1 UNK         0.5000 
     66 O          -2.5488  -15.8660  -45.4422 O.2       1 UNK        -0.5000 
     67 C          -3.6400  -24.4759  -46.7697 C.2       11 UNK         0.5000 
     68 O          -4.3222  -25.4531  -47.0803 O.2       11 UNK        -0.5000 
     69 N          -2.5769  -24.5475  -45.9557 N.am      12 UNK        -0.5000 
     70 CA         -2.0317  -25.7896  -45.4013 C.3       12 UNK         0.1400 
     71 CB         -2.2652  -25.8239  -43.8830 C.3       12 UNK        -0.1800 
     72 C          -0.5408  -25.9628  -45.7426 C.2       12 UNK         0.5000 
     73 O          -0.0993  -27.1002  -45.9108 O.2       12 UNK        -0.5000 
     74 N           0.2025  -24.8537  -45.8666 N.am      13 UNK        -0.5000 
     75 CA          1.6110  -24.8406  -46.2687 C.3       13 UNK         0.1400 
     76 CB          2.5217  -24.8163  -45.0305 C.3       13 UNK        -0.1800 
     77 C           1.9272  -23.6643  -47.2050 C.2       13 UNK         0.5000 
     78 O           2.7456  -23.8306  -48.1100 O.2       13 UNK        -0.5000 
     79 N           1.2723  -22.5084  -47.0054 N.am      14 UNK        -0.5000 
     80 CA          1.4161  -21.3377  -47.8784 C.3       14 UNK         0.1400 
     81 CB          0.9135  -20.0840  -47.1517 C.3       14 UNK        -0.1800 
     82 C           0.6857  -21.5077  -49.2235 C.2       14 UNK         0.5000 
     83 O           1.0718  -20.8672  -50.2014 O.2       14 UNK        -0.5000 
     84 N          -0.3453  -22.3676  -49.2450 N.am      15 UNK        -0.5000 
     85 CA         -1.1070  -22.8182  -50.4145 C.3       15 UNK         0.1400 
     86 CB         -0.2490  -23.7933  -51.2469 C.3       15 UNK        -0.1800 
     87 C          -1.6760  -21.6622  -51.2604 C.2       15 UNK         0.5000 
     88 O          -1.4989  -21.6534  -52.4795 O.2       15 UNK        -0.5000 
     89 N          -2.3176  -20.6882  -50.5978 N.am      16 UNK        -0.5000 
     90 CA         -2.8765  -19.4668  -51.1941 C.3       16 UNK         0.1400 
     91 CB         -4.0159  -19.8056  -52.1809 C.3       16 UNK        -0.1800 
     92 C          -1.7931  -18.5676  -51.8309 C.2       16 UNK         0.5000 
     93 O          -2.0245  -17.9787  -52.8861 O.2       16 UNK        -0.5000 
     94 N          -0.6119  -18.5184  -51.1944 N.am      17 UNK        -0.5000 
     95 CA          0.6209  -17.8769  -51.6684 C.3       17 UNK         0.1400 
     96 CB          0.4565  -16.3465  -51.7812 C.3       17 UNK        -0.1800 
     97 C           1.1313  -18.5414  -52.9641 C.2       17 UNK         0.5000 
     98 O           1.4484  -17.8601  -53.9403 O.2       17 UNK        -0.5000 
     99 N           1.1620  -19.8811  -52.9349 N.am      18 UNK        -0.5000 
    100 CA         1.5329  -20.8091  -54.0072 C.3       18 UNK         0.1400 
    101 CB         3.0098  -20.6204  -54.4114 C.3       18 UNK        -0.1800 
    102 C          0.5817  -20.8114  -55.2258 C.2       18 UNK         0.5000 
    103 O          0.9372  -21.3771  -56.2613 O.2       18 UNK        -0.5000 
    104 N         -0.6154  -20.2205  -55.0941 N.am      19 UNK        -0.5000 
    105 CA        -1.6596  -20.2440  -56.1230 C.3       19 UNK         0.1400 
    106 CB        -2.6279  -19.0709  -55.9078 C.3       19 UNK        -0.1800 
    107 C         -2.4304  -21.5784  -56.1651 C.2       19 UNK         0.5000 
    108 O         -3.0445  -21.8724  -57.1900 O.2       19 UNK        -0.5000 
    109 N         -2.3758  -22.3496  -55.0670 N.am      20 UNK        -0.5000 
    110 CA        -3.0388  -23.6316  -54.8217 C.3       20 UNK         0.1400 
    111 CB        -2.5964  -24.7051  -55.8373 C.3       20 UNK        -0.1800 
    112 C         -4.5666  -23.4633  -54.7473 C.2       20 UNK         0.5000 
    113 O         -5.2634  -23.6528  -55.7461 O.2       20 UNK        -0.5000 
    114 N         -5.0492  -23.0732  -53.5569 N.am      21 UNK        -0.5000 
    115 CA        -6.4627  -22.8744  -53.2015 C.3       21 UNK         0.1400 
    116 CB        -7.1965  -24.2294  -53.1324 C.3       21 UNK        -0.1800 
    117 C         -7.1692  -21.8486  -54.1134 C.2       21 UNK         0.5000 
    118 O         -8.2756  -22.0923  -54.5981 O.2       21 UNK        -0.5000 
    119 N         -6.4771  -20.7263  -54.3408 N.am      22 UNK        -0.5000 
    120 CA        -6.8623  -19.6057  -55.2157 C.3       22 UNK         0.1400 
    121 C         -6.7483  -19.8996  -56.7428 C.2       22 UNK         0.5000 
    122 N         -6.2440  -21.0491  -57.1750 N.am      22 UNK        -0.7600 
    123 O         -7.0959  -19.0508  -57.5593 O.2       22 UNK        -0.5000 
    124 C124       -8.2286  -18.9385  -54.8600 C.3       23 UNK        -0.0398 
    125 S125       -8.5767  -18.7295  -53.0773 S.3       23 UNK        -0.2404 
    126 C126       -7.3362  -17.4920  -52.5629 C.3       23 UNK        -0.0205 
    127 H127        2.2365  -15.5272  -49.1764 H         1 UNK         0.0600 
    128 H128        3.3576  -16.3808  -48.1120 H         1 UNK         0.0600 
    129 H129        2.9288  -14.6995  -47.7772 H         1 UNK         0.0600 
    130 H130        0.0642  -15.9633  -48.7936 H         1 UNK         0.3000 
    131 H131       -0.7471  -17.4747  -46.4691 H         1 UNK         0.0600 
    132 H132       -2.9204  -17.6211  -47.5590 H         1 UNK         0.0800 
    133 H133       -1.6561  -18.0528  -48.6509 H         1 UNK         0.0800 
    134 H134       -4.7570  -14.7901  -49.2003 H         1 UNK         0.0800 
    135 H135       -4.4872  -15.7173  -47.7499 H         1 UNK         0.0800 
    136 H136       -5.7502  -15.8006  -51.2080 H         1 UNK         0.1150 
    137 H137       -7.5135  -19.7030  -50.8239 H         1 UNK         0.1150 
    138 H138       -5.0526  -18.1612  -47.7090 H         1 UNK         0.1150 
    139 H139       -6.1253  -20.2452  -47.3923 H         1 UNK         0.0800 
    140 H140       -7.5145  -20.6488  -48.3798 H         1 UNK         0.0800 
    141 H141       -5.7455  -23.8866  -48.3842 H         1 UNK         0.0800 
    142 H142       -6.1416  -22.7534  -47.1214 H         1 UNK         0.0800 
    143 H143       -3.2816  -22.9735  -48.1686 H         1 UNK         0.0600 
    144 H144       -3.9505  -22.2718  -45.3853 H         1 UNK         0.3000 
    145 H145       -1.8419  -19.4061  -45.6014 H         1 UNK         0.0600 
    146 H146       -3.5998  -18.4853  -44.1522 H         1 UNK         0.0600 
    147 H147       -4.1997  -18.5923  -45.7836 H         1 UNK         0.0600 
    148 H148       -4.7056  -19.7844  -44.5958 H         1 UNK         0.0600 
    149 H149       -2.5488  -20.4196  -43.2531 H         1 UNK         0.3000 
    150 H150       -1.7292  -22.8175  -42.2278 H         1 UNK         0.0600 
    151 H151        0.2759  -23.9747  -43.1783 H         1 UNK         0.0600 
    152 H152        0.6322  -23.3524  -41.5797 H         1 UNK         0.0600 
    153 H153        1.2224  -22.4989  -43.0025 H         1 UNK         0.0600 
    154 H154       -0.1317  -20.3115  -42.2466 H         1 UNK         0.3000 
    155 H155       -1.7442  -19.0953  -39.4218 H         1 UNK         0.0600 
    156 H156        1.1756  -20.0265  -39.2646 H         1 UNK         0.0600 
    157 H157       -0.0789  -20.4041  -38.0888 H         1 UNK         0.0600 
    158 H158        0.4485  -18.7419  -38.3006 H         1 UNK         0.0600 
    159 H159        0.6157  -18.2314  -40.8246 H         1 UNK         0.3000 
    160 H160       -0.8067  -17.3112  -43.8442 H         1 UNK         0.0600 
    161 H161       -0.2976  -15.2397  -41.6400 H         1 UNK         0.0600 
    162 H162       -1.7256  -15.3343  -42.6654 H         1 UNK         0.0600 
    163 H163       -0.1648  -14.9371  -43.3715 H         1 UNK         0.0600 
    164 H164        1.6413  -16.4769  -42.7079 H         1 UNK         0.3000 
    165 H165        3.4072  -19.4331  -42.5937 H         1 UNK         0.0600 
    166 H166        4.8946  -18.8275  -44.4905 H         1 UNK         0.0600 
    167 H167        3.4235  -19.5852  -45.0665 H         1 UNK         0.0600 
    168 H168        3.6197  -17.8404  -45.2010 H         1 UNK         0.0600 
    169 H169        4.3223  -16.7570  -43.0846 H         1 UNK         0.3000 
    170 H170        3.7241  -15.3869  -39.9352 H         1 UNK         0.0600 
    171 H171        5.6900  -16.8033  -39.3129 H         1 UNK         0.0600 
    172 H172        6.4426  -16.4595  -40.8657 H         1 UNK         0.0600 
    173 H173        6.1826  -15.1626  -39.6979 H         1 UNK         0.0600 
    174 H174        5.4250  -14.4871  -42.0026 H         1 UNK         0.3000 
    175 H175        4.6177  -12.5863  -43.1886 H         1 UNK         0.0600 
    176 H176        3.4702  -14.6242  -45.1818 H         1 UNK         0.0600 
    177 H177        4.5007  -13.2592  -45.6060 H         1 UNK         0.0600 
    178 H178        5.1375  -14.5677  -44.6236 H         1 UNK         0.0600 
    179 H179        2.1522  -12.6012  -44.7260 H         1 UNK         0.3000 
    180 H180        0.4342  -10.2231  -42.7194 H         1 UNK         0.0600 
    181 H181        1.6452   -9.9923  -45.5213 H         1 UNK         0.0600 
    182 H182        1.8809   -8.8703  -44.1912 H         1 UNK         0.0600 
    183 H183        0.2854   -9.0561  -44.9024 H         1 UNK         0.0600 
    184 H184       -1.0072  -11.6407  -43.5138 H         1 UNK         0.3000 
    185 H185       -1.8600  -13.5304  -44.4965 H         1 UNK         0.0600 
    186 H186       -2.8012  -11.4791  -45.5868 H         1 UNK         0.0600 
    187 H187       -2.1426  -11.9806  -47.1405 H         1 UNK         0.0600 
    188 H188       -3.4175  -12.9250  -46.3728 H         1 UNK         0.0600 
    189 H189       -0.3033  -14.1853  -46.8780 H         1 UNK         0.3000 
    190 H190       -2.0670  -23.6962  -45.7502 H         1 UNK         0.3000 
    191 H191       -2.5427  -26.6532  -45.8321 H         1 UNK         0.0600 
    192 H192       -1.8192  -24.9663  -43.3840 H         1 UNK         0.0600 
    193 H193       -1.8361  -26.7236  -43.4401 H         1 UNK         0.0600 
    194 H194       -3.3305  -25.8250  -43.6525 H         1 UNK         0.0600 
    195 H195       -0.2139  -23.9515  -45.6625 H         1 UNK         0.3000 
    196 H196        1.8325  -25.7493  -46.8329 H         1 UNK         0.0600 
    197 H197        3.5687  -24.9170  -45.3187 H         1 UNK         0.0600 
    198 H198        2.2908  -25.6364  -44.3506 H         1 UNK         0.0600 
    199 H199        2.4267  -23.8819  -44.4790 H         1 UNK         0.0600 
    200 H200        0.6311  -22.4115  -46.2243 H         1 UNK         0.3000 
    201 H201        2.4765  -21.1943  -48.0966 H         1 UNK         0.0600 
    202 H202        1.4471  -19.9255  -46.2167 H         1 UNK         0.0600 
    203 H203       -0.1441  -20.1592  -46.9176 H         1 UNK         0.0600 
    204 H204        1.0540  -19.1924  -47.7635 H         1 UNK         0.0600 
    205 H205       -0.5874  -22.8035  -48.3689 H         1 UNK         0.3000 
    206 H206       -1.9664  -23.3757  -50.0426 H         1 UNK         0.0600 
    207 H207       -0.8205  -24.2161  -52.0739 H         1 UNK         0.0600 
    208 H208        0.1019  -24.6262  -50.6375 H         1 UNK         0.0600 
    209 H209        0.6260  -23.2995  -51.6707 H         1 UNK         0.0600 
    210 H210       -2.4098  -20.7606  -49.5865 H         1 UNK         0.3000 
    211 H211       -3.3112  -18.8948  -50.3748 H         1 UNK         0.0600 
    212 H212       -4.4897  -18.8972  -52.5528 H         1 UNK         0.0600 
    213 H213       -4.7909  -20.3988  -51.7007 H         1 UNK         0.0600 
    214 H214       -3.6574  -20.3624  -53.0447 H         1 UNK         0.0600 
    215 H215       -0.4983  -19.1159  -50.3878 H         1 UNK         0.3000 
    216 H216        1.3782  -18.0681  -50.9064 H         1 UNK         0.0600 
    217 H217        1.4125  -15.8695  -51.9995 H         1 UNK         0.0600 
    218 H218        0.0840  -15.9179  -50.8522 H         1 UNK         0.0600 
    219 H219       -0.2343  -16.0670  -52.5769 H         1 UNK         0.0600 
    220 H220        0.9056  -20.3261  -52.0572 H         1 UNK         0.3000 
    221 H221        1.4420  -21.8038  -53.5691 H         1 UNK         0.0600 
    222 H222        3.1711  -19.6740  -54.9279 H         1 UNK         0.0600 
    223 H223        3.6631  -20.6436  -53.5392 H         1 UNK         0.0600 
    224 H224        3.3385  -21.4161  -55.0806 H         1 UNK         0.0600 
    225 H225       -0.8482  -19.7863  -54.2110 H         1 UNK         0.3000 
    226 H226       -1.1879  -20.1073  -57.0984 H         1 UNK         0.0600 
    227 H227       -3.1910  -19.1739  -54.9819 H         1 UNK         0.0600 
    228 H228       -2.0964  -18.1197  -55.8731 H         1 UNK         0.0600 
    229 H229       -3.3521  -19.0107  -56.7213 H         1 UNK         0.0600 
    230 H230       -1.8723  -21.9811  -54.2624 H         1 UNK         0.3000 
    231 H231       -2.6997  -23.9662  -53.8401 H         1 UNK         0.0600 
    232 H232       -1.5121  -24.8169  -55.8428 H         1 UNK         0.0600 
    233 H233       -2.9134  -24.4711  -56.8537 H         1 UNK         0.0600 
    234 H234       -3.0230  -25.6756  -55.5820 H         1 UNK         0.0600 
    235 H235       -4.3904  -22.9124  -52.8087 H         1 UNK         0.3000 
    236 H236       -6.4738  -22.4451  -52.1983 H         1 UNK         0.0600 
    237 H237       -8.2162  -24.1033  -52.7669 H         1 UNK         0.0600 
    238 H238       -6.6921  -24.9158  -52.4524 H         1 UNK         0.0600 
    239 H239       -7.2557  -24.7084  -54.1103 H         1 UNK         0.0600 
    240 H240       -5.5704  -20.6421  -53.9082 H         1 UNK         0.3000 
    241 H241       -6.0892  -18.8578  -55.0418 H         1 UNK         0.0600 
    242 H242       -6.1574  -21.2048  -58.1664 H         1 UNK         0.3800 
    243 H243       -5.9478  -21.7761  -56.5356 H         1 UNK         0.3800 
    244 H244       -8.3041  -17.9602  -55.3375 H         1 UNK         0.0800 
    245 H245       -9.0464  -19.5322  -55.2717 H         1 UNK         0.0800 
    246 H246       -7.8065  -16.5083  -52.5989 H         1 UNK         0.0800 
    247 H247       -6.5175  -17.4647  -53.2809 H         1 UNK         0.0800 
@<TRIPOS>BOND
     1    1    2 1    
     2    1  127 1    
     3    1  128 1    
     4    1  129 1    
     5    2    3 2    
     6    2    4 am   BACKBONE|DICT|INTERRES
     7    4    5 1    
     8    4  130 1    
     9    5    6 1    
    10    5   65 1    
    11    5  131 1    
    12    6    7 1    
    13    6  132 1    
    14    6  133 1    
    15    7    8 1    
    16    8    9 1    
    17    8  134 1    
    18    8  135 1    
    19    9   10 ar   
    20    9   14 ar   
    21   10   11 ar   
    22   10  136 1    
    23   11   12 ar   
    24   11  126 1    
    25   12   13 ar   
    26   12  137 1    
    27   13   14 ar   
    28   13   15 1    
    29   14  138 1    
    30   15   16 1    
    31   15  139 1    
    32   15  140 1    
    33   16   17 1    
    34   17   18 1    
    35   17  141 1    
    36   17  142 1    
    37   18   19 1    
    38   18   67 1    
    39   18  143 1    
    40   19   20 am   BACKBONE|DICT|INTERRES
    41   19  144 1    
    42   20   21 2    
    43   20   22 1    
    44   22   23 1    
    45   22   24 1    
    46   22  145 1    
    47   23  146 1    
    48   23  147 1    
    49   23  148 1    
    50   24   25 am   BACKBONE|DICT|INTERRES
    51   24  149 1    
    52   25   26 2    
    53   25   27 1    
    54   27   28 1    
    55   27   29 1    
    56   27  150 1    
    57   28  151 1    
    58   28  152 1    
    59   28  153 1    
    60   29   30 am   BACKBONE|DICT|INTERRES
    61   29  154 1    
    62   30   31 2    
    63   30   32 1    
    64   32   33 1    
    65   32   34 1    
    66   32  155 1    
    67   33  156 1    
    68   33  157 1    
    69   33  158 1    
    70   34   35 am   BACKBONE|DICT|INTERRES
    71   34  159 1    
    72   35   36 2    
    73   35   37 1    
    74   37   38 1    
    75   37   39 1    
    76   37  160 1    
    77   38  161 1    
    78   38  162 1    
    79   38  163 1    
    80   39   40 am   BACKBONE|DICT|INTERRES
    81   39  164 1    
    82   40   41 2    
    83   40   42 1    
    84   42   43 1    
    85   42   44 1    
    86   42  165 1    
    87   43  166 1    
    88   43  167 1    
    89   43  168 1    
    90   44   45 am   BACKBONE|DICT|INTERRES
    91   44  169 1    
    92   45   46 2    
    93   45   47 1    
    94   47   48 1    
    95   47   49 1    
    96   47  170 1    
    97   48  171 1    
    98   48  172 1    
    99   48  173 1    
   100   49   50 am   BACKBONE|DICT|INTERRES
   101   49  174 1    
   102   50   51 2    
   103   50   52 1    
   104   52   53 1    
   105   52   54 1    
   106   52  175 1    
   107   53  176 1    
   108   53  177 1    
   109   53  178 1    
   110   54   55 am   BACKBONE|DICT|INTERRES
   111   54  179 1    
   112   55   56 2    
   113   55   57 1    
   114   57   58 1    
   115   57   59 1    
   116   57  180 1    
   117   58  181 1    
   118   58  182 1    
   119   58  183 1    
   120   59   60 am   BACKBONE|DICT|INTERRES
   121   59  184 1    
   122   60   61 2    
   123   60   62 1    
   124   62   63 1    
   125   62   64 1    
   126   62  185 1    
   127   63  186 1    
   128   63  187 1    
   129   63  188 1    
   130   64   65 am   BACKBONE|DICT|INTERRES
   131   64  189 1    
   132   65   66 2    
   133   67   68 2    
   134   67   69 am   BACKBONE|DICT|INTERRES
   135   69   70 1    
   136   69  190 1    
   137   70   71 1    
   138   70   72 1    
   139   70  191 1    
   140   71  192 1    
   141   71  193 1    
   142   71  194 1    
   143   72   73 2    
   144   72   74 am   BACKBONE|DICT|INTERRES
   145   74   75 1    
   146   74  195 1    
   147   75   76 1    
   148   75   77 1    
   149   75  196 1    
   150   76  197 1    
   151   76  198 1    
   152   76  199 1    
   153   77   78 2    
   154   77   79 am   BACKBONE|DICT|INTERRES
   155   79   80 1    
   156   79  200 1    
   157   80   81 1    
   158   80   82 1    
   159   80  201 1    
   160   81  202 1    
   161   81  203 1    
   162   81  204 1    
   163   82   83 2    
   164   82   84 am   BACKBONE|DICT|INTERRES
   165   84   85 1    
   166   84  205 1    
   167   85   86 1    
   168   85   87 1    
   169   85  206 1    
   170   86  207 1    
   171   86  208 1    
   172   86  209 1    
   173   87   88 2    
   174   87   89 am   BACKBONE|DICT|INTERRES
   175   89   90 1    
   176   89  210 1    
   177   90   91 1    
   178   90   92 1    
   179   90  211 1    
   180   91  212 1    
   181   91  213 1    
   182   91  214 1    
   183   92   93 2    
   184   92   94 am   BACKBONE|DICT|INTERRES
   185   94   95 1    
   186   94  215 1    
   187   95   96 1    
   188   95   97 1    
   189   95  216 1    
   190   96  217 1    
   191   96  218 1    
   192   96  219 1    
   193   97   98 2    
   194   97   99 am   BACKBONE|DICT|INTERRES
   195   99  100 1    
   196   99  220 1    
   197  100  101 1    
   198  100  102 1    
   199  100  221 1    
   200  101  222 1    
   201  101  223 1    
   202  101  224 1    
   203  102  103 2    
   204  102  104 am   BACKBONE|DICT|INTERRES
   205  104  105 1    
   206  104  225 1    
   207  105  106 1    
   208  105  107 1    
   209  105  226 1    
   210  106  227 1    
   211  106  228 1    
   212  106  229 1    
   213  107  108 2    
   214  107  109 am   BACKBONE|DICT|INTERRES
   215  109  110 1    
   216  109  230 1    
   217  110  111 1    
   218  110  112 1    
   219  110  231 1    
   220  111  232 1    
   221  111  233 1    
   222  111  234 1    
   223  112  113 2    
   224  112  114 am   BACKBONE|DICT|INTERRES
   225  114  115 1    
   226  114  235 1    
   227  115  116 1    
   228  115  117 1    
   229  115  236 1    
   230  116  237 1    
   231  116  238 1    
   232  116  239 1    
   233  117  118 2    
   234  117  119 am   BACKBONE|DICT|INTERRES
   235  119  120 1    
   236  119  240 1    
   237  120  121 1    
   238  120  124 1    
   239  120  241 1    
   240  121  122 am   BACKBONE|DICT|INTERRES
   241  121  123 2    
   242  122  242 1    
   243  122  243 1    
   244  124  125 1    
   245  124  244 1    
   246  124  245 1    
   247  125  126 1    
   248  126  246 1    
   249  126  247 1    
@<TRIPOS>SUBSTRUCTURE
     1 UNK         1 GROUP             0       ****    0 ROOT    
