@<TRIPOS>MOLECULE
3R540
247   249    1
SMALL
USER_CHARGES


@<TRIPOS>ATOM
      1 CA         -5.5320  -16.4889  -47.7521 C.3       0 UNK        -0.1800 
      2 C          -4.3622  -15.6388  -47.2801 C.2       0 UNK         0.5000 
      3 O          -3.5142  -16.1190  -46.5294 O.2       0 UNK        -0.5000 
      4 N          -4.3234  -14.3721  -47.7108 N.am      1 UNK        -0.5000 
      5 CA         -3.3160  -13.3391  -47.4227 C.3       1 UNK         0.1400 
      6 C6         -1.8501  -13.7176  -47.7715 C.3       23 UNK        -0.0398 
      7 S7         -1.6110  -14.4808  -49.4119 S.3       23 UNK        -0.2404 
      8 C8         -0.7606  -16.0090  -48.9038 C.3       23 UNK        -0.0205 
      9 C9         -0.2774  -16.8284  -50.0870 C.ar      23 UNK        -0.0193 
     10 C10         0.7626  -16.3540  -50.8905 C.ar      23 UNK        -0.1150 
     11 C11         1.2539  -17.1236  -51.9487 C.ar      23 UNK        -0.0193 
     12 C12         0.7073  -18.3882  -52.1872 C.ar      23 UNK        -0.1150 
     13 C13        -0.3284  -18.8763  -51.3841 C.ar      23 UNK        -0.0193 
     14 C14        -0.8279  -18.0853  -50.3457 C.ar      23 UNK        -0.1150 
     15 C15        -0.8887  -20.2712  -51.6155 C.3       23 UNK        -0.0205 
     16 S16         0.3115  -21.5749  -51.1929 S.3       23 UNK        -0.2404 
     17 C17         0.5708  -21.2826  -49.4096 C.3       23 UNK        -0.0398 
     18 CA         -0.0967  -22.3268  -48.4841 C.3       11 UNK         0.1400 
     19 N           0.4891  -22.2568  -47.1441 N.am      11 UNK        -0.5000 
     20 C           0.4406  -23.2360  -46.2341 C.2       10 UNK         0.5000 
     21 O          -0.3052  -24.2104  -46.3176 O.2       10 UNK        -0.5000 
     22 CA          1.4288  -23.1276  -45.0575 C.3       10 UNK         0.1400 
     23 CB          2.8786  -22.9701  -45.5477 C.3       10 UNK        -0.1800 
     24 N           1.1008  -22.0267  -44.1611 N.am      10 UNK        -0.5000 
     25 C           0.0702  -22.0342  -43.3079 C.2       9 UNK         0.5000 
     26 O          -0.6769  -22.9970  -43.1458 O.2       9 UNK        -0.5000 
     27 CA         -0.2003  -20.7292  -42.5373 C.3       9 UNK         0.1400 
     28 CB          0.7175  -20.6181  -41.3115 C.3       9 UNK        -0.1800 
     29 N          -0.0596  -19.5355  -43.3713 N.am      9 UNK        -0.5000 
     30 C          -0.7475  -19.3028  -44.4980 C.2       8 UNK         0.5000 
     31 O          -1.5889  -20.0750  -44.9582 O.2       8 UNK        -0.5000 
     32 CA         -0.3887  -18.0200  -45.2661 C.3       8 UNK         0.1400 
     33 CB         -1.0023  -16.7823  -44.5909 C.3       8 UNK        -0.1800 
     34 N           1.0611  -17.8592  -45.3898 N.am      8 UNK        -0.5000 
     35 C           1.8453  -18.6547  -46.1328 C.2       7 UNK         0.5000 
     36 O           1.4200  -19.5582  -46.8513 O.2       7 UNK        -0.5000 
     37 CA          3.3648  -18.4482  -46.0114 C.3       7 UNK         0.1400 
     38 CB          3.8558  -17.3650  -46.9796 C.3       7 UNK        -0.1800 
     39 N           3.7730  -18.1174  -44.6457 N.am      7 UNK        -0.5000 
     40 C           3.7554  -18.9994  -43.6358 C.2       6 UNK         0.5000 
     41 O           3.4177  -20.1761  -43.7662 O.2       6 UNK        -0.5000 
     42 CA          4.1381  -18.4751  -42.2389 C.3       6 UNK         0.1400 
     43 CB          5.6560  -18.5691  -42.0261 C.3       6 UNK        -0.1800 
     44 N           3.6993  -17.1017  -41.9837 N.am      6 UNK        -0.5000 
     45 C           2.4280  -16.6793  -42.0104 C.2       5 UNK         0.5000 
     46 O           1.4754  -17.4130  -42.2711 O.2       5 UNK        -0.5000 
     47 CA          2.1648  -15.1900  -41.7198 C.3       5 UNK         0.1400 
     48 CB          3.3259  -14.4805  -40.9884 C.3       5 UNK        -0.1800 
     49 N           1.7953  -14.4420  -42.9244 N.am      5 UNK        -0.5000 
     50 C           2.5079  -14.3041  -44.0553 C.2       4 UNK         0.5000 
     51 O           3.5455  -14.9263  -44.2886 O.2       4 UNK        -0.5000 
     52 CA          1.9871  -13.3004  -45.1095 C.3       4 UNK         0.1400 
     53 CB          1.6071  -14.0118  -46.4160 C.3       4 UNK        -0.1800 
     54 N           0.8398  -12.5132  -44.6531 N.am      4 UNK        -0.5000 
     55 C           0.8955  -11.4938  -43.7843 C.2       3 UNK         0.5000 
     56 O           1.9457  -11.0576  -43.3124 O.2       3 UNK        -0.5000 
     57 CA         -0.4469  -10.8686  -43.3524 C.3       3 UNK         0.1400 
     58 CB         -0.6462   -9.5044  -44.0301 C.3       3 UNK        -0.1800 
     59 N          -1.6182  -11.7048  -43.6329 N.am      3 UNK        -0.5000 
     60 C          -1.8994  -12.8913  -43.0802 C.2       2 UNK         0.5000 
     61 O          -1.1589  -13.4568  -42.2748 O.2       2 UNK        -0.5000 
     62 CA         -3.1971  -13.5829  -43.5444 C.3       2 UNK         0.1400 
     63 CB         -4.4450  -12.8867  -42.9700 C.3       2 UNK        -0.1800 
     64 N          -3.2915  -13.7471  -45.0017 N.am      2 UNK        -0.5000 
     65 C          -3.3807  -12.8224  -45.9696 C.2       1 UNK         0.5000 
     66 O          -3.4683  -11.6118  -45.7606 O.2       1 UNK        -0.5000 
     67 C          -1.6315  -22.1903  -48.4870 C.2       11 UNK         0.5000 
     68 O          -2.2976  -22.8697  -49.2738 O.2       11 UNK        -0.5000 
     69 N          -2.1685  -21.3108  -47.6308 N.am      12 UNK        -0.5000 
     70 CA         -3.6030  -21.0604  -47.5511 C.3       12 UNK         0.1400 
     71 CB         -3.8880  -19.5857  -47.2257 C.3       12 UNK        -0.1800 
     72 C          -4.2644  -22.0109  -46.5470 C.2       12 UNK         0.5000 
     73 O          -5.1843  -22.7325  -46.9289 O.2       12 UNK        -0.5000 
     74 N          -3.7961  -22.0004  -45.2923 N.am      13 UNK        -0.5000 
     75 CA         -4.4219  -22.7457  -44.2009 C.3       13 UNK         0.1400 
     76 CB         -4.0599  -22.1204  -42.8453 C.3       13 UNK        -0.1800 
     77 C          -4.1290  -24.2561  -44.2573 C.2       13 UNK         0.5000 
     78 O          -5.0438  -25.0296  -44.5428 O.2       13 UNK        -0.5000 
     79 N          -2.8817  -24.6604  -43.9731 N.am      14 UNK        -0.5000 
     80 CA         -2.4900  -26.0663  -43.8146 C.3       14 UNK         0.1400 
     81 CB         -1.0553  -26.1573  -43.2743 C.3       14 UNK        -0.1800 
     82 C          -2.6406  -26.9066  -45.0944 C.2       14 UNK         0.5000 
     83 O          -3.1364  -28.0321  -45.0254 O.2       14 UNK        -0.5000 
     84 N          -2.2355  -26.3413  -46.2382 N.am      15 UNK        -0.5000 
     85 CA         -2.3440  -26.9750  -47.5536 C.3       15 UNK         0.1400 
     86 CB         -1.2686  -26.3933  -48.4817 C.3       15 UNK        -0.1800 
     87 C          -3.7487  -26.8576  -48.1829 C.2       15 UNK         0.5000 
     88 O          -3.9691  -27.4427  -49.2439 O.2       15 UNK        -0.5000 
     89 N          -4.6662  -26.1296  -47.5251 N.am      16 UNK        -0.5000 
     90 CA         -6.0696  -25.9156  -47.8931 C.3       16 UNK         0.1400 
     91 CB         -6.8694  -27.2283  -47.7583 C.3       16 UNK        -0.1800 
     92 C          -6.2209  -25.2495  -49.2759 C.2       16 UNK         0.5000 
     93 O          -6.8365  -25.8201  -50.1785 O.2       16 UNK        -0.5000 
     94 N          -5.6402  -24.0475  -49.3955 N.am      17 UNK        -0.5000 
     95 CA         -5.5927  -23.1816  -50.5761 C.3       17 UNK         0.1400 
     96 CB         -6.9941  -22.6240  -50.8988 C.3       17 UNK        -0.1800 
     97 C          -4.9264  -23.8753  -51.7778 C.2       17 UNK         0.5000 
     98 O          -5.5943  -24.1917  -52.7647 O.2       17 UNK        -0.5000 
     99 N          -3.6105  -24.1061  -51.6642 N.am      18 UNK        -0.5000 
    100 CA        -2.7898  -24.7373  -52.7053 C.3       18 UNK         0.1400 
    101 CB        -1.3933  -25.0330  -52.1433 C.3       18 UNK        -0.1800 
    102 C         -2.6931  -23.9149  -54.0076 C.2       18 UNK         0.5000 
    103 O         -2.5093  -24.4928  -55.0798 O.2       18 UNK        -0.5000 
    104 N         -2.8554  -22.5938  -53.8930 N.am      19 UNK        -0.5000 
    105 CA        -3.0194  -21.6415  -54.9826 C.3       19 UNK         0.1400 
    106 CB        -1.6535  -21.2851  -55.6015 C.3       19 UNK        -0.1800 
    107 C         -3.7353  -20.4035  -54.4208 C.2       19 UNK         0.5000 
    108 O         -3.8492  -20.2618  -53.1992 O.2       19 UNK        -0.5000 
    109 N         -4.1882  -19.5263  -55.3191 N.am      20 UNK        -0.5000 
    110 CA        -4.7408  -18.2119  -55.0061 C.3       20 UNK         0.1400 
    111 CB        -6.2058  -18.1514  -55.4653 C.3       20 UNK        -0.1800 
    112 C         -3.8937  -17.1681  -55.7439 C.2       20 UNK         0.5000 
    113 O         -3.4934  -17.4158  -56.8852 O.2       20 UNK        -0.5000 
    114 N         -3.6059  -16.0418  -55.0746 N.am      21 UNK        -0.5000 
    115 CA        -2.7765  -14.9222  -55.5528 C.3       21 UNK         0.1400 
    116 CB        -3.5273  -14.1339  -56.6463 C.3       21 UNK        -0.1800 
    117 C         -1.3558  -15.3482  -55.9958 C.2       21 UNK         0.5000 
    118 O         -0.7872  -14.7549  -56.9142 O.2       21 UNK        -0.5000 
    119 N         -0.8328  -16.3967  -55.3462 N.am      22 UNK        -0.5000 
    120 CA         0.4163  -17.1055  -55.6711 C.3       22 UNK         0.1400 
    121 C          0.3886  -17.9021  -57.0134 C.2       22 UNK         0.5000 
    122 N         -0.7583  -18.1129  -57.6495 N.am      22 UNK        -0.7600 
    123 O          1.4249  -18.3707  -57.4767 O.2       22 UNK        -0.5000 
    124 C124        1.6953  -16.2307  -55.5336 C.3       23 UNK        -0.0398 
    125 S125        1.8228  -15.3091  -53.9612 S.3       23 UNK        -0.2404 
    126 C126        2.3964  -16.5911  -52.8012 C.3       23 UNK        -0.0205 
    127 H127       -6.3322  -15.8776  -48.1699 H         1 UNK         0.0600 
    128 H128       -5.9428  -17.0598  -46.9195 H         1 UNK         0.0600 
    129 H129       -5.2001  -17.1868  -48.5203 H         1 UNK         0.0600 
    130 H130       -5.0729  -14.0567  -48.3102 H         1 UNK         0.3000 
    131 H131       -3.5880  -12.4982  -48.0628 H         1 UNK         0.0600 
    132 H132       -1.4452  -14.3892  -47.0142 H         1 UNK         0.0800 
    133 H133       -1.2239  -12.8245  -47.7370 H         1 UNK         0.0800 
    134 H134       -1.4298  -16.5979  -48.2746 H         1 UNK         0.0800 
    135 H135        0.1028  -15.7592  -48.2873 H         1 UNK         0.0800 
    136 H136        1.1931  -15.3829  -50.6891 H         1 UNK         0.1150 
    137 H137        1.1012  -19.0075  -52.9804 H         1 UNK         0.1150 
    138 H138       -1.6222  -18.4633  -49.7175 H         1 UNK         0.1150 
    139 H139       -1.8078  -20.4253  -51.0478 H         1 UNK         0.0800 
    140 H140       -1.1597  -20.3710  -52.6641 H         1 UNK         0.0800 
    141 H141        0.2624  -20.2754  -49.1323 H         1 UNK         0.0800 
    142 H142        1.6509  -21.3009  -49.2569 H         1 UNK         0.0800 
    143 H143        0.1352  -23.3178  -48.8809 H         1 UNK         0.0600 
    144 H144        1.0434  -21.4268  -46.9519 H         1 UNK         0.3000 
    145 H145        1.3741  -24.0607  -44.4934 H         1 UNK         0.0600 
    146 H146        3.5796  -23.0251  -44.7146 H         1 UNK         0.0600 
    147 H147        3.0401  -22.0155  -46.0500 H         1 UNK         0.0600 
    148 H148        3.1439  -23.7624  -46.2488 H         1 UNK         0.0600 
    149 H149        1.7019  -21.2104  -44.1963 H         1 UNK         0.3000 
    150 H150       -1.2312  -20.7534  -42.1824 H         1 UNK         0.0600 
    151 H151        0.5729  -21.4652  -40.6399 H         1 UNK         0.0600 
    152 H152        0.5106  -19.7115  -40.7426 H         1 UNK         0.0600 
    153 H153        1.7688  -20.6031  -41.5967 H         1 UNK         0.0600 
    154 H154        0.5900  -18.8241  -43.0429 H         1 UNK         0.3000 
    155 H155       -0.8148  -18.1043  -46.2683 H         1 UNK         0.0600 
    156 H156       -0.5527  -16.5711  -43.6217 H         1 UNK         0.0600 
    157 H157       -2.0709  -16.9225  -44.4250 H         1 UNK         0.0600 
    158 H158       -0.8880  -15.8961  -45.2118 H         1 UNK         0.0600 
    159 H159        1.5005  -17.1984  -44.7665 H         1 UNK         0.3000 
    160 H160        3.8443  -19.3879  -46.2945 H         1 UNK         0.0600 
    161 H161        3.4861  -16.3823  -46.6964 H         1 UNK         0.0600 
    162 H162        3.5212  -17.5652  -47.9985 H         1 UNK         0.0600 
    163 H163        4.9447  -17.3184  -46.9965 H         1 UNK         0.0600 
    164 H164        4.0205  -17.1536  -44.4551 H         1 UNK         0.3000 
    165 H165        3.6523  -19.1167  -41.5017 H         1 UNK         0.0600 
    166 H166        5.9303  -18.2893  -41.0088 H         1 UNK         0.0600 
    167 H167        6.0106  -19.5879  -42.1884 H         1 UNK         0.0600 
    168 H168        6.1997  -17.9187  -42.7125 H         1 UNK         0.0600 
    169 H169        4.4229  -16.4236  -41.7945 H         1 UNK         0.3000 
    170 H170        1.2953  -15.1598  -41.0615 H         1 UNK         0.0600 
    171 H171        3.5926  -15.0052  -40.0700 H         1 UNK         0.0600 
    172 H172        4.2227  -14.4069  -41.6045 H         1 UNK         0.0600 
    173 H173        3.0411  -13.4668  -40.7059 H         1 UNK         0.0600 
    174 H174        0.9205  -13.9362  -42.8543 H         1 UNK         0.3000 
    175 H175        2.8043  -12.6101  -45.3291 H         1 UNK         0.0600 
    176 H176        0.9254  -14.8426  -46.2403 H         1 UNK         0.0600 
    177 H177        1.1380  -13.3269  -47.1221 H         1 UNK         0.0600 
    178 H178        2.4930  -14.4070  -46.9102 H         1 UNK         0.0600 
    179 H179       -0.0694  -12.8002  -44.9800 H         1 UNK         0.3000 
    180 H180       -0.3986  -10.7134  -42.2727 H         1 UNK         0.0600 
    181 H181       -1.5497   -9.0128  -43.6686 H         1 UNK         0.0600 
    182 H182       -0.7287   -9.6032  -45.1133 H         1 UNK         0.0600 
    183 H183        0.1907   -8.8362  -43.8228 H         1 UNK         0.0600 
    184 H184       -2.2754  -11.3532  -44.3247 H         1 UNK         0.3000 
    185 H185       -3.1737  -14.5950  -43.1367 H         1 UNK         0.0600 
    186 H186       -4.5427  -11.8593  -43.3211 H         1 UNK         0.0600 
    187 H187       -5.3539  -13.4217  -43.2453 H         1 UNK         0.0600 
    188 H188       -4.4041  -12.8548  -41.8806 H         1 UNK         0.0600 
    189 H189       -3.2542  -14.7116  -45.3263 H         1 UNK         0.3000 
    190 H190       -1.5832  -20.8458  -46.9469 H         1 UNK         0.3000 
    191 H191       -4.0540  -21.2432  -48.5270 H         1 UNK         0.0600 
    192 H192       -3.3777  -18.9204  -47.9220 H         1 UNK         0.0600 
    193 H193       -3.5898  -19.3038  -46.2179 H         1 UNK         0.0600 
    194 H194       -4.9562  -19.3840  -47.3056 H         1 UNK         0.0600 
    195 H195       -3.0144  -21.3923  -45.0634 H         1 UNK         0.3000 
    196 H196       -5.5039  -22.6345  -44.3049 H         1 UNK         0.0600 
    197 H197       -4.3750  -21.0780  -42.7974 H         1 UNK         0.0600 
    198 H198       -2.9925  -22.1521  -42.6505 H         1 UNK         0.0600 
    199 H199       -4.5553  -22.6480  -42.0295 H         1 UNK         0.0600 
    200 H200       -2.1646  -23.9703  -43.7595 H         1 UNK         0.3000 
    201 H201       -3.1523  -26.5019  -43.0635 H         1 UNK         0.0600 
    202 H202       -0.9612  -25.6470  -42.3157 H         1 UNK         0.0600 
    203 H203       -0.3385  -25.7118  -43.9638 H         1 UNK         0.0600 
    204 H204       -0.7600  -27.1958  -43.1198 H         1 UNK         0.0600 
    205 H205       -1.7669  -25.4386  -46.2042 H         1 UNK         0.3000 
    206 H206       -2.1343  -28.0408  -47.4410 H         1 UNK         0.0600 
    207 H207       -1.4720  -25.3522  -48.7295 H         1 UNK         0.0600 
    208 H208       -0.2798  -26.4442  -48.0257 H         1 UNK         0.0600 
    209 H209       -1.2206  -26.9575  -49.4126 H         1 UNK         0.0600 
    210 H210       -4.3836  -25.6966  -46.6553 H         1 UNK         0.3000 
    211 H211       -6.4750  -25.2132  -47.1631 H         1 UNK         0.0600 
    212 H212       -6.5335  -27.9861  -48.4668 H         1 UNK         0.0600 
    213 H213       -7.9308  -27.0574  -47.9413 H         1 UNK         0.0600 
    214 H214       -6.7757  -27.6432  -46.7546 H         1 UNK         0.0600 
    215 H215       -5.2104  -23.6627  -48.5583 H         1 UNK         0.3000 
    216 H216       -4.9596  -22.3321  -50.3212 H         1 UNK         0.0600 
    217 H217       -7.4068  -22.0832  -50.0472 H         1 UNK         0.0600 
    218 H218       -7.6971  -23.4132  -51.1670 H         1 UNK         0.0600 
    219 H219       -6.9500  -21.9268  -51.7365 H         1 UNK         0.0600 
    220 H220       -3.1310  -23.8057  -50.8194 H         1 UNK         0.3000 
    221 H221       -3.2570  -25.6902  -52.9625 H         1 UNK         0.0600 
    222 H222       -0.9142  -24.1330  -51.7612 H         1 UNK         0.0600 
    223 H223       -1.4487  -25.7539  -51.3309 H         1 UNK         0.0600 
    224 H224       -0.7407  -25.4570  -52.9075 H         1 UNK         0.0600 
    225 H225       -3.0452  -22.2001  -52.9797 H         1 UNK         0.3000 
    226 H226       -3.6620  -22.0851  -55.7460 H         1 UNK         0.0600 
    227 H227       -1.1525  -22.1706  -55.9924 H         1 UNK         0.0600 
    228 H228       -1.7694  -20.5913  -56.4344 H         1 UNK         0.0600 
    229 H229       -0.9841  -20.8181  -54.8802 H         1 UNK         0.0600 
    230 H230       -4.0041  -19.6823  -56.3014 H         1 UNK         0.3000 
    231 H231       -4.6966  -18.0121  -53.9333 H         1 UNK         0.0600 
    232 H232       -6.6428  -17.1758  -55.2489 H         1 UNK         0.0600 
    233 H233       -6.8088  -18.9001  -54.9513 H         1 UNK         0.0600 
    234 H234       -6.3005  -18.3243  -56.5382 H         1 UNK         0.0600 
    235 H235       -3.9696  -15.9362  -54.1374 H         1 UNK         0.3000 
    236 H236       -2.6376  -14.2551  -54.7009 H         1 UNK         0.0600 
    237 H237       -3.6534  -14.7242  -57.5546 H         1 UNK         0.0600 
    238 H238       -4.5165  -13.8298  -56.3042 H         1 UNK         0.0600 
    239 H239       -2.9870  -13.2262  -56.9178 H         1 UNK         0.0600 
    240 H240       -1.3778  -16.8034  -54.6010 H         1 UNK         0.3000 
    241 H241        0.4893  -17.8869  -54.9179 H         1 UNK         0.0600 
    242 H242       -0.7489  -18.6343  -58.5113 H         1 UNK         0.3800 
    243 H243       -1.6383  -17.7433  -57.3030 H         1 UNK         0.3800 
    244 H244        1.7367  -15.5031  -56.3452 H         1 UNK         0.0800 
    245 H245        2.5919  -16.8427  -55.6431 H         1 UNK         0.0800 
    246 H246        3.1537  -16.1555  -52.1478 H         1 UNK         0.0800 
    247 H247        2.8925  -17.4010  -53.3378 H         1 UNK         0.0800 
@<TRIPOS>BOND
     1    1    2 1    
     2    1  127 1    
     3    1  128 1    
     4    1  129 1    
     5    2    3 2    
     6    2    4 am   BACKBONE|DICT|INTERRES
     7    4    5 1    
     8    4  130 1    
     9    5    6 1    
    10    5   65 1    
    11    5  131 1    
    12    6    7 1    
    13    6  132 1    
    14    6  133 1    
    15    7    8 1    
    16    8    9 1    
    17    8  134 1    
    18    8  135 1    
    19    9   10 ar   
    20    9   14 ar   
    21   10   11 ar   
    22   10  136 1    
    23   11   12 ar   
    24   11  126 1    
    25   12   13 ar   
    26   12  137 1    
    27   13   14 ar   
    28   13   15 1    
    29   14  138 1    
    30   15   16 1    
    31   15  139 1    
    32   15  140 1    
    33   16   17 1    
    34   17   18 1    
    35   17  141 1    
    36   17  142 1    
    37   18   19 1    
    38   18   67 1    
    39   18  143 1    
    40   19   20 am   BACKBONE|DICT|INTERRES
    41   19  144 1    
    42   20   21 2    
    43   20   22 1    
    44   22   23 1    
    45   22   24 1    
    46   22  145 1    
    47   23  146 1    
    48   23  147 1    
    49   23  148 1    
    50   24   25 am   BACKBONE|DICT|INTERRES
    51   24  149 1    
    52   25   26 2    
    53   25   27 1    
    54   27   28 1    
    55   27   29 1    
    56   27  150 1    
    57   28  151 1    
    58   28  152 1    
    59   28  153 1    
    60   29   30 am   BACKBONE|DICT|INTERRES
    61   29  154 1    
    62   30   31 2    
    63   30   32 1    
    64   32   33 1    
    65   32   34 1    
    66   32  155 1    
    67   33  156 1    
    68   33  157 1    
    69   33  158 1    
    70   34   35 am   BACKBONE|DICT|INTERRES
    71   34  159 1    
    72   35   36 2    
    73   35   37 1    
    74   37   38 1    
    75   37   39 1    
    76   37  160 1    
    77   38  161 1    
    78   38  162 1    
    79   38  163 1    
    80   39   40 am   BACKBONE|DICT|INTERRES
    81   39  164 1    
    82   40   41 2    
    83   40   42 1    
    84   42   43 1    
    85   42   44 1    
    86   42  165 1    
    87   43  166 1    
    88   43  167 1    
    89   43  168 1    
    90   44   45 am   BACKBONE|DICT|INTERRES
    91   44  169 1    
    92   45   46 2    
    93   45   47 1    
    94   47   48 1    
    95   47   49 1    
    96   47  170 1    
    97   48  171 1    
    98   48  172 1    
    99   48  173 1    
   100   49   50 am   BACKBONE|DICT|INTERRES
   101   49  174 1    
   102   50   51 2    
   103   50   52 1    
   104   52   53 1    
   105   52   54 1    
   106   52  175 1    
   107   53  176 1    
   108   53  177 1    
   109   53  178 1    
   110   54   55 am   BACKBONE|DICT|INTERRES
   111   54  179 1    
   112   55   56 2    
   113   55   57 1    
   114   57   58 1    
   115   57   59 1    
   116   57  180 1    
   117   58  181 1    
   118   58  182 1    
   119   58  183 1    
   120   59   60 am   BACKBONE|DICT|INTERRES
   121   59  184 1    
   122   60   61 2    
   123   60   62 1    
   124   62   63 1    
   125   62   64 1    
   126   62  185 1    
   127   63  186 1    
   128   63  187 1    
   129   63  188 1    
   130   64   65 am   BACKBONE|DICT|INTERRES
   131   64  189 1    
   132   65   66 2    
   133   67   68 2    
   134   67   69 am   BACKBONE|DICT|INTERRES
   135   69   70 1    
   136   69  190 1    
   137   70   71 1    
   138   70   72 1    
   139   70  191 1    
   140   71  192 1    
   141   71  193 1    
   142   71  194 1    
   143   72   73 2    
   144   72   74 am   BACKBONE|DICT|INTERRES
   145   74   75 1    
   146   74  195 1    
   147   75   76 1    
   148   75   77 1    
   149   75  196 1    
   150   76  197 1    
   151   76  198 1    
   152   76  199 1    
   153   77   78 2    
   154   77   79 am   BACKBONE|DICT|INTERRES
   155   79   80 1    
   156   79  200 1    
   157   80   81 1    
   158   80   82 1    
   159   80  201 1    
   160   81  202 1    
   161   81  203 1    
   162   81  204 1    
   163   82   83 2    
   164   82   84 am   BACKBONE|DICT|INTERRES
   165   84   85 1    
   166   84  205 1    
   167   85   86 1    
   168   85   87 1    
   169   85  206 1    
   170   86  207 1    
   171   86  208 1    
   172   86  209 1    
   173   87   88 2    
   174   87   89 am   BACKBONE|DICT|INTERRES
   175   89   90 1    
   176   89  210 1    
   177   90   91 1    
   178   90   92 1    
   179   90  211 1    
   180   91  212 1    
   181   91  213 1    
   182   91  214 1    
   183   92   93 2    
   184   92   94 am   BACKBONE|DICT|INTERRES
   185   94   95 1    
   186   94  215 1    
   187   95   96 1    
   188   95   97 1    
   189   95  216 1    
   190   96  217 1    
   191   96  218 1    
   192   96  219 1    
   193   97   98 2    
   194   97   99 am   BACKBONE|DICT|INTERRES
   195   99  100 1    
   196   99  220 1    
   197  100  101 1    
   198  100  102 1    
   199  100  221 1    
   200  101  222 1    
   201  101  223 1    
   202  101  224 1    
   203  102  103 2    
   204  102  104 am   BACKBONE|DICT|INTERRES
   205  104  105 1    
   206  104  225 1    
   207  105  106 1    
   208  105  107 1    
   209  105  226 1    
   210  106  227 1    
   211  106  228 1    
   212  106  229 1    
   213  107  108 2    
   214  107  109 am   BACKBONE|DICT|INTERRES
   215  109  110 1    
   216  109  230 1    
   217  110  111 1    
   218  110  112 1    
   219  110  231 1    
   220  111  232 1    
   221  111  233 1    
   222  111  234 1    
   223  112  113 2    
   224  112  114 am   BACKBONE|DICT|INTERRES
   225  114  115 1    
   226  114  235 1    
   227  115  116 1    
   228  115  117 1    
   229  115  236 1    
   230  116  237 1    
   231  116  238 1    
   232  116  239 1    
   233  117  118 2    
   234  117  119 am   BACKBONE|DICT|INTERRES
   235  119  120 1    
   236  119  240 1    
   237  120  121 1    
   238  120  124 1    
   239  120  241 1    
   240  121  122 am   BACKBONE|DICT|INTERRES
   241  121  123 2    
   242  122  242 1    
   243  122  243 1    
   244  124  125 1    
   245  124  244 1    
   246  124  245 1    
   247  125  126 1    
   248  126  246 1    
   249  126  247 1    
@<TRIPOS>SUBSTRUCTURE
     1 UNK         1 GROUP             0       ****    0 ROOT    
