@<TRIPOS>MOLECULE
3R540
247   249    1
SMALL
USER_CHARGES


@<TRIPOS>ATOM
      1 CA          5.9087  -12.9693  -44.4356 C.3       0 UNK        -0.1800 
      2 C           4.4690  -12.6930  -44.8434 C.2       0 UNK         0.5000 
      3 O           3.6419  -12.3639  -43.9925 O.2       0 UNK        -0.5000 
      4 N           4.1632  -12.8307  -46.1392 N.am      1 UNK        -0.5000 
      5 CA          2.8353  -12.6094  -46.7142 C.3       1 UNK         0.1400 
      6 C6          2.6398  -13.3564  -48.0580 C.3       23 UNK        -0.0398 
      7 S7          2.2464  -15.1085  -47.7714 S.3       23 UNK        -0.2404 
      8 C8          2.6371  -15.8273  -49.3883 C.3       23 UNK        -0.0205 
      9 C9          2.2691  -17.3000  -49.4094 C.ar      23 UNK        -0.0193 
     10 C10         0.9796  -17.6933  -49.7708 C.ar      23 UNK        -0.1150 
     11 C11         0.6303  -19.0438  -49.7834 C.ar      23 UNK        -0.0193 
     12 C12         1.5837  -20.0069  -49.4417 C.ar      23 UNK        -0.1150 
     13 C13         2.8835  -19.6299  -49.0753 C.ar      23 UNK        -0.0193 
     14 C14         3.2126  -18.2705  -49.0620 C.ar      23 UNK        -0.1150 
     15 C15         3.9778  -20.6398  -48.7221 C.3       23 UNK        -0.0205 
     16 S16         3.4286  -22.3565  -48.4276 S.3       23 UNK        -0.2404 
     17 C17         2.6687  -22.2089  -46.7778 C.3       23 UNK        -0.0398 
     18 CA          1.5902  -23.2911  -46.5306 C.3       11 UNK         0.1400 
     19 N           1.4578  -23.6181  -45.1096 N.am      11 UNK        -0.5000 
     20 C           0.8689  -24.7267  -44.6389 C.2       10 UNK         0.5000 
     21 O           0.4037  -25.6105  -45.3575 O.2       10 UNK        -0.5000 
     22 CA          0.7420  -24.8469  -43.1086 C.3       10 UNK         0.1400 
     23 CB          2.0147  -25.4621  -42.5085 C.3       10 UNK        -0.1800 
     24 N           0.4764  -23.5596  -42.4648 N.am      10 UNK        -0.5000 
     25 C          -0.6465  -22.8463  -42.6319 C.2       9 UNK         0.5000 
     26 O          -1.6052  -23.2341  -43.2970 O.2       9 UNK        -0.5000 
     27 CA         -0.6825  -21.4441  -41.9963 C.3       9 UNK         0.1400 
     28 CB         -1.2706  -21.5094  -40.5793 C.3       9 UNK        -0.1800 
     29 N           0.6336  -20.8011  -41.9480 N.am      9 UNK        -0.5000 
     30 C           1.3522  -20.4574  -43.0247 C.2       8 UNK         0.5000 
     31 O           0.9901  -20.6550  -44.1876 O.2       8 UNK        -0.5000 
     32 CA          2.7372  -19.8626  -42.7560 C.3       8 UNK         0.1400 
     33 CB          3.8343  -20.8875  -43.1066 C.3       8 UNK        -0.1800 
     34 N           2.8874  -18.6381  -43.5339 N.am      8 UNK        -0.5000 
     35 C           3.8818  -17.7532  -43.3884 C.2       7 UNK         0.5000 
     36 O           4.8155  -17.8929  -42.5970 O.2       7 UNK        -0.5000 
     37 CA          3.8185  -16.4807  -44.2534 C.3       7 UNK         0.1400 
     38 CB          4.4389  -16.7437  -45.6335 C.3       7 UNK        -0.1800 
     39 N           2.4642  -15.9365  -44.3998 N.am      7 UNK        -0.5000 
     40 C           1.7282  -15.4686  -43.3796 C.2       6 UNK         0.5000 
     41 O           2.1346  -15.4257  -42.2174 O.2       6 UNK        -0.5000 
     42 CA          0.2997  -14.9668  -43.6748 C.3       6 UNK         0.1400 
     43 CB          0.1937  -13.4454  -43.4753 C.3       6 UNK        -0.1800 
     44 N          -0.2363  -15.3073  -44.9949 N.am      6 UNK        -0.5000 
     45 C          -0.6026  -16.5422  -45.3775 C.2       5 UNK         0.5000 
     46 O          -0.3477  -17.5526  -44.7230 O.2       5 UNK        -0.5000 
     47 CA         -1.4243  -16.6765  -46.6749 C.3       5 UNK         0.1400 
     48 CB         -2.9135  -16.8433  -46.3094 C.3       5 UNK        -0.1800 
     49 N          -1.2381  -15.5135  -47.5402 N.am      5 UNK        -0.5000 
     50 C          -1.7021  -15.3153  -48.7749 C.2       4 UNK         0.5000 
     51 O          -2.3819  -16.1337  -49.3936 O.2       4 UNK        -0.5000 
     52 CA         -1.3138  -13.9679  -49.4276 C.3       4 UNK         0.1400 
     53 CB         -1.8427  -13.8388  -50.8675 C.3       4 UNK        -0.1800 
     54 N          -1.7305  -12.7810  -48.6656 N.am      4 UNK        -0.5000 
     55 C          -1.2242  -12.3686  -47.4965 C.2       3 UNK         0.5000 
     56 O          -0.3936  -13.0110  -46.8439 O.2       3 UNK        -0.5000 
     57 CA         -1.7127  -11.0181  -46.9500 C.3       3 UNK         0.1400 
     58 CB         -2.9503  -11.2085  -46.0608 C.3       3 UNK        -0.1800 
     59 N          -0.6176  -10.4934  -46.1456 N.am      3 UNK        -0.5000 
     60 C          -0.0023   -9.3161  -46.2981 C.2       2 UNK         0.5000 
     61 O          -0.4570   -8.3745  -46.9481 O.2       2 UNK        -0.5000 
     62 CA          1.4010   -9.2146  -45.6599 C.3       2 UNK         0.1400 
     63 CB          1.3047   -8.7392  -44.2026 C.3       2 UNK        -0.1800 
     64 N           2.1029  -10.5032  -45.7034 N.am      2 UNK        -0.5000 
     65 C           2.5119  -11.1058  -46.8288 C.2       1 UNK         0.5000 
     66 O           2.5956  -10.5334  -47.9170 O.2       1 UNK        -0.5000 
     67 C           0.2248  -22.9115  -47.1366 C.2       11 UNK         0.5000 
     68 O          -0.1001  -23.3662  -48.2326 O.2       11 UNK        -0.5000 
     69 N          -0.5793  -22.1448  -46.3840 N.am      12 UNK        -0.5000 
     70 CA         -1.9660  -21.8243  -46.7253 C.3       12 UNK         0.1400 
     71 CB         -2.5223  -20.7966  -45.7303 C.3       12 UNK        -0.1800 
     72 C          -2.8622  -23.0759  -46.7948 C.2       12 UNK         0.5000 
     73 O          -3.6442  -23.2071  -47.7363 O.2       12 UNK        -0.5000 
     74 N          -2.7062  -23.9930  -45.8298 N.am      13 UNK        -0.5000 
     75 CA         -3.3921  -25.2853  -45.7913 C.3       13 UNK         0.1400 
     76 CB         -3.1131  -25.9874  -44.4544 C.3       13 UNK        -0.1800 
     77 C          -3.0190  -26.1905  -46.9792 C.2       13 UNK         0.5000 
     78 O          -3.9151  -26.7420  -47.6189 O.2       13 UNK        -0.5000 
     79 N          -1.7172  -26.2831  -47.2909 N.am      14 UNK        -0.5000 
     80 CA         -1.1828  -27.0169  -48.4442 C.3       14 UNK         0.1400 
     81 CB          0.3518  -27.0229  -48.3804 C.3       14 UNK        -0.1800 
     82 C          -1.6668  -26.4593  -49.7980 C.2       14 UNK         0.5000 
     83 O          -1.8829  -27.2284  -50.7345 O.2       14 UNK        -0.5000 
     84 N          -1.8747  -25.1387  -49.8557 N.am      15 UNK        -0.5000 
     85 CA         -2.4568  -24.4052  -50.9793 C.3       15 UNK         0.1400 
     86 CB         -1.9743  -22.9501  -50.8982 C.3       15 UNK        -0.1800 
     87 C          -3.9992  -24.4840  -51.0511 C.2       15 UNK         0.5000 
     88 O          -4.5860  -23.8035  -51.8919 O.2       15 UNK        -0.5000 
     89 N          -4.6259  -25.3005  -50.1881 N.am      16 UNK        -0.5000 
     90 CA         -6.0651  -25.5539  -50.0747 C.3       16 UNK         0.1400 
     91 CB         -6.6189  -26.2249  -51.3491 C.3       16 UNK        -0.1800 
     92 C          -6.8382  -24.2908  -49.6526 C.2       16 UNK         0.5000 
     93 O          -7.6783  -23.7869  -50.3999 O.2       16 UNK        -0.5000 
     94 N          -6.5069  -23.8049  -48.4477 N.am      17 UNK        -0.5000 
     95 CA         -7.0174  -22.5886  -47.8039 C.3       17 UNK         0.1400 
     96 CB         -8.5383  -22.6727  -47.5559 C.3       17 UNK        -0.1800 
     97 C          -6.5866  -21.3095  -48.5490 C.2       17 UNK         0.5000 
     98 O          -7.3572  -20.3522  -48.6443 O.2       17 UNK        -0.5000 
     99 N          -5.3432  -21.3312  -49.0478 N.am      18 UNK        -0.5000 
    100 CA        -4.6150  -20.2989  -49.7848 C.3       18 UNK         0.1400 
    101 CB        -4.3651  -19.0597  -48.9095 C.3       18 UNK        -0.1800 
    102 C         -5.2330  -19.9136  -51.1375 C.2       18 UNK         0.5000 
    103 O         -4.5887  -20.1017  -52.1675 O.2       18 UNK        -0.5000 
    104 N         -6.4524  -19.3645  -51.1139 N.am      19 UNK        -0.5000 
    105 CA        -7.1350  -18.6909  -52.2232 C.3       19 UNK         0.1400 
    106 CB        -8.4983  -18.1871  -51.7263 C.3       19 UNK        -0.1800 
    107 C         -7.3067  -19.5238  -53.5081 C.2       19 UNK         0.5000 
    108 O         -7.4270  -18.9443  -54.5881 O.2       19 UNK        -0.5000 
    109 N         -7.2953  -20.8560  -53.3791 N.am      20 UNK        -0.5000 
    110 CA        -7.3684  -21.8028  -54.4900 C.3       20 UNK         0.1400 
    111 CB        -7.6574  -23.2008  -53.9261 C.3       20 UNK        -0.1800 
    112 C         -6.1076  -21.8273  -55.3804 C.2       20 UNK         0.5000 
    113 O         -6.2078  -22.2703  -56.5260 O.2       20 UNK        -0.5000 
    114 N         -4.9594  -21.3671  -54.8617 N.am      21 UNK        -0.5000 
    115 CA        -3.6791  -21.3592  -55.5751 C.3       21 UNK         0.1400 
    116 CB        -2.8076  -22.5174  -55.0627 C.3       21 UNK        -0.1800 
    117 C         -2.9321  -20.0209  -55.4482 C.2       21 UNK         0.5000 
    118 O         -2.2948  -19.5961  -56.4130 O.2       21 UNK        -0.5000 
    119 N         -3.0086  -19.3834  -54.2755 N.am      22 UNK        -0.5000 
    120 CA        -2.2785  -18.1529  -53.9258 C.3       22 UNK         0.1400 
    121 C         -3.0403  -16.8443  -54.2842 C.2       22 UNK         0.5000 
    122 N         -4.2709  -16.9015  -54.7802 N.am      22 UNK        -0.7600 
    123 O         -2.4992  -15.7541  -54.1234 O.2       22 UNK        -0.5000 
    124 C124       -1.8394  -18.1503  -52.4354 C.3       23 UNK        -0.0398 
    125 S125       -0.9290  -19.6638  -51.9693 S.3       23 UNK        -0.2404 
    126 C126       -0.7752  -19.4663  -50.1694 C.3       23 UNK        -0.0205 
    127 H127        6.4973  -13.3592  -45.2664 H         1 UNK         0.0600 
    128 H128        6.3802  -12.0523  -44.0825 H         1 UNK         0.0600 
    129 H129        5.9368  -13.7005  -43.6279 H         1 UNK         0.0600 
    130 H130        4.8884  -13.0814  -46.7955 H         1 UNK         0.3000 
    131 H131        2.1046  -13.0198  -46.0171 H         1 UNK         0.0600 
    132 H132        1.8067  -12.9412  -48.6276 H         1 UNK         0.0800 
    133 H133        3.5222  -13.2618  -48.6925 H         1 UNK         0.0800 
    134 H134        2.0938  -15.2931  -50.1693 H         1 UNK         0.0800 
    135 H135        3.6996  -15.6979  -49.5999 H         1 UNK         0.0800 
    136 H136        0.2474  -16.9495  -50.0462 H         1 UNK         0.1150 
    137 H137        1.3011  -21.0489  -49.4768 H         1 UNK         0.1150 
    138 H138        4.2115  -17.9640  -48.7840 H         1 UNK         0.1150 
    139 H139        4.6975  -20.6545  -49.5415 H         1 UNK         0.0800 
    140 H140        4.5226  -20.2942  -47.8419 H         1 UNK         0.0800 
    141 H141        2.2733  -21.2028  -46.6230 H         1 UNK         0.0800 
    142 H142        3.4823  -22.3274  -46.0624 H         1 UNK         0.0800 
    143 H143        1.9167  -24.2079  -47.0271 H         1 UNK         0.0600 
    144 H144        1.7498  -22.9078  -44.4548 H         1 UNK         0.3000 
    145 H145       -0.0952  -25.5141  -42.8937 H         1 UNK         0.0600 
    146 H146        1.9082  -25.6193  -41.4350 H         1 UNK         0.0600 
    147 H147        2.2277  -26.4329  -42.9583 H         1 UNK         0.0600 
    148 H148        2.8864  -24.8267  -42.6705 H         1 UNK         0.0600 
    149 H149        1.2108  -23.1742  -41.8901 H         1 UNK         0.3000 
    150 H150       -1.3360  -20.8202  -42.6093 H         1 UNK         0.0600 
    151 H151       -2.2620  -21.9645  -40.5893 H         1 UNK         0.0600 
    152 H152       -1.3767  -20.5130  -40.1499 H         1 UNK         0.0600 
    153 H153       -0.6449  -22.1002  -39.9092 H         1 UNK         0.0600 
    154 H154        1.0066  -20.6147  -41.0281 H         1 UNK         0.3000 
    155 H155        2.8123  -19.6097  -41.6963 H         1 UNK         0.0600 
    156 H156        4.8141  -20.5595  -42.7605 H         1 UNK         0.0600 
    157 H157        3.9009  -21.0467  -44.1819 H         1 UNK         0.0600 
    158 H158        3.6394  -21.8533  -42.6386 H         1 UNK         0.0600 
    159 H159        2.1340  -18.4453  -44.1833 H         1 UNK         0.3000 
    160 H160        4.4247  -15.7226  -43.7541 H         1 UNK         0.0600 
    161 H161        3.8127  -17.4015  -46.2371 H         1 UNK         0.0600 
    162 H162        5.4177  -17.2161  -45.5415 H         1 UNK         0.0600 
    163 H163        4.5865  -15.8142  -46.1819 H         1 UNK         0.0600 
    164 H164        2.0672  -15.9290  -45.3289 H         1 UNK         0.3000 
    165 H165       -0.3482  -15.4383  -42.9328 H         1 UNK         0.0600 
    166 H166        0.8093  -12.8995  -44.1869 H         1 UNK         0.0600 
    167 H167       -0.8347  -13.1020  -43.5893 H         1 UNK         0.0600 
    168 H168        0.5217  -13.1572  -42.4758 H         1 UNK         0.0600 
    169 H169       -0.4534  -14.5132  -45.5845 H         1 UNK         0.3000 
    170 H170       -1.0760  -17.5637  -47.2074 H         1 UNK         0.0600 
    171 H171       -3.0653  -17.7053  -45.6592 H         1 UNK         0.0600 
    172 H172       -3.2935  -15.9664  -45.7840 H         1 UNK         0.0600 
    173 H173       -3.5361  -16.9928  -47.1893 H         1 UNK         0.0600 
    174 H174       -0.6738  -14.7585  -47.1623 H         1 UNK         0.3000 
    175 H175       -0.2241  -13.9599  -49.4853 H         1 UNK         0.0600 
    176 H176       -1.4837  -12.9247  -51.3406 H         1 UNK         0.0600 
    177 H177       -1.5077  -14.6727  -51.4861 H         1 UNK         0.0600 
    178 H178       -2.9329  -13.8272  -50.8961 H         1 UNK         0.0600 
    179 H179       -2.4395  -12.2123  -49.1056 H         1 UNK         0.3000 
    180 H180       -1.9441  -10.3500  -47.7822 H         1 UNK         0.0600 
    181 H181       -2.7560  -11.9015  -45.2409 H         1 UNK         0.0600 
    182 H182       -3.7880  -11.6047  -46.6359 H         1 UNK         0.0600 
    183 H183       -3.2710  -10.2609  -45.6280 H         1 UNK         0.0600 
    184 H184       -0.1186  -11.2145  -45.6433 H         1 UNK         0.3000 
    185 H185        1.9803   -8.4830  -46.2270 H         1 UNK         0.0600 
    186 H186        2.2944   -8.6195  -43.7614 H         1 UNK         0.0600 
    187 H187        0.8018   -7.7734  -44.1402 H         1 UNK         0.0600 
    188 H188        0.7447   -9.4424  -43.5847 H         1 UNK         0.0600 
    189 H189        2.1860  -11.0163  -44.8332 H         1 UNK         0.3000 
    190 H190       -0.2230  -21.7772  -45.5088 H         1 UNK         0.3000 
    191 H191       -1.9661  -21.3649  -47.7148 H         1 UNK         0.0600 
    192 H192       -1.9113  -19.8938  -45.7165 H         1 UNK         0.0600 
    193 H193       -3.5382  -20.5036  -45.9970 H         1 UNK         0.0600 
    194 H194       -2.5560  -21.1913  -44.7159 H         1 UNK         0.0600 
    195 H195       -2.0985  -23.7778  -45.0439 H         1 UNK         0.3000 
    196 H196       -4.4648  -25.0899  -45.8488 H         1 UNK         0.0600 
    197 H197       -3.6425  -26.9391  -44.3955 H         1 UNK         0.0600 
    198 H198       -3.4446  -25.3784  -43.6132 H         1 UNK         0.0600 
    199 H199       -2.0517  -26.1939  -44.3194 H         1 UNK         0.0600 
    200 H200       -1.0353  -25.8328  -46.6874 H         1 UNK         0.3000 
    201 H201       -1.5311  -28.0490  -48.3701 H         1 UNK         0.0600 
    202 H202        0.7065  -27.4892  -47.4611 H         1 UNK         0.0600 
    203 H203        0.7596  -26.0126  -48.4223 H         1 UNK         0.0600 
    204 H204        0.7761  -27.5837  -49.2141 H         1 UNK         0.0600 
    205 H205       -1.6061  -24.5784  -49.0541 H         1 UNK         0.3000 
    206 H206       -2.0794  -24.8315  -51.9107 H         1 UNK         0.0600 
    207 H207       -0.8936  -22.8866  -51.0261 H         1 UNK         0.0600 
    208 H208       -2.4290  -22.3266  -51.6679 H         1 UNK         0.0600 
    209 H209       -2.2172  -22.5106  -49.9329 H         1 UNK         0.0600 
    210 H210       -4.0568  -25.7854  -49.5044 H         1 UNK         0.3000 
    211 H211       -6.1848  -26.2716  -49.2617 H         1 UNK         0.0600 
    212 H212       -6.5275  -25.5858  -52.2259 H         1 UNK         0.0600 
    213 H213       -7.6756  -26.4674  -51.2324 H         1 UNK         0.0600 
    214 H214       -6.0934  -27.1561  -51.5606 H         1 UNK         0.0600 
    215 H215       -5.7395  -24.2519  -47.9635 H         1 UNK         0.3000 
    216 H216       -6.5321  -22.5413  -46.8279 H         1 UNK         0.0600 
    217 H217       -8.8028  -23.5913  -47.0324 H         1 UNK         0.0600 
    218 H218       -9.1062  -22.6396  -48.4859 H         1 UNK         0.0600 
    219 H219       -8.8779  -21.8395  -46.9397 H         1 UNK         0.0600 
    220 H220       -4.8059  -22.1734  -48.8608 H         1 UNK         0.3000 
    221 H221       -3.6392  -20.7254  -50.0118 H         1 UNK         0.0600 
    222 H222       -5.2880  -18.6329  -48.5172 H         1 UNK         0.0600 
    223 H223       -3.7209  -19.3013  -48.0657 H         1 UNK         0.0600 
    224 H224       -3.8682  -18.2767  -49.4811 H         1 UNK         0.0600 
    225 H225       -6.9301  -19.3623  -50.2165 H         1 UNK         0.3000 
    226 H226       -6.5277  -17.8234  -52.4890 H         1 UNK         0.0600 
    227 H227       -8.3835  -17.4990  -50.8885 H         1 UNK         0.0600 
    228 H228       -9.0314  -17.6523  -52.5136 H         1 UNK         0.0600 
    229 H229       -9.1336  -19.0112  -51.3989 H         1 UNK         0.0600 
    230 H230       -7.1687  -21.2477  -52.4566 H         1 UNK         0.3000 
    231 H231       -8.2084  -21.5137  -55.1249 H         1 UNK         0.0600 
    232 H232       -8.5916  -23.2178  -53.3645 H         1 UNK         0.0600 
    233 H233       -6.8610  -23.5267  -53.2582 H         1 UNK         0.0600 
    234 H234       -7.7422  -23.9395  -54.7240 H         1 UNK         0.0600 
    235 H235       -4.9579  -21.0209  -53.9078 H         1 UNK         0.3000 
    236 H236       -3.8441  -21.5128  -56.6434 H         1 UNK         0.0600 
    237 H237       -3.2935  -23.4792  -55.2279 H         1 UNK         0.0600 
    238 H238       -1.8464  -22.5436  -55.5773 H         1 UNK         0.0600 
    239 H239       -2.6076  -22.4243  -53.9955 H         1 UNK         0.0600 
    240 H240       -3.5567  -19.7803  -53.5145 H         1 UNK         0.3000 
    241 H241       -1.3631  -18.1255  -54.5198 H         1 UNK         0.0600 
    242 H242       -4.7498  -16.0477  -55.0189 H         1 UNK         0.3800 
    243 H243       -4.7188  -17.7905  -54.9360 H         1 UNK         0.3800 
    244 H244       -1.2007  -17.2910  -52.2241 H         1 UNK         0.0800 
    245 H245       -2.7106  -18.0518  -51.7859 H         1 UNK         0.0800 
    246 H246       -1.5003  -18.7433  -49.7952 H         1 UNK         0.0800 
    247 H247       -1.0166  -20.4152  -49.6914 H         1 UNK         0.0800 
@<TRIPOS>BOND
     1    1    2 1    
     2    1  127 1    
     3    1  128 1    
     4    1  129 1    
     5    2    3 2    
     6    2    4 am   BACKBONE|DICT|INTERRES
     7    4    5 1    
     8    4  130 1    
     9    5    6 1    
    10    5   65 1    
    11    5  131 1    
    12    6    7 1    
    13    6  132 1    
    14    6  133 1    
    15    7    8 1    
    16    8    9 1    
    17    8  134 1    
    18    8  135 1    
    19    9   10 ar   
    20    9   14 ar   
    21   10   11 ar   
    22   10  136 1    
    23   11   12 ar   
    24   11  126 1    
    25   12   13 ar   
    26   12  137 1    
    27   13   14 ar   
    28   13   15 1    
    29   14  138 1    
    30   15   16 1    
    31   15  139 1    
    32   15  140 1    
    33   16   17 1    
    34   17   18 1    
    35   17  141 1    
    36   17  142 1    
    37   18   19 1    
    38   18   67 1    
    39   18  143 1    
    40   19   20 am   BACKBONE|DICT|INTERRES
    41   19  144 1    
    42   20   21 2    
    43   20   22 1    
    44   22   23 1    
    45   22   24 1    
    46   22  145 1    
    47   23  146 1    
    48   23  147 1    
    49   23  148 1    
    50   24   25 am   BACKBONE|DICT|INTERRES
    51   24  149 1    
    52   25   26 2    
    53   25   27 1    
    54   27   28 1    
    55   27   29 1    
    56   27  150 1    
    57   28  151 1    
    58   28  152 1    
    59   28  153 1    
    60   29   30 am   BACKBONE|DICT|INTERRES
    61   29  154 1    
    62   30   31 2    
    63   30   32 1    
    64   32   33 1    
    65   32   34 1    
    66   32  155 1    
    67   33  156 1    
    68   33  157 1    
    69   33  158 1    
    70   34   35 am   BACKBONE|DICT|INTERRES
    71   34  159 1    
    72   35   36 2    
    73   35   37 1    
    74   37   38 1    
    75   37   39 1    
    76   37  160 1    
    77   38  161 1    
    78   38  162 1    
    79   38  163 1    
    80   39   40 am   BACKBONE|DICT|INTERRES
    81   39  164 1    
    82   40   41 2    
    83   40   42 1    
    84   42   43 1    
    85   42   44 1    
    86   42  165 1    
    87   43  166 1    
    88   43  167 1    
    89   43  168 1    
    90   44   45 am   BACKBONE|DICT|INTERRES
    91   44  169 1    
    92   45   46 2    
    93   45   47 1    
    94   47   48 1    
    95   47   49 1    
    96   47  170 1    
    97   48  171 1    
    98   48  172 1    
    99   48  173 1    
   100   49   50 am   BACKBONE|DICT|INTERRES
   101   49  174 1    
   102   50   51 2    
   103   50   52 1    
   104   52   53 1    
   105   52   54 1    
   106   52  175 1    
   107   53  176 1    
   108   53  177 1    
   109   53  178 1    
   110   54   55 am   BACKBONE|DICT|INTERRES
   111   54  179 1    
   112   55   56 2    
   113   55   57 1    
   114   57   58 1    
   115   57   59 1    
   116   57  180 1    
   117   58  181 1    
   118   58  182 1    
   119   58  183 1    
   120   59   60 am   BACKBONE|DICT|INTERRES
   121   59  184 1    
   122   60   61 2    
   123   60   62 1    
   124   62   63 1    
   125   62   64 1    
   126   62  185 1    
   127   63  186 1    
   128   63  187 1    
   129   63  188 1    
   130   64   65 am   BACKBONE|DICT|INTERRES
   131   64  189 1    
   132   65   66 2    
   133   67   68 2    
   134   67   69 am   BACKBONE|DICT|INTERRES
   135   69   70 1    
   136   69  190 1    
   137   70   71 1    
   138   70   72 1    
   139   70  191 1    
   140   71  192 1    
   141   71  193 1    
   142   71  194 1    
   143   72   73 2    
   144   72   74 am   BACKBONE|DICT|INTERRES
   145   74   75 1    
   146   74  195 1    
   147   75   76 1    
   148   75   77 1    
   149   75  196 1    
   150   76  197 1    
   151   76  198 1    
   152   76  199 1    
   153   77   78 2    
   154   77   79 am   BACKBONE|DICT|INTERRES
   155   79   80 1    
   156   79  200 1    
   157   80   81 1    
   158   80   82 1    
   159   80  201 1    
   160   81  202 1    
   161   81  203 1    
   162   81  204 1    
   163   82   83 2    
   164   82   84 am   BACKBONE|DICT|INTERRES
   165   84   85 1    
   166   84  205 1    
   167   85   86 1    
   168   85   87 1    
   169   85  206 1    
   170   86  207 1    
   171   86  208 1    
   172   86  209 1    
   173   87   88 2    
   174   87   89 am   BACKBONE|DICT|INTERRES
   175   89   90 1    
   176   89  210 1    
   177   90   91 1    
   178   90   92 1    
   179   90  211 1    
   180   91  212 1    
   181   91  213 1    
   182   91  214 1    
   183   92   93 2    
   184   92   94 am   BACKBONE|DICT|INTERRES
   185   94   95 1    
   186   94  215 1    
   187   95   96 1    
   188   95   97 1    
   189   95  216 1    
   190   96  217 1    
   191   96  218 1    
   192   96  219 1    
   193   97   98 2    
   194   97   99 am   BACKBONE|DICT|INTERRES
   195   99  100 1    
   196   99  220 1    
   197  100  101 1    
   198  100  102 1    
   199  100  221 1    
   200  101  222 1    
   201  101  223 1    
   202  101  224 1    
   203  102  103 2    
   204  102  104 am   BACKBONE|DICT|INTERRES
   205  104  105 1    
   206  104  225 1    
   207  105  106 1    
   208  105  107 1    
   209  105  226 1    
   210  106  227 1    
   211  106  228 1    
   212  106  229 1    
   213  107  108 2    
   214  107  109 am   BACKBONE|DICT|INTERRES
   215  109  110 1    
   216  109  230 1    
   217  110  111 1    
   218  110  112 1    
   219  110  231 1    
   220  111  232 1    
   221  111  233 1    
   222  111  234 1    
   223  112  113 2    
   224  112  114 am   BACKBONE|DICT|INTERRES
   225  114  115 1    
   226  114  235 1    
   227  115  116 1    
   228  115  117 1    
   229  115  236 1    
   230  116  237 1    
   231  116  238 1    
   232  116  239 1    
   233  117  118 2    
   234  117  119 am   BACKBONE|DICT|INTERRES
   235  119  120 1    
   236  119  240 1    
   237  120  121 1    
   238  120  124 1    
   239  120  241 1    
   240  121  122 am   BACKBONE|DICT|INTERRES
   241  121  123 2    
   242  122  242 1    
   243  122  243 1    
   244  124  125 1    
   245  124  244 1    
   246  124  245 1    
   247  125  126 1    
   248  126  246 1    
   249  126  247 1    
@<TRIPOS>SUBSTRUCTURE
     1 UNK         1 GROUP             0       ****    0 ROOT    
