@<TRIPOS>MOLECULE
3R540
247   249    1
SMALL
USER_CHARGES


@<TRIPOS>ATOM
      1 CA         -3.1103  -10.7492  -49.9751 C.3       0 UNK        -0.1800 
      2 C          -1.9237  -11.5510  -49.4601 C.2       0 UNK         0.5000 
      3 O          -0.9568  -10.9683  -48.9699 O.2       0 UNK        -0.5000 
      4 N          -1.9944  -12.8841  -49.5684 N.am      1 UNK        -0.5000 
      5 CA         -0.9717  -13.8271  -49.0971 C.3       1 UNK         0.1400 
      6 C6         -1.1661  -15.2457  -49.6889 C.3       23 UNK        -0.0398 
      7 S7         -2.8446  -15.9268  -49.4433 S.3       23 UNK        -0.2404 
      8 C8         -2.4807  -17.5778  -48.7711 C.3       23 UNK        -0.0205 
      9 C9         -3.7463  -18.4185  -48.6906 C.ar      23 UNK        -0.0193 
     10 C10        -4.3946  -18.8074  -49.8659 C.ar      23 UNK        -0.1150 
     11 C11        -5.5735  -19.5527  -49.8188 C.ar      23 UNK        -0.0193 
     12 C12        -6.0973  -19.9298  -48.5803 C.ar      23 UNK        -0.1150 
     13 C13        -5.4556  -19.5566  -47.3955 C.ar      23 UNK        -0.0193 
     14 C14        -4.2803  -18.7984  -47.4553 C.ar      23 UNK        -0.1150 
     15 C15        -6.0586  -19.9515  -46.0561 C.3       23 UNK        -0.0205 
     16 S16        -5.5964  -21.6447  -45.5714 S.3       23 UNK        -0.2404 
     17 C17        -3.8703  -21.4153  -45.0262 C.3       23 UNK        -0.0398 
     18 CA         -2.8466  -22.1503  -45.9250 C.3       11 UNK         0.1400 
     19 N          -1.5329  -21.4978  -45.8737 N.am      11 UNK        -0.5000 
     20 C          -0.4389  -21.8908  -46.5453 C.2       10 UNK         0.5000 
     21 O          -0.4372  -22.8310  -47.3370 O.2       10 UNK        -0.5000 
     22 CA          0.8886  -21.1674  -46.2435 C.3       10 UNK         0.1400 
     23 CB          1.1698  -20.1163  -47.3272 C.3       10 UNK        -0.1800 
     24 N           0.9311  -20.5327  -44.9226 N.am      10 UNK        -0.5000 
     25 C           0.7458  -21.1640  -43.7504 C.2       9 UNK         0.5000 
     26 O           0.6176  -22.3848  -43.6537 O.2       9 UNK        -0.5000 
     27 CA          0.6071  -20.2985  -42.4797 C.3       9 UNK         0.1400 
     28 CB          1.8977  -20.3572  -41.6498 C.3       9 UNK        -0.1800 
     29 N           0.2609  -18.8965  -42.7290 N.am      9 UNK        -0.5000 
     30 C          -0.8078  -18.4494  -43.4058 C.2       8 UNK         0.5000 
     31 O          -1.6775  -19.1850  -43.8732 O.2       8 UNK        -0.5000 
     32 CA         -0.8824  -16.9321  -43.6592 C.3       8 UNK         0.1400 
     33 CB         -1.7280  -16.2552  -42.5706 C.3       8 UNK        -0.1800 
     34 N           0.4322  -16.2863  -43.7173 N.am      8 UNK        -0.5000 
     35 C           1.4044  -16.5603  -44.6014 C.2       7 UNK         0.5000 
     36 O           1.2939  -17.3951  -45.4988 O.2       7 UNK        -0.5000 
     37 CA          2.7454  -15.8325  -44.3984 C.3       7 UNK         0.1400 
     38 CB          2.7106  -14.4081  -44.9722 C.3       7 UNK        -0.1800 
     39 N           3.0919  -15.7713  -42.9791 N.am      7 UNK        -0.5000 
     40 C           3.7478  -16.7347  -42.3181 C.2       6 UNK         0.5000 
     41 O           4.1872  -17.7515  -42.8544 O.2       6 UNK        -0.5000 
     42 CA          3.9480  -16.5368  -40.8022 C.3       6 UNK         0.1400 
     43 CB          5.3337  -15.9373  -40.5189 C.3       6 UNK        -0.1800 
     44 N           2.9282  -15.6851  -40.1871 N.am      6 UNK        -0.5000 
     45 C           1.6466  -16.0349  -40.0117 C.2       5 UNK         0.5000 
     46 O           1.1862  -17.1299  -40.3336 O.2       5 UNK        -0.5000 
     47 CA          0.7137  -14.9526  -39.4314 C.3       5 UNK         0.1400 
     48 CB          0.7530  -14.9736  -37.8963 C.3       5 UNK        -0.1800 
     49 N           1.0143  -13.5962  -39.9084 N.am      5 UNK        -0.5000 
     50 C           0.9999  -13.2270  -41.1952 C.2       4 UNK         0.5000 
     51 O           0.7660  -14.0079  -42.1226 O.2       4 UNK        -0.5000 
     52 CA          1.3435  -11.7662  -41.5138 C.3       4 UNK         0.1400 
     53 CB          2.8533  -11.5085  -41.3628 C.3       4 UNK        -0.1800 
     54 N           0.9368  -11.5269  -42.8908 N.am      4 UNK        -0.5000 
     55 C           0.6584  -10.3559  -43.4676 C.2       3 UNK         0.5000 
     56 O           0.7658   -9.2679  -42.9006 O.2       3 UNK        -0.5000 
     57 CA          0.1719  -10.4159  -44.9299 C.3       3 UNK         0.1400 
     58 CB          1.3340  -10.1279  -45.8924 C.3       3 UNK        -0.1800 
     59 N          -0.4249  -11.7057  -45.2914 N.am      3 UNK        -0.5000 
     60 C          -1.6156  -12.1540  -44.8733 C.2       2 UNK         0.5000 
     61 O          -2.3578  -11.5106  -44.1297 O.2       2 UNK        -0.5000 
     62 CA         -2.0440  -13.5436  -45.3934 C.3       2 UNK         0.1400 
     63 CB         -3.4648  -13.9403  -44.9542 C.3       2 UNK        -0.1800 
     64 N          -1.9664  -13.6247  -46.8519 N.am      2 UNK        -0.5000 
     65 C          -0.8532  -13.8592  -47.5589 C.2       1 UNK         0.5000 
     66 O           0.2454  -14.0482  -47.0398 O.2       1 UNK        -0.5000 
     67 C          -2.7910  -23.6608  -45.5834 C.2       11 UNK         0.5000 
     68 O          -3.5691  -24.4385  -46.1377 O.2       11 UNK        -0.5000 
     69 N          -1.8394  -24.0611  -44.7243 N.am      12 UNK        -0.5000 
     70 CA         -1.5828  -25.4551  -44.3577 C.3       12 UNK         0.1400 
     71 CB         -0.5975  -25.4952  -43.1806 C.3       12 UNK        -0.1800 
     72 C          -1.0610  -26.3174  -45.5250 C.2       12 UNK         0.5000 
     73 O          -1.2712  -27.5310  -45.5136 O.2       12 UNK        -0.5000 
     74 N          -0.4286  -25.6938  -46.5302 N.am      13 UNK        -0.5000 
     75 CA          0.0546  -26.3420  -47.7500 C.3       13 UNK         0.1400 
     76 CB          1.2767  -25.5724  -48.2848 C.3       13 UNK        -0.1800 
     77 C          -1.0782  -26.4617  -48.7889 C.2       13 UNK         0.5000 
     78 O          -0.9572  -25.9423  -49.8994 O.2       13 UNK        -0.5000 
     79 N          -2.1720  -27.1260  -48.3870 N.am      14 UNK        -0.5000 
     80 CA         -3.3813  -27.4153  -49.1656 C.3       14 UNK         0.1400 
     81 CB         -3.0777  -28.4894  -50.2309 C.3       14 UNK        -0.1800 
     82 C          -4.0370  -26.1478  -49.7540 C.2       14 UNK         0.5000 
     83 O          -4.2958  -26.0890  -50.9572 O.2       14 UNK        -0.5000 
     84 N          -4.2650  -25.1493  -48.8861 N.am      15 UNK        -0.5000 
     85 CA         -4.7649  -23.8073  -49.2053 C.3       15 UNK         0.1400 
     86 CB         -6.2053  -23.8582  -49.7567 C.3       15 UNK        -0.1800 
     87 C          -3.7838  -23.0328  -50.1081 C.2       15 UNK         0.5000 
     88 O          -4.1955  -22.4362  -51.1030 O.2       15 UNK        -0.5000 
     89 N          -2.4938  -23.0819  -49.7383 N.am      16 UNK        -0.5000 
     90 CA         -1.3562  -22.4396  -50.4017 C.3       16 UNK         0.1400 
     91 CB         -1.4178  -20.9139  -50.1933 C.3       16 UNK        -0.1800 
     92 C          -1.2360  -22.8385  -51.8833 C.2       16 UNK         0.5000 
     93 O          -1.1698  -21.9666  -52.7533 O.2       16 UNK        -0.5000 
     94 N          -1.2402  -24.1532  -52.1422 N.am      17 UNK        -0.5000 
     95 CA         -1.1666  -24.7572  -53.4723 C.3       17 UNK         0.1400 
     96 CB         -1.1887  -26.2863  -53.3364 C.3       17 UNK        -0.1800 
     97 C           0.0775  -24.2886  -54.2482 C.2       17 UNK         0.5000 
     98 O           1.1865  -24.3457  -53.7131 O.2       17 UNK        -0.5000 
     99 N          -0.1479  -23.7736  -55.4642 N.am      18 UNK        -0.5000 
    100 CA         0.7991  -23.1198  -56.3811 C.3       18 UNK         0.1400 
    101 CB         1.9454  -24.0689  -56.7803 C.3       18 UNK        -0.1800 
    102 C          1.3463  -21.7579  -55.8960 C.2       18 UNK         0.5000 
    103 O          1.6273  -20.8985  -56.7321 O.2       18 UNK        -0.5000 
    104 N          1.4796  -21.5694  -54.5771 N.am      19 UNK        -0.5000 
    105 CA         1.9424  -20.3394  -53.9337 C.3       19 UNK         0.1400 
    106 CB         2.2623  -20.6323  -52.4594 C.3       19 UNK        -0.1800 
    107 C          0.9363  -19.1795  -54.0550 C.2       19 UNK         0.5000 
    108 O          1.3529  -18.0363  -54.2478 O.2       19 UNK        -0.5000 
    109 N         -0.3603  -19.4947  -53.9568 N.am      20 UNK        -0.5000 
    110 CA        -1.4648  -18.5493  -54.1170 C.3       20 UNK         0.1400 
    111 CB        -1.7791  -17.8619  -52.7777 C.3       20 UNK        -0.1800 
    112 C         -2.7060  -19.2364  -54.7056 C.2       20 UNK         0.5000 
    113 O         -3.3576  -18.6549  -55.5731 O.2       20 UNK        -0.5000 
    114 N         -2.9985  -20.4619  -54.2446 N.am      21 UNK        -0.5000 
    115 CA        -4.0132  -21.4242  -54.7004 C.3       21 UNK         0.1400 
    116 CB        -3.6968  -21.8876  -56.1346 C.3       21 UNK        -0.1800 
    117 C         -5.4950  -21.0017  -54.5820 C.2       21 UNK         0.5000 
    118 O         -6.3474  -21.8790  -54.4409 O.2       21 UNK        -0.5000 
    119 N         -5.7865  -19.6968  -54.6498 N.am      22 UNK        -0.5000 
    120 CA        -7.1311  -19.0875  -54.6423 C.3       22 UNK         0.1400 
    121 C         -7.9918  -19.4151  -55.9039 C.2       22 UNK         0.5000 
    122 N         -7.4025  -19.8490  -57.0119 N.am      22 UNK        -0.7600 
    123 O         -9.2082  -19.2438  -55.8987 O.2       22 UNK        -0.5000 
    124 C124       -7.9056  -19.3129  -53.3106 C.3       23 UNK        -0.0398 
    125 S125       -7.1027  -18.5214  -51.8759 S.3       23 UNK        -0.2404 
    126 C126       -6.2730  -19.9446  -51.1093 C.3       23 UNK        -0.0205 
    127 H127       -3.5433  -10.1598  -49.1669 H         1 UNK         0.0600 
    128 H128       -3.8899  -11.3940  -50.3814 H         1 UNK         0.0600 
    129 H129       -2.7888  -10.0669  -50.7620 H         1 UNK         0.0600 
    130 H130       -2.8136  -13.3095  -49.9801 H         1 UNK         0.3000 
    131 H131       -0.0104  -13.4610  -49.4646 H         1 UNK         0.0600 
    132 H132       -0.9834  -15.2126  -50.7637 H         1 UNK         0.0800 
    133 H133       -0.4183  -15.9333  -49.2890 H         1 UNK         0.0800 
    134 H134       -1.7570  -18.0808  -49.4135 H         1 UNK         0.0800 
    135 H135       -2.0145  -17.4759  -47.7897 H         1 UNK         0.0800 
    136 H136       -3.9954  -18.5081  -50.8237 H         1 UNK         0.1150 
    137 H137       -7.0094  -20.5082  -48.5357 H         1 UNK         0.1150 
    138 H138       -3.7877  -18.4950  -46.5423 H         1 UNK         0.1150 
    139 H139       -5.7665  -19.2463  -45.2763 H         1 UNK         0.0800 
    140 H140       -7.1462  -19.8928  -46.1189 H         1 UNK         0.0800 
    141 H141       -3.7793  -21.7233  -43.9829 H         1 UNK         0.0800 
    142 H142       -3.6627  -20.3465  -45.0256 H         1 UNK         0.0800 
    143 H143       -3.1743  -22.0618  -46.9622 H         1 UNK         0.0600 
    144 H144       -1.4492  -20.7166  -45.2312 H         1 UNK         0.3000 
    145 H145        1.6822  -21.9164  -46.2747 H         1 UNK         0.0600 
    146 H146        2.1351  -19.6347  -47.1701 H         1 UNK         0.0600 
    147 H147        1.1913  -20.5714  -48.3184 H         1 UNK         0.0600 
    148 H148        0.4051  -19.3383  -47.3397 H         1 UNK         0.0600 
    149 H149        1.0226  -19.5235  -44.9180 H         1 UNK         0.3000 
    150 H150       -0.2013  -20.7290  -41.8858 H         1 UNK         0.0600 
    151 H151        2.1551  -21.3871  -41.3991 H         1 UNK         0.0600 
    152 H152        1.7916  -19.8131  -40.7112 H         1 UNK         0.0600 
    153 H153        2.7419  -19.9319  -42.1926 H         1 UNK         0.0600 
    154 H154        0.8850  -18.2060  -42.3320 H         1 UNK         0.3000 
    155 H155       -1.3689  -16.7797  -44.6248 H         1 UNK         0.0600 
    156 H156       -2.7520  -16.6303  -42.5837 H         1 UNK         0.0600 
    157 H157       -1.7732  -15.1756  -42.7094 H         1 UNK         0.0600 
    158 H158       -1.3224  -16.4435  -41.5764 H         1 UNK         0.0600 
    159 H159        0.6003  -15.5554  -43.0296 H         1 UNK         0.3000 
    160 H160        3.5180  -16.3876  -44.9349 H         1 UNK         0.0600 
    161 H161        1.8636  -13.8347  -44.5968 H         1 UNK         0.0600 
    162 H162        2.6333  -14.4369  -46.0589 H         1 UNK         0.0600 
    163 H163        3.6212  -13.8597  -44.7305 H         1 UNK         0.0600 
    164 H164        2.7141  -14.9941  -42.4558 H         1 UNK         0.3000 
    165 H165        3.8984  -17.5220  -40.3333 H         1 UNK         0.0600 
    166 H166        5.5194  -15.8614  -39.4474 H         1 UNK         0.0600 
    167 H167        6.1230  -16.5611  -40.9406 H         1 UNK         0.0600 
    168 H168        5.4371  -14.9407  -40.9502 H         1 UNK         0.0600 
    169 H169        3.2189  -14.7633  -39.8961 H         1 UNK         0.3000 
    170 H170       -0.3030  -15.1940  -39.7469 H         1 UNK         0.0600 
    171 H171        0.5143  -15.9667  -37.5131 H         1 UNK         0.0600 
    172 H172        1.7378  -14.7020  -37.5141 H         1 UNK         0.0600 
    173 H173        0.0253  -14.2807  -37.4734 H         1 UNK         0.0600 
    174 H174        1.2245  -12.9064  -39.2012 H         1 UNK         0.3000 
    175 H175        0.7772  -11.1155  -40.8446 H         1 UNK         0.0600 
    176 H176        3.4385  -12.1568  -42.0165 H         1 UNK         0.0600 
    177 H177        3.1042  -10.4762  -41.6069 H         1 UNK         0.0600 
    178 H178        3.1840  -11.6863  -40.3390 H         1 UNK         0.0600 
    179 H179        0.7631  -12.3786  -43.4087 H         1 UNK         0.3000 
    180 H180       -0.5840   -9.6387  -45.0601 H         1 UNK         0.0600 
    181 H181        2.1146  -10.8863  -45.8182 H         1 UNK         0.0600 
    182 H182        1.7917   -9.1616  -45.6762 H         1 UNK         0.0600 
    183 H183        0.9906  -10.1000  -46.9269 H         1 UNK         0.0600 
    184 H184        0.1067  -12.2985  -45.9191 H         1 UNK         0.3000 
    185 H185       -1.3496  -14.2667  -44.9627 H         1 UNK         0.0600 
    186 H186       -3.5635  -13.9179  -43.8684 H         1 UNK         0.0600 
    187 H187       -4.2162  -13.2657  -45.3662 H         1 UNK         0.0600 
    188 H188       -3.7076  -14.9524  -45.2792 H         1 UNK         0.0600 
    189 H189       -2.8191  -13.4401  -47.3596 H         1 UNK         0.3000 
    190 H190       -1.1976  -23.3745  -44.3447 H         1 UNK         0.3000 
    191 H191       -2.5273  -25.8910  -44.0256 H         1 UNK         0.0600 
    192 H192        0.3775  -25.0938  -43.4594 H         1 UNK         0.0600 
    193 H193       -0.9683  -24.9184  -42.3331 H         1 UNK         0.0600 
    194 H194       -0.4435  -26.5183  -42.8353 H         1 UNK         0.0600 
    195 H195       -0.3640  -24.6817  -46.5175 H         1 UNK         0.3000 
    196 H196        0.3864  -27.3551  -47.5136 H         1 UNK         0.0600 
    197 H197        1.7100  -26.0833  -49.1454 H         1 UNK         0.0600 
    198 H198        2.0566  -25.4940  -47.5273 H         1 UNK         0.0600 
    199 H199        1.0175  -24.5634  -48.6044 H         1 UNK         0.0600 
    200 H200       -2.1642  -27.4819  -47.4376 H         1 UNK         0.3000 
    201 H201       -4.1065  -27.8386  -48.4691 H         1 UNK         0.0600 
    202 H202       -3.9808  -28.7706  -50.7739 H         1 UNK         0.0600 
    203 H203       -2.6805  -29.3953  -49.7732 H         1 UNK         0.0600 
    204 H204       -2.3496  -28.1392  -50.9627 H         1 UNK         0.0600 
    205 H205       -3.9992  -25.2774  -47.9141 H         1 UNK         0.3000 
    206 H206       -4.8077  -23.2605  -48.2633 H         1 UNK         0.0600 
    207 H207       -6.8605  -24.4262  -49.0966 H         1 UNK         0.0600 
    208 H208       -6.6215  -22.8546  -49.8393 H         1 UNK         0.0600 
    209 H209       -6.2497  -24.3104  -50.7477 H         1 UNK         0.0600 
    210 H210       -2.2494  -23.6394  -48.9325 H         1 UNK         0.3000 
    211 H211       -0.4522  -22.8092  -49.9179 H         1 UNK         0.0600 
    212 H212       -1.4839  -20.6623  -49.1353 H         1 UNK         0.0600 
    213 H213       -0.5314  -20.4206  -50.5920 H         1 UNK         0.0600 
    214 H214       -2.2860  -20.4849  -50.6910 H         1 UNK         0.0600 
    215 H215       -1.2597  -24.7996  -51.3562 H         1 UNK         0.3000 
    216 H216       -2.0618  -24.4494  -54.0162 H         1 UNK         0.0600 
    217 H217       -1.1307  -26.7688  -54.3128 H         1 UNK         0.0600 
    218 H218       -0.3519  -26.6480  -52.7373 H         1 UNK         0.0600 
    219 H219       -2.1104  -26.6219  -52.8610 H         1 UNK         0.0600 
    220 H220       -1.1046  -23.7628  -55.7871 H         1 UNK         0.3000 
    221 H221        0.2250  -22.9095  -57.2849 H         1 UNK         0.0600 
    222 H222        2.6020  -24.2947  -55.9399 H         1 UNK         0.0600 
    223 H223        1.5605  -25.0114  -57.1695 H         1 UNK         0.0600 
    224 H224        2.5629  -23.6231  -57.5611 H         1 UNK         0.0600 
    225 H225        1.2577  -22.3505  -53.9701 H         1 UNK         0.3000 
    226 H226        2.8662  -20.0283  -54.4257 H         1 UNK         0.0600 
    227 H227        3.0518  -21.3786  -52.3695 H         1 UNK         0.0600 
    228 H228        2.6044  -19.7329  -51.9460 H         1 UNK         0.0600 
    229 H229        1.3894  -21.0052  -51.9241 H         1 UNK         0.0600 
    230 H230       -0.6070  -20.4629  -53.7708 H         1 UNK         0.3000 
    231 H231       -1.1702  -17.7798  -54.8340 H         1 UNK         0.0600 
    232 H232       -2.6436  -17.2024  -52.8635 H         1 UNK         0.0600 
    233 H233       -0.9392  -17.2549  -52.4401 H         1 UNK         0.0600 
    234 H234       -1.9942  -18.5902  -51.9985 H         1 UNK         0.0600 
    235 H235       -2.4041  -20.8388  -53.5105 H         1 UNK         0.3000 
    236 H236       -3.8964  -22.2884  -54.0440 H         1 UNK         0.0600 
    237 H237       -2.6791  -22.2688  -56.2103 H         1 UNK         0.0600 
    238 H238       -4.3690  -22.6888  -56.4441 H         1 UNK         0.0600 
    239 H239       -3.8030  -21.0757  -56.8547 H         1 UNK         0.0600 
    240 H240       -5.0134  -19.0671  -54.8450 H         1 UNK         0.3000 
    241 H241       -6.9535  -18.0148  -54.7246 H         1 UNK         0.0600 
    242 H242       -7.9619  -20.0477  -57.8266 H         1 UNK         0.3800 
    243 H243       -6.4036  -19.9740  -57.0455 H         1 UNK         0.3800 
    244 H244       -8.9038  -18.8770  -53.3720 H         1 UNK         0.0800 
    245 H245       -8.0613  -20.3751  -53.1201 H         1 UNK         0.0800 
    246 H246       -5.5362  -20.3446  -51.8039 H         1 UNK         0.0800 
    247 H247       -6.9986  -20.7384  -50.9294 H         1 UNK         0.0800 
@<TRIPOS>BOND
     1    1    2 1    
     2    1  127 1    
     3    1  128 1    
     4    1  129 1    
     5    2    3 2    
     6    2    4 am   BACKBONE|DICT|INTERRES
     7    4    5 1    
     8    4  130 1    
     9    5    6 1    
    10    5   65 1    
    11    5  131 1    
    12    6    7 1    
    13    6  132 1    
    14    6  133 1    
    15    7    8 1    
    16    8    9 1    
    17    8  134 1    
    18    8  135 1    
    19    9   10 ar   
    20    9   14 ar   
    21   10   11 ar   
    22   10  136 1    
    23   11   12 ar   
    24   11  126 1    
    25   12   13 ar   
    26   12  137 1    
    27   13   14 ar   
    28   13   15 1    
    29   14  138 1    
    30   15   16 1    
    31   15  139 1    
    32   15  140 1    
    33   16   17 1    
    34   17   18 1    
    35   17  141 1    
    36   17  142 1    
    37   18   19 1    
    38   18   67 1    
    39   18  143 1    
    40   19   20 am   BACKBONE|DICT|INTERRES
    41   19  144 1    
    42   20   21 2    
    43   20   22 1    
    44   22   23 1    
    45   22   24 1    
    46   22  145 1    
    47   23  146 1    
    48   23  147 1    
    49   23  148 1    
    50   24   25 am   BACKBONE|DICT|INTERRES
    51   24  149 1    
    52   25   26 2    
    53   25   27 1    
    54   27   28 1    
    55   27   29 1    
    56   27  150 1    
    57   28  151 1    
    58   28  152 1    
    59   28  153 1    
    60   29   30 am   BACKBONE|DICT|INTERRES
    61   29  154 1    
    62   30   31 2    
    63   30   32 1    
    64   32   33 1    
    65   32   34 1    
    66   32  155 1    
    67   33  156 1    
    68   33  157 1    
    69   33  158 1    
    70   34   35 am   BACKBONE|DICT|INTERRES
    71   34  159 1    
    72   35   36 2    
    73   35   37 1    
    74   37   38 1    
    75   37   39 1    
    76   37  160 1    
    77   38  161 1    
    78   38  162 1    
    79   38  163 1    
    80   39   40 am   BACKBONE|DICT|INTERRES
    81   39  164 1    
    82   40   41 2    
    83   40   42 1    
    84   42   43 1    
    85   42   44 1    
    86   42  165 1    
    87   43  166 1    
    88   43  167 1    
    89   43  168 1    
    90   44   45 am   BACKBONE|DICT|INTERRES
    91   44  169 1    
    92   45   46 2    
    93   45   47 1    
    94   47   48 1    
    95   47   49 1    
    96   47  170 1    
    97   48  171 1    
    98   48  172 1    
    99   48  173 1    
   100   49   50 am   BACKBONE|DICT|INTERRES
   101   49  174 1    
   102   50   51 2    
   103   50   52 1    
   104   52   53 1    
   105   52   54 1    
   106   52  175 1    
   107   53  176 1    
   108   53  177 1    
   109   53  178 1    
   110   54   55 am   BACKBONE|DICT|INTERRES
   111   54  179 1    
   112   55   56 2    
   113   55   57 1    
   114   57   58 1    
   115   57   59 1    
   116   57  180 1    
   117   58  181 1    
   118   58  182 1    
   119   58  183 1    
   120   59   60 am   BACKBONE|DICT|INTERRES
   121   59  184 1    
   122   60   61 2    
   123   60   62 1    
   124   62   63 1    
   125   62   64 1    
   126   62  185 1    
   127   63  186 1    
   128   63  187 1    
   129   63  188 1    
   130   64   65 am   BACKBONE|DICT|INTERRES
   131   64  189 1    
   132   65   66 2    
   133   67   68 2    
   134   67   69 am   BACKBONE|DICT|INTERRES
   135   69   70 1    
   136   69  190 1    
   137   70   71 1    
   138   70   72 1    
   139   70  191 1    
   140   71  192 1    
   141   71  193 1    
   142   71  194 1    
   143   72   73 2    
   144   72   74 am   BACKBONE|DICT|INTERRES
   145   74   75 1    
   146   74  195 1    
   147   75   76 1    
   148   75   77 1    
   149   75  196 1    
   150   76  197 1    
   151   76  198 1    
   152   76  199 1    
   153   77   78 2    
   154   77   79 am   BACKBONE|DICT|INTERRES
   155   79   80 1    
   156   79  200 1    
   157   80   81 1    
   158   80   82 1    
   159   80  201 1    
   160   81  202 1    
   161   81  203 1    
   162   81  204 1    
   163   82   83 2    
   164   82   84 am   BACKBONE|DICT|INTERRES
   165   84   85 1    
   166   84  205 1    
   167   85   86 1    
   168   85   87 1    
   169   85  206 1    
   170   86  207 1    
   171   86  208 1    
   172   86  209 1    
   173   87   88 2    
   174   87   89 am   BACKBONE|DICT|INTERRES
   175   89   90 1    
   176   89  210 1    
   177   90   91 1    
   178   90   92 1    
   179   90  211 1    
   180   91  212 1    
   181   91  213 1    
   182   91  214 1    
   183   92   93 2    
   184   92   94 am   BACKBONE|DICT|INTERRES
   185   94   95 1    
   186   94  215 1    
   187   95   96 1    
   188   95   97 1    
   189   95  216 1    
   190   96  217 1    
   191   96  218 1    
   192   96  219 1    
   193   97   98 2    
   194   97   99 am   BACKBONE|DICT|INTERRES
   195   99  100 1    
   196   99  220 1    
   197  100  101 1    
   198  100  102 1    
   199  100  221 1    
   200  101  222 1    
   201  101  223 1    
   202  101  224 1    
   203  102  103 2    
   204  102  104 am   BACKBONE|DICT|INTERRES
   205  104  105 1    
   206  104  225 1    
   207  105  106 1    
   208  105  107 1    
   209  105  226 1    
   210  106  227 1    
   211  106  228 1    
   212  106  229 1    
   213  107  108 2    
   214  107  109 am   BACKBONE|DICT|INTERRES
   215  109  110 1    
   216  109  230 1    
   217  110  111 1    
   218  110  112 1    
   219  110  231 1    
   220  111  232 1    
   221  111  233 1    
   222  111  234 1    
   223  112  113 2    
   224  112  114 am   BACKBONE|DICT|INTERRES
   225  114  115 1    
   226  114  235 1    
   227  115  116 1    
   228  115  117 1    
   229  115  236 1    
   230  116  237 1    
   231  116  238 1    
   232  116  239 1    
   233  117  118 2    
   234  117  119 am   BACKBONE|DICT|INTERRES
   235  119  120 1    
   236  119  240 1    
   237  120  121 1    
   238  120  124 1    
   239  120  241 1    
   240  121  122 am   BACKBONE|DICT|INTERRES
   241  121  123 2    
   242  122  242 1    
   243  122  243 1    
   244  124  125 1    
   245  124  244 1    
   246  124  245 1    
   247  125  126 1    
   248  126  246 1    
   249  126  247 1    
@<TRIPOS>SUBSTRUCTURE
     1 UNK         1 GROUP             0       ****    0 ROOT    
