@<TRIPOS>MOLECULE
3R540
247   249    1
SMALL
USER_CHARGES


@<TRIPOS>ATOM
      1 CA         -2.8382  -15.3097  -45.9958 C.3       0 UNK        -0.1800 
      2 C          -1.4312  -15.0222  -46.4998 C.2       0 UNK         0.5000 
      3 O          -1.2480  -14.1133  -47.3104 O.2       0 UNK        -0.5000 
      4 N          -0.4363  -15.7864  -46.0280 N.am      1 UNK        -0.5000 
      5 CA          0.9883  -15.6171  -46.3486 C.3       1 UNK         0.1400 
      6 C6          1.8442  -16.8811  -46.0516 C.3       23 UNK        -0.0398 
      7 S7          1.2769  -18.4059  -46.8674 S.3       23 UNK        -0.2404 
      8 C8          1.7737  -18.1318  -48.6035 C.3       23 UNK        -0.0205 
      9 C9          0.6050  -18.0074  -49.5805 C.ar      23 UNK        -0.0193 
     10 C10         0.8243  -18.2619  -50.9375 C.ar      23 UNK        -0.1150 
     11 C11        -0.2197  -18.1622  -51.8622 C.ar      23 UNK        -0.0193 
     12 C12        -1.4986  -17.8080  -51.4209 C.ar      23 UNK        -0.1150 
     13 C13        -1.7390  -17.5671  -50.0658 C.ar      23 UNK        -0.0193 
     14 C14        -0.6802  -17.6448  -49.1624 C.ar      23 UNK        -0.1150 
     15 C15        -3.1335  -17.2135  -49.5695 C.3       23 UNK        -0.0205 
     16 S16        -4.0648  -18.6784  -49.0076 S.3       23 UNK        -0.2404 
     17 C17        -3.2824  -19.1063  -47.4087 C.3       23 UNK        -0.0398 
     18 CA         -2.4365  -20.4059  -47.4504 C.3       11 UNK         0.1400 
     19 N          -1.5269  -20.4844  -46.2942 N.am      11 UNK        -0.5000 
     20 C          -0.6681  -21.4844  -46.0313 C.2       10 UNK         0.5000 
     21 O          -0.4299  -22.3902  -46.8296 O.2       10 UNK        -0.5000 
     22 CA         -0.0497  -21.5683  -44.6171 C.3       10 UNK         0.1400 
     23 CB          1.4720  -21.3651  -44.6458 C.3       10 UNK        -0.1800 
     24 N          -0.6457  -20.6782  -43.6156 N.am      10 UNK        -0.5000 
     25 C          -1.9285  -20.6976  -43.2196 C.2       9 UNK         0.5000 
     26 O          -2.7587  -21.4877  -43.6702 O.2       9 UNK        -0.5000 
     27 CA         -2.3866  -19.6512  -42.1819 C.3       9 UNK         0.1400 
     28 CB         -2.6623  -20.3262  -40.8296 C.3       9 UNK        -0.1800 
     29 N          -1.4563  -18.5404  -41.9692 N.am      9 UNK        -0.5000 
     30 C          -1.0662  -17.6469  -42.8885 C.2       8 UNK         0.5000 
     31 O          -1.4457  -17.6547  -44.0599 O.2       8 UNK        -0.5000 
     32 CA         -0.0414  -16.5909  -42.4312 C.3       8 UNK         0.1400 
     33 CB         -0.7726  -15.3225  -41.9693 C.3       8 UNK        -0.1800 
     34 N           0.8811  -17.0461  -41.3822 N.am      8 UNK        -0.5000 
     35 C           1.6796  -18.1246  -41.4622 C.2       7 UNK         0.5000 
     36 O           1.6773  -18.8966  -42.4225 O.2       7 UNK        -0.5000 
     37 CA          2.6194  -18.3854  -40.2695 C.3       7 UNK         0.1400 
     38 CB          3.8040  -19.2984  -40.6351 C.3       7 UNK        -0.1800 
     39 N           3.1354  -17.1218  -39.7526 N.am      7 UNK        -0.5000 
     40 C           3.1384  -16.7323  -38.4716 C.2       6 UNK         0.5000 
     41 O           2.7189  -17.4283  -37.5462 O.2       6 UNK        -0.5000 
     42 CA          3.6942  -15.3235  -38.1631 C.3       6 UNK         0.1400 
     43 CB          5.1263  -15.4211  -37.6150 C.3       6 UNK        -0.1800 
     44 N           3.6924  -14.4202  -39.3174 N.am      6 UNK        -0.5000 
     45 C           2.5941  -13.9796  -39.9455 C.2       5 UNK         0.5000 
     46 O           1.4506  -14.2133  -39.5533 O.2       5 UNK        -0.5000 
     47 CA          2.7947  -13.1843  -41.2520 C.3       5 UNK         0.1400 
     48 CB          2.6666  -11.6775  -40.9837 C.3       5 UNK        -0.1800 
     49 N           4.0454  -13.4337  -41.9798 N.am      5 UNK        -0.5000 
     50 C           4.5102  -14.6246  -42.3885 C.2       4 UNK         0.5000 
     51 O           4.0275  -15.7058  -42.0512 O.2       4 UNK        -0.5000 
     52 CA          5.6741  -14.5748  -43.3884 C.3       4 UNK         0.1400 
     53 CB          6.1410  -15.9688  -43.8475 C.3       4 UNK        -0.1800 
     54 N           5.2282  -13.8065  -44.5452 N.am      4 UNK        -0.5000 
     55 C           5.9561  -12.9108  -45.2226 C.2       3 UNK         0.5000 
     56 O           7.1324  -12.6545  -44.9626 O.2       3 UNK        -0.5000 
     57 CA          5.2636  -12.1698  -46.3877 C.3       3 UNK         0.1400 
     58 CB          5.7209  -12.7484  -47.7358 C.3       3 UNK        -0.1800 
     59 N           3.8002  -12.2157  -46.3313 N.am      3 UNK        -0.5000 
     60 C           3.0416  -11.5904  -45.4203 C.2       2 UNK         0.5000 
     61 O           3.4948  -10.8324  -44.5626 O.2       2 UNK        -0.5000 
     62 CA          1.5271  -11.8873  -45.4471 C.3       2 UNK         0.1400 
     63 CB          0.7722  -10.7672  -46.1778 C.3       2 UNK        -0.1800 
     64 N           1.1618  -13.1764  -46.0487 N.am      2 UNK        -0.5000 
     65 C           1.5624  -14.3804  -45.6205 C.2       1 UNK         0.5000 
     66 O           2.3434  -14.5282  -44.6823 O.2       1 UNK        -0.5000 
     67 C          -3.3386  -21.6626  -47.5781 C.2       11 UNK         0.5000 
     68 O          -3.6714  -22.0708  -48.6941 O.2       11 UNK        -0.5000 
     69 N          -3.6594  -22.2966  -46.4371 N.am      12 UNK        -0.5000 
     70 CA         -4.3596  -23.5789  -46.3401 C.3       12 UNK         0.1400 
     71 CB         -4.6220  -23.9002  -44.8620 C.3       12 UNK        -0.1800 
     72 C          -3.6227  -24.7515  -47.0178 C.2       12 UNK         0.5000 
     73 O          -4.2800  -25.6955  -47.4549 O.2       12 UNK        -0.5000 
     74 N          -2.2890  -24.6681  -47.1047 N.am      13 UNK        -0.5000 
     75 CA         -1.4346  -25.6473  -47.7694 C.3       13 UNK         0.1400 
     76 CB         -0.2242  -25.9539  -46.8725 C.3       13 UNK        -0.1800 
     77 C          -0.9768  -25.1327  -49.1429 C.2       13 UNK         0.5000 
     78 O          -1.0649  -25.8740  -50.1211 O.2       13 UNK        -0.5000 
     79 N          -0.4989  -23.8801  -49.1938 N.am      14 UNK        -0.5000 
     80 CA          0.1063  -23.2553  -50.3715 C.3       14 UNK         0.1400 
     81 CB          0.7365  -21.9088  -49.9760 C.3       14 UNK        -0.1800 
     82 C          -0.8782  -23.0793  -51.5383 C.2       14 UNK         0.5000 
     83 O          -0.5954  -23.5365  -52.6460 O.2       14 UNK        -0.5000 
     84 N          -2.0242  -22.4467  -51.2570 N.am      15 UNK        -0.5000 
     85 CA         -3.0810  -22.1846  -52.2354 C.3       15 UNK         0.1400 
     86 CB         -3.6406  -20.7772  -51.9995 C.3       15 UNK        -0.1800 
     87 C          -4.2138  -23.2186  -52.1497 C.2       15 UNK         0.5000 
     88 O          -5.2141  -23.0615  -52.8511 O.2       15 UNK        -0.5000 
     89 N          -4.0595  -24.2151  -51.2649 N.am      16 UNK        -0.5000 
     90 CA         -5.0426  -25.2333  -50.8905 C.3       16 UNK         0.1400 
     91 CB         -5.2814  -26.2168  -52.0537 C.3       16 UNK        -0.1800 
     92 C          -6.3358  -24.6088  -50.3232 C.2       16 UNK         0.5000 
     93 O          -7.4358  -25.0360  -50.6752 O.2       16 UNK        -0.5000 
     94 N          -6.1597  -23.5905  -49.4650 N.am      17 UNK        -0.5000 
     95 CA         -7.1974  -22.7705  -48.8311 C.3       17 UNK         0.1400 
     96 CB         -8.1440  -23.6198  -47.9550 C.3       17 UNK        -0.1800 
     97 C          -7.9275  -21.8861  -49.8573 C.2       17 UNK         0.5000 
     98 O          -9.1581  -21.8819  -49.9194 O.2       17 UNK        -0.5000 
     99 N          -7.1253  -21.1457  -50.6365 N.am      18 UNK        -0.5000 
    100 CA        -7.5311  -20.1890  -51.6705 C.3       18 UNK         0.1400 
    101 CB        -8.2519  -18.9774  -51.0433 C.3       18 UNK        -0.1800 
    102 C         -8.3218  -20.8420  -52.8242 C.2       18 UNK         0.5000 
    103 O         -9.3028  -20.2742  -53.3072 O.2       18 UNK        -0.5000 
    104 N         -7.8548  -22.0160  -53.2696 N.am      19 UNK        -0.5000 
    105 CA        -8.3902  -22.7566  -54.4157 C.3       19 UNK         0.1400 
    106 CB        -8.2085  -24.2604  -54.1590 C.3       19 UNK        -0.1800 
    107 C         -7.7230  -22.3434  -55.7456 C.2       19 UNK         0.5000 
    108 O         -7.9859  -22.9707  -56.7724 O.2       19 UNK        -0.5000 
    109 N         -6.8675  -21.3104  -55.7004 N.am      20 UNK        -0.5000 
    110 CA        -6.0883  -20.7364  -56.8013 C.3       20 UNK         0.1400 
    111 CB        -7.0026  -20.1917  -57.9195 C.3       20 UNK        -0.1800 
    112 C         -4.9827  -21.6787  -57.3196 C.2       20 UNK         0.5000 
    113 O         -4.6330  -21.6267  -58.5002 O.2       20 UNK        -0.5000 
    114 N         -4.4147  -22.4967  -56.4184 N.am      21 UNK        -0.5000 
    115 CA        -3.2347  -23.3278  -56.6913 C.3       21 UNK         0.1400 
    116 CB        -3.1110  -24.4161  -55.6135 C.3       21 UNK        -0.1800 
    117 C         -1.9320  -22.5024  -56.8068 C.2       21 UNK         0.5000 
    118 O         -0.9476  -22.9942  -57.3597 O.2       21 UNK        -0.5000 
    119 N         -1.9634  -21.2573  -56.3212 N.am      22 UNK        -0.5000 
    120 CA        -0.9496  -20.2167  -56.5111 C.3       22 UNK         0.1400 
    121 C         -1.6180  -18.8163  -56.5864 C.2       22 UNK         0.5000 
    122 N         -0.8842  -17.7923  -57.0006 N.am      22 UNK        -0.7600 
    123 O         -2.7953  -18.6444  -56.2722 O.2       22 UNK        -0.5000 
    124 C124        0.2064  -20.2918  -55.4763 C.3       23 UNK        -0.0398 
    125 S125       -0.3191  -20.1830  -53.7303 S.3       23 UNK        -0.2404 
    126 C126        0.0351  -18.4447  -53.3342 C.3       23 UNK        -0.0205 
    127 H127       -3.0570  -14.6897  -45.1267 H         1 UNK         0.0600 
    128 H128       -2.9610  -16.3535  -45.7123 H         1 UNK         0.0600 
    129 H129       -3.5736  -15.0847  -46.7681 H         1 UNK         0.0600 
    130 H130       -0.6634  -16.5293  -45.3725 H         1 UNK         0.3000 
    131 H131        1.0688  -15.4209  -47.4198 H         1 UNK         0.0600 
    132 H132        2.8836  -16.7124  -46.3390 H         1 UNK         0.0800 
    133 H133        1.8692  -17.0919  -44.9819 H         1 UNK         0.0800 
    134 H134        2.4000  -18.9741  -48.9013 H         1 UNK         0.0800 
    135 H135        2.3972  -17.2412  -48.6853 H         1 UNK         0.0800 
    136 H136        1.8113  -18.5440  -51.2766 H         1 UNK         0.1150 
    137 H137       -2.3100  -17.7372  -52.1316 H         1 UNK         0.1150 
    138 H138       -0.8719  -17.4321  -48.1246 H         1 UNK         0.1150 
    139 H139       -3.0758  -16.4798  -48.7655 H         1 UNK         0.0800 
    140 H140       -3.6960  -16.7341  -50.3720 H         1 UNK         0.0800 
    141 H141       -4.0647  -19.1808  -46.6512 H         1 UNK         0.0800 
    142 H142       -2.6619  -18.2695  -47.0930 H         1 UNK         0.0800 
    143 H143       -1.8043  -20.3700  -48.3387 H         1 UNK         0.0600 
    144 H144       -1.6398  -19.7745  -45.5838 H         1 UNK         0.3000 
    145 H145       -0.2319  -22.5901  -44.2782 H         1 UNK         0.0600 
    146 H146        1.9219  -21.6592  -43.6975 H         1 UNK         0.0600 
    147 H147        1.9403  -21.9650  -45.4272 H         1 UNK         0.0600 
    148 H148        1.7378  -20.3244  -44.8229 H         1 UNK         0.0600 
    149 H149       -0.0225  -19.9904  -43.2073 H         1 UNK         0.3000 
    150 H150       -3.3231  -19.2283  -42.5507 H         1 UNK         0.0600 
    151 H151       -3.3817  -21.1394  -40.9360 H         1 UNK         0.0600 
    152 H152       -3.0795  -19.6192  -40.1124 H         1 UNK         0.0600 
    153 H153       -1.7529  -20.7470  -40.3985 H         1 UNK         0.0600 
    154 H154       -1.0696  -18.4547  -41.0410 H         1 UNK         0.3000 
    155 H155        0.5655  -16.3272  -43.2961 H         1 UNK         0.0600 
    156 H156       -1.3331  -15.4930  -41.0494 H         1 UNK         0.0600 
    157 H157       -1.4785  -14.9786  -42.7269 H         1 UNK         0.0600 
    158 H158       -0.0768  -14.5052  -41.7911 H         1 UNK         0.0600 
    159 H159        0.9555  -16.4577  -40.5633 H         1 UNK         0.3000 
    160 H160        2.0186  -18.8895  -39.5102 H         1 UNK         0.0600 
    161 H161        4.4148  -18.8600  -41.4255 H         1 UNK         0.0600 
    162 H162        3.4587  -20.2721  -40.9846 H         1 UNK         0.0600 
    163 H163        4.4469  -19.4734  -39.7725 H         1 UNK         0.0600 
    164 H164        3.4871  -16.4847  -40.4661 H         1 UNK         0.3000 
    165 H165        3.0598  -14.8842  -37.3906 H         1 UNK         0.0600 
    166 H166        5.5044  -14.4420  -37.3205 H         1 UNK         0.0600 
    167 H167        5.1648  -16.0614  -36.7327 H         1 UNK         0.0600 
    168 H168        5.8112  -15.8389  -38.3540 H         1 UNK         0.0600 
    169 H169        4.5909  -14.1903  -39.7153 H         1 UNK         0.3000 
    170 H170        1.9879  -13.4743  -41.9263 H         1 UNK         0.0600 
    171 H171        1.7325  -11.4480  -40.4692 H         1 UNK         0.0600 
    172 H172        3.4838  -11.3105  -40.3616 H         1 UNK         0.0600 
    173 H173        2.6694  -11.1083  -41.9132 H         1 UNK         0.0600 
    174 H174        4.5122  -12.6099  -42.3314 H         1 UNK         0.3000 
    175 H175        6.5055  -14.0715  -42.8907 H         1 UNK         0.0600 
    176 H176        5.3397  -16.5154  -44.3467 H         1 UNK         0.0600 
    177 H177        6.9784  -15.8946  -44.5413 H         1 UNK         0.0600 
    178 H178        6.4723  -16.5693  -42.9995 H         1 UNK         0.0600 
    179 H179        4.2485  -13.9329  -44.7839 H         1 UNK         0.3000 
    180 H180        5.5736  -11.1239  -46.3401 H         1 UNK         0.0600 
    181 H181        5.4265  -13.7930  -47.8457 H         1 UNK         0.0600 
    182 H182        6.8063  -12.7015  -47.8339 H         1 UNK         0.0600 
    183 H183        5.2970  -12.1893  -48.5701 H         1 UNK         0.0600 
    184 H184        3.3397  -12.8108  -47.0036 H         1 UNK         0.3000 
    185 H185        1.1882  -11.9064  -44.4093 H         1 UNK         0.0600 
    186 H186        0.9918   -9.7938  -45.7372 H         1 UNK         0.0600 
    187 H187        1.0464  -10.7207  -47.2325 H         1 UNK         0.0600 
    188 H188       -0.3064  -10.9140  -46.1174 H         1 UNK         0.0600 
    189 H189        0.4552  -13.1558  -46.7773 H         1 UNK         0.3000 
    190 H190       -3.3353  -21.9079  -45.5563 H         1 UNK         0.3000 
    191 H191       -5.3244  -23.4684  -46.8299 H         1 UNK         0.0600 
    192 H192       -3.6912  -24.0271  -44.3076 H         1 UNK         0.0600 
    193 H193       -5.1950  -24.8225  -44.7577 H         1 UNK         0.0600 
    194 H194       -5.1934  -23.1066  -44.3802 H         1 UNK         0.0600 
    195 H195       -1.8271  -23.8334  -46.7635 H         1 UNK         0.3000 
    196 H196       -1.9760  -26.5826  -47.9266 H         1 UNK         0.0600 
    197 H197        0.4364  -26.6823  -47.3444 H         1 UNK         0.0600 
    198 H198       -0.5410  -26.3736  -45.9176 H         1 UNK         0.0600 
    199 H199        0.3665  -25.0610  -46.6642 H         1 UNK         0.0600 
    200 H200       -0.4552  -23.3393  -48.3319 H         1 UNK         0.3000 
    201 H201        0.9092  -23.9111  -50.7143 H         1 UNK         0.0600 
    202 H202        1.4983  -22.0389  -49.2072 H         1 UNK         0.0600 
    203 H203       -0.0048  -21.2082  -49.5923 H         1 UNK         0.0600 
    204 H204        1.2159  -21.4354  -50.8339 H         1 UNK         0.0600 
    205 H205       -2.2125  -22.1496  -50.3075 H         1 UNK         0.3000 
    206 H206       -2.6734  -22.2104  -53.2467 H         1 UNK         0.0600 
    207 H207       -4.3300  -20.4884  -52.7931 H         1 UNK         0.0600 
    208 H208       -4.1731  -20.7115  -51.0523 H         1 UNK         0.0600 
    209 H209       -2.8407  -20.0424  -51.9860 H         1 UNK         0.0600 
    210 H210       -3.1888  -24.2379  -50.7540 H         1 UNK         0.3000 
    211 H211       -4.5979  -25.8044  -50.0755 H         1 UNK         0.0600 
    212 H212       -5.7175  -25.7248  -52.9206 H         1 UNK         0.0600 
    213 H213       -5.9570  -27.0196  -51.7567 H         1 UNK         0.0600 
    214 H214       -4.3474  -26.6804  -52.3709 H         1 UNK         0.0600 
    215 H215       -5.2078  -23.2878  -49.2855 H         1 UNK         0.3000 
    216 H216       -6.6761  -22.0804  -48.1661 H         1 UNK         0.0600 
    217 H217       -8.8052  -22.9802  -47.3695 H         1 UNK         0.0600 
    218 H218       -7.5877  -24.2407  -47.2531 H         1 UNK         0.0600 
    219 H219       -8.7768  -24.2766  -48.5520 H         1 UNK         0.0600 
    220 H220       -6.1297  -21.2441  -50.5031 H         1 UNK         0.3000 
    221 H221       -6.6084  -19.8155  -52.1156 H         1 UNK         0.0600 
    222 H222       -9.2158  -19.2540  -50.6154 H         1 UNK         0.0600 
    223 H223       -7.6500  -18.5279  -50.2532 H         1 UNK         0.0600 
    224 H224       -8.4359  -18.2030  -51.7888 H         1 UNK         0.0600 
    225 H225       -7.0129  -22.4072  -52.8541 H         1 UNK         0.3000 
    226 H226       -9.4597  -22.5578  -54.5095 H         1 UNK         0.0600 
    227 H227       -8.6158  -24.5517  -53.1907 H         1 UNK         0.0600 
    228 H228       -8.7197  -24.8528  -54.9186 H         1 UNK         0.0600 
    229 H229       -7.1560  -24.5393  -54.1819 H         1 UNK         0.0600 
    230 H230       -6.7249  -20.8836  -54.7974 H         1 UNK         0.3000 
    231 H231       -5.5631  -19.8801  -56.3753 H         1 UNK         0.0600 
    232 H232       -7.7716  -19.5336  -57.5150 H         1 UNK         0.0600 
    233 H233       -7.4989  -20.9927  -58.4676 H         1 UNK         0.0600 
    234 H234       -6.4291  -19.6111  -58.6429 H         1 UNK         0.0600 
    235 H235       -4.7784  -22.5121  -55.4758 H         1 UNK         0.3000 
    236 H236       -3.3886  -23.8273  -57.6502 H         1 UNK         0.0600 
    237 H237       -2.3326  -25.1328  -55.8777 H         1 UNK         0.0600 
    238 H238       -2.8459  -24.0007  -54.6438 H         1 UNK         0.0600 
    239 H239       -4.0411  -24.9734  -55.4994 H         1 UNK         0.0600 
    240 H240       -2.8223  -20.9146  -55.9147 H         1 UNK         0.3000 
    241 H241       -0.5158  -20.3743  -57.5006 H         1 UNK         0.0600 
    242 H242       -1.3105  -16.8803  -57.0547 H         1 UNK         0.3800 
    243 H243        0.0774  -17.9030  -57.2823 H         1 UNK         0.3800 
    244 H244        0.9590  -19.5292  -55.6806 H         1 UNK         0.0800 
    245 H245        0.7249  -21.2437  -55.5963 H         1 UNK         0.0800 
    246 H246        1.0717  -18.2152  -53.5855 H         1 UNK         0.0800 
    247 H247       -0.5864  -17.7935  -53.9501 H         1 UNK         0.0800 
@<TRIPOS>BOND
     1    1    2 1    
     2    1  127 1    
     3    1  128 1    
     4    1  129 1    
     5    2    3 2    
     6    2    4 am   BACKBONE|DICT|INTERRES
     7    4    5 1    
     8    4  130 1    
     9    5    6 1    
    10    5   65 1    
    11    5  131 1    
    12    6    7 1    
    13    6  132 1    
    14    6  133 1    
    15    7    8 1    
    16    8    9 1    
    17    8  134 1    
    18    8  135 1    
    19    9   10 ar   
    20    9   14 ar   
    21   10   11 ar   
    22   10  136 1    
    23   11   12 ar   
    24   11  126 1    
    25   12   13 ar   
    26   12  137 1    
    27   13   14 ar   
    28   13   15 1    
    29   14  138 1    
    30   15   16 1    
    31   15  139 1    
    32   15  140 1    
    33   16   17 1    
    34   17   18 1    
    35   17  141 1    
    36   17  142 1    
    37   18   19 1    
    38   18   67 1    
    39   18  143 1    
    40   19   20 am   BACKBONE|DICT|INTERRES
    41   19  144 1    
    42   20   21 2    
    43   20   22 1    
    44   22   23 1    
    45   22   24 1    
    46   22  145 1    
    47   23  146 1    
    48   23  147 1    
    49   23  148 1    
    50   24   25 am   BACKBONE|DICT|INTERRES
    51   24  149 1    
    52   25   26 2    
    53   25   27 1    
    54   27   28 1    
    55   27   29 1    
    56   27  150 1    
    57   28  151 1    
    58   28  152 1    
    59   28  153 1    
    60   29   30 am   BACKBONE|DICT|INTERRES
    61   29  154 1    
    62   30   31 2    
    63   30   32 1    
    64   32   33 1    
    65   32   34 1    
    66   32  155 1    
    67   33  156 1    
    68   33  157 1    
    69   33  158 1    
    70   34   35 am   BACKBONE|DICT|INTERRES
    71   34  159 1    
    72   35   36 2    
    73   35   37 1    
    74   37   38 1    
    75   37   39 1    
    76   37  160 1    
    77   38  161 1    
    78   38  162 1    
    79   38  163 1    
    80   39   40 am   BACKBONE|DICT|INTERRES
    81   39  164 1    
    82   40   41 2    
    83   40   42 1    
    84   42   43 1    
    85   42   44 1    
    86   42  165 1    
    87   43  166 1    
    88   43  167 1    
    89   43  168 1    
    90   44   45 am   BACKBONE|DICT|INTERRES
    91   44  169 1    
    92   45   46 2    
    93   45   47 1    
    94   47   48 1    
    95   47   49 1    
    96   47  170 1    
    97   48  171 1    
    98   48  172 1    
    99   48  173 1    
   100   49   50 am   BACKBONE|DICT|INTERRES
   101   49  174 1    
   102   50   51 2    
   103   50   52 1    
   104   52   53 1    
   105   52   54 1    
   106   52  175 1    
   107   53  176 1    
   108   53  177 1    
   109   53  178 1    
   110   54   55 am   BACKBONE|DICT|INTERRES
   111   54  179 1    
   112   55   56 2    
   113   55   57 1    
   114   57   58 1    
   115   57   59 1    
   116   57  180 1    
   117   58  181 1    
   118   58  182 1    
   119   58  183 1    
   120   59   60 am   BACKBONE|DICT|INTERRES
   121   59  184 1    
   122   60   61 2    
   123   60   62 1    
   124   62   63 1    
   125   62   64 1    
   126   62  185 1    
   127   63  186 1    
   128   63  187 1    
   129   63  188 1    
   130   64   65 am   BACKBONE|DICT|INTERRES
   131   64  189 1    
   132   65   66 2    
   133   67   68 2    
   134   67   69 am   BACKBONE|DICT|INTERRES
   135   69   70 1    
   136   69  190 1    
   137   70   71 1    
   138   70   72 1    
   139   70  191 1    
   140   71  192 1    
   141   71  193 1    
   142   71  194 1    
   143   72   73 2    
   144   72   74 am   BACKBONE|DICT|INTERRES
   145   74   75 1    
   146   74  195 1    
   147   75   76 1    
   148   75   77 1    
   149   75  196 1    
   150   76  197 1    
   151   76  198 1    
   152   76  199 1    
   153   77   78 2    
   154   77   79 am   BACKBONE|DICT|INTERRES
   155   79   80 1    
   156   79  200 1    
   157   80   81 1    
   158   80   82 1    
   159   80  201 1    
   160   81  202 1    
   161   81  203 1    
   162   81  204 1    
   163   82   83 2    
   164   82   84 am   BACKBONE|DICT|INTERRES
   165   84   85 1    
   166   84  205 1    
   167   85   86 1    
   168   85   87 1    
   169   85  206 1    
   170   86  207 1    
   171   86  208 1    
   172   86  209 1    
   173   87   88 2    
   174   87   89 am   BACKBONE|DICT|INTERRES
   175   89   90 1    
   176   89  210 1    
   177   90   91 1    
   178   90   92 1    
   179   90  211 1    
   180   91  212 1    
   181   91  213 1    
   182   91  214 1    
   183   92   93 2    
   184   92   94 am   BACKBONE|DICT|INTERRES
   185   94   95 1    
   186   94  215 1    
   187   95   96 1    
   188   95   97 1    
   189   95  216 1    
   190   96  217 1    
   191   96  218 1    
   192   96  219 1    
   193   97   98 2    
   194   97   99 am   BACKBONE|DICT|INTERRES
   195   99  100 1    
   196   99  220 1    
   197  100  101 1    
   198  100  102 1    
   199  100  221 1    
   200  101  222 1    
   201  101  223 1    
   202  101  224 1    
   203  102  103 2    
   204  102  104 am   BACKBONE|DICT|INTERRES
   205  104  105 1    
   206  104  225 1    
   207  105  106 1    
   208  105  107 1    
   209  105  226 1    
   210  106  227 1    
   211  106  228 1    
   212  106  229 1    
   213  107  108 2    
   214  107  109 am   BACKBONE|DICT|INTERRES
   215  109  110 1    
   216  109  230 1    
   217  110  111 1    
   218  110  112 1    
   219  110  231 1    
   220  111  232 1    
   221  111  233 1    
   222  111  234 1    
   223  112  113 2    
   224  112  114 am   BACKBONE|DICT|INTERRES
   225  114  115 1    
   226  114  235 1    
   227  115  116 1    
   228  115  117 1    
   229  115  236 1    
   230  116  237 1    
   231  116  238 1    
   232  116  239 1    
   233  117  118 2    
   234  117  119 am   BACKBONE|DICT|INTERRES
   235  119  120 1    
   236  119  240 1    
   237  120  121 1    
   238  120  124 1    
   239  120  241 1    
   240  121  122 am   BACKBONE|DICT|INTERRES
   241  121  123 2    
   242  122  242 1    
   243  122  243 1    
   244  124  125 1    
   245  124  244 1    
   246  124  245 1    
   247  125  126 1    
   248  126  246 1    
   249  126  247 1    
@<TRIPOS>SUBSTRUCTURE
     1 UNK         1 GROUP             0       ****    0 ROOT    
