@<TRIPOS>MOLECULE
3R540
247   249    1
SMALL
USER_CHARGES


@<TRIPOS>ATOM
      1 CA          4.3053  -16.3535  -47.5613 C.3       0 UNK        -0.1800 
      2 C           3.3149  -15.3358  -47.0168 C.2       0 UNK         0.5000 
      3 O           3.2115  -15.1722  -45.8039 O.2       0 UNK        -0.5000 
      4 N           2.5953  -14.6341  -47.9027 N.am      1 UNK        -0.5000 
      5 CA          1.5653  -13.6436  -47.5496 C.3       1 UNK         0.1400 
      6 C6          0.7114  -13.2517  -48.7871 C.3       23 UNK        -0.0398 
      7 S7         -1.0680  -13.0361  -48.4268 S.3       23 UNK        -0.2404 
      8 C8         -1.6585  -14.7283  -48.0674 C.3       23 UNK        -0.0205 
      9 C9         -1.3041  -15.7343  -49.1534 C.ar      23 UNK        -0.0193 
     10 C10        -2.1298  -15.9104  -50.2685 C.ar      23 UNK        -0.1150 
     11 C11        -1.7759  -16.8185  -51.2727 C.ar      23 UNK        -0.0193 
     12 C12        -0.5855  -17.5437  -51.1587 C.ar      23 UNK        -0.1150 
     13 C13         0.2456  -17.3752  -50.0492 C.ar      23 UNK        -0.0193 
     14 C14        -0.1323  -16.4861  -49.0414 C.ar      23 UNK        -0.1150 
     15 C15         1.5765  -18.1085  -49.9640 C.3       23 UNK        -0.0205 
     16 S16         1.4040  -19.8389  -49.4348 S.3       23 UNK        -0.2404 
     17 C17         0.7995  -19.6527  -47.7225 C.3       23 UNK        -0.0398 
     18 CA         -0.4562  -20.5056  -47.4325 C.3       11 UNK         0.1400 
     19 N          -0.6680  -20.6521  -45.9917 N.am      11 UNK        -0.5000 
     20 C          -1.4620  -21.5740  -45.4331 C.2       10 UNK         0.5000 
     21 O          -2.1017  -22.4076  -46.0739 O.2       10 UNK        -0.5000 
     22 CA         -1.5954  -21.5285  -43.9011 C.3       10 UNK         0.1400 
     23 CB         -0.3578  -22.1393  -43.2266 C.3       10 UNK        -0.1800 
     24 N          -1.8175  -20.1727  -43.3957 N.am      10 UNK        -0.5000 
     25 C          -2.8952  -19.4298  -43.6861 C.2       9 UNK         0.5000 
     26 O          -3.8216  -19.8206  -44.3949 O.2       9 UNK        -0.5000 
     27 CA         -2.9346  -17.9988  -43.1246 C.3       9 UNK         0.1400 
     28 CB         -3.3460  -18.0088  -41.6450 C.3       9 UNK        -0.1800 
     29 N          -1.6667  -17.2868  -43.2862 N.am      9 UNK        -0.5000 
     30 C          -1.1074  -16.9904  -44.4687 C.2       8 UNK         0.5000 
     31 O          -1.6089  -17.2752  -45.5538 O.2       8 UNK        -0.5000 
     32 CA          0.2707  -16.3105  -44.4396 C.3       8 UNK         0.1400 
     33 CB          0.1481  -14.8255  -44.0659 C.3       8 UNK        -0.1800 
     34 N           1.1930  -16.9749  -43.5238 N.am      8 UNK        -0.5000 
     35 C           1.5923  -18.2497  -43.6265 C.2       7 UNK         0.5000 
     36 O           1.2581  -19.0084  -44.5374 O.2       7 UNK        -0.5000 
     37 CA          2.4664  -18.7807  -42.4795 C.3       7 UNK         0.1400 
     38 CB          3.9253  -18.3240  -42.6408 C.3       7 UNK        -0.1800 
     39 N           1.9562  -18.3639  -41.1724 N.am      7 UNK        -0.5000 
     40 C           0.8059  -18.7951  -40.6348 C.2       6 UNK         0.5000 
     41 O           0.0619  -19.6141  -41.1738 O.2       6 UNK        -0.5000 
     42 CA          0.4021  -18.1803  -39.2824 C.3       6 UNK         0.1400 
     43 CB          1.1406  -18.8739  -38.1279 C.3       6 UNK        -0.1800 
     44 N           0.6498  -16.7393  -39.2223 N.am      6 UNK        -0.5000 
     45 C          -0.0080  -15.8300  -39.9551 C.2       5 UNK         0.5000 
     46 O          -0.9116  -16.1084  -40.7416 O.2       5 UNK        -0.5000 
     47 CA          0.4537  -14.3672  -39.8228 C.3       5 UNK         0.1400 
     48 CB         -0.2309  -13.6911  -38.6256 C.3       5 UNK        -0.1800 
     49 N           1.9070  -14.2096  -39.7062 N.am      5 UNK        -0.5000 
     50 C           2.7963  -14.6410  -40.6100 C.2       4 UNK         0.5000 
     51 O           2.4956  -15.3070  -41.6027 O.2       4 UNK        -0.5000 
     52 CA          4.2745  -14.3103  -40.3347 C.3       4 UNK         0.1400 
     53 CB          4.9133  -15.4191  -39.4841 C.3       4 UNK        -0.1800 
     54 N           5.0423  -14.1660  -41.5726 N.am      4 UNK        -0.5000 
     55 C           4.8250  -13.2332  -42.5099 C.2       3 UNK         0.5000 
     56 O           4.0110  -12.3159  -42.3723 O.2       3 UNK        -0.5000 
     57 CA          5.6729  -13.3353  -43.7972 C.3       3 UNK         0.1400 
     58 CB          6.0762  -14.7834  -44.1446 C.3       3 UNK        -0.1800 
     59 N           4.9684  -12.7513  -44.9399 N.am      3 UNK        -0.5000 
     60 C           5.0129  -11.4562  -45.2873 C.2       2 UNK         0.5000 
     61 O           5.7015  -10.6219  -44.6965 O.2       2 UNK        -0.5000 
     62 CA          4.1827  -11.0028  -46.5077 C.3       2 UNK         0.1400 
     63 CB          5.0924  -10.3935  -47.5883 C.3       2 UNK        -0.1800 
     64 N           3.4172  -12.0914  -47.1161 N.am      2 UNK        -0.5000 
     65 C           2.1451  -12.4019  -46.8319 C.2       1 UNK         0.5000 
     66 O           1.4486  -11.7736  -46.0348 O.2       1 UNK        -0.5000 
     67 C          -1.7207  -19.9980  -48.1640 C.2       11 UNK         0.5000 
     68 O          -1.9567  -20.3945  -49.3029 O.2       11 UNK        -0.5000 
     69 N          -2.5448  -19.1769  -47.4983 N.am      12 UNK        -0.5000 
     70 CA         -3.8489  -18.7654  -48.0127 C.3       12 UNK         0.1400 
     71 CB         -4.3830  -17.5717  -47.2093 C.3       12 UNK        -0.1800 
     72 C          -4.8693  -19.9178  -48.0107 C.2       12 UNK         0.5000 
     73 O          -5.6307  -20.0450  -48.9675 O.2       12 UNK        -0.5000 
     74 N          -4.8785  -20.7277  -46.9430 N.am      13 UNK        -0.5000 
     75 CA         -5.7857  -21.8637  -46.7702 C.3       13 UNK         0.1400 
     76 CB         -5.7598  -22.3178  -45.3028 C.3       13 UNK        -0.1800 
     77 C          -5.4735  -23.0464  -47.7052 C.2       13 UNK         0.5000 
     78 O          -6.4027  -23.7033  -48.1740 O.2       13 UNK        -0.5000 
     79 N          -4.1846  -23.2985  -47.9519 N.am      14 UNK        -0.5000 
     80 CA         -3.6835  -24.3279  -48.8537 C.3       14 UNK         0.1400 
     81 CB         -2.9858  -25.4240  -48.0291 C.3       14 UNK        -0.1800 
     82 C          -2.7348  -23.6444  -49.8444 C.2       14 UNK         0.5000 
     83 O          -1.5481  -23.4872  -49.5485 O.2       14 UNK        -0.5000 
     84 N          -3.2967  -23.2089  -50.9783 N.am      15 UNK        -0.5000 
     85 CA         -2.6089  -22.4608  -52.0300 C.3       15 UNK         0.1400 
     86 CB         -3.6504  -21.9900  -53.0550 C.3       15 UNK        -0.1800 
     87 C          -1.5003  -23.2716  -52.7267 C.2       15 UNK         0.5000 
     88 O          -1.5081  -24.5060  -52.6887 O.2       15 UNK        -0.5000 
     89 N          -0.5818  -22.5491  -53.3830 N.am      16 UNK        -0.5000 
     90 CA          0.5327  -23.0904  -54.1634 C.3       16 UNK         0.1400 
     91 CB          1.3286  -21.9268  -54.7730 C.3       16 UNK        -0.1800 
     92 C           0.0655  -24.0628  -55.2632 C.2       16 UNK         0.5000 
     93 O          -0.9549  -23.8120  -55.9082 O.2       16 UNK        -0.5000 
     94 N           0.8031  -25.1712  -55.4200 N.am      17 UNK        -0.5000 
     95 CA          0.5105  -26.3073  -56.3070 C.3       17 UNK         0.1400 
     96 CB          0.5890  -25.8811  -57.7884 C.3       17 UNK        -0.1800 
     97 C          -0.8109  -27.0390  -55.9697 C.2       17 UNK         0.5000 
     98 O          -1.3614  -27.7291  -56.8291 O.2       17 UNK        -0.5000 
     99 N          -1.2916  -26.8741  -54.7260 N.am      18 UNK        -0.5000 
    100 CA        -2.5504  -27.3854  -54.1740 C.3       18 UNK         0.1400 
    101 CB        -2.5332  -28.9264  -54.0931 C.3       18 UNK        -0.1800 
    102 C         -3.8009  -26.8327  -54.8916 C.2       18 UNK         0.5000 
    103 O         -4.8291  -27.5110  -54.9446 O.2       18 UNK        -0.5000 
    104 N         -3.7076  -25.6049  -55.4228 N.am      19 UNK        -0.5000 
    105 CA        -4.7561  -24.9122  -56.1776 C.3       19 UNK         0.1400 
    106 CB        -4.0936  -23.8310  -57.0500 C.3       19 UNK        -0.1800 
    107 C         -5.8758  -24.3433  -55.2758 C.2       19 UNK         0.5000 
    108 O         -6.1858  -23.1533  -55.3533 O.2       19 UNK        -0.5000 
    109 N         -6.4555  -25.2075  -54.4321 N.am      20 UNK        -0.5000 
    110 CA        -7.4807  -24.9255  -53.4249 C.3       20 UNK         0.1400 
    111 CB        -8.8198  -24.5475  -54.0997 C.3       20 UNK        -0.1800 
    112 C         -6.9824  -23.9140  -52.3689 C.2       20 UNK         0.5000 
    113 O         -5.9209  -24.1367  -51.7818 O.2       20 UNK        -0.5000 
    114 N         -7.7495  -22.8448  -52.1363 N.am      21 UNK        -0.5000 
    115 CA        -7.4410  -21.7608  -51.2107 C.3       21 UNK         0.1400 
    116 CB        -8.4930  -21.7570  -50.0890 C.3       21 UNK        -0.1800 
    117 C         -7.4651  -20.4244  -51.9672 C.2       21 UNK         0.5000 
    118 O         -8.1504  -20.3001  -52.9860 O.2       21 UNK        -0.5000 
    119 N         -6.7412  -19.4422  -51.4274 N.am      22 UNK        -0.5000 
    120 CA        -6.6497  -18.0654  -51.9390 C.3       22 UNK         0.1400 
    121 C         -7.8396  -17.1521  -51.5204 C.2       22 UNK         0.5000 
    122 N         -8.7354  -17.5799  -50.6387 N.am      22 UNK        -0.7600 
    123 O         -7.9585  -16.0340  -52.0140 O.2       22 UNK        -0.5000 
    124 C124       -5.2943  -17.4118  -51.5639 C.3       23 UNK        -0.0398 
    125 S125       -3.8761  -18.3247  -52.2644 S.3       23 UNK        -0.2404 
    126 C126       -2.6523  -16.9997  -52.5020 C.3       23 UNK        -0.0205 
    127 H127        5.2987  -16.1633  -47.1551 H         1 UNK         0.0600 
    128 H128        4.3701  -16.3160  -48.6488 H         1 UNK         0.0600 
    129 H129        4.0038  -17.3596  -47.2694 H         1 UNK         0.0600 
    130 H130        2.7413  -14.7877  -48.8904 H         1 UNK         0.3000 
    131 H131        0.9170  -14.1373  -46.8248 H         1 UNK         0.0600 
    132 H132        1.0790  -12.3320  -49.2463 H         1 UNK         0.0800 
    133 H133        0.7974  -13.9959  -49.5784 H         1 UNK         0.0800 
    134 H134       -2.7411  -14.6917  -47.9429 H         1 UNK         0.0800 
    135 H135       -1.2601  -15.0566  -47.1074 H         1 UNK         0.0800 
    136 H136       -3.0396  -15.3341  -50.3595 H         1 UNK         0.1150 
    137 H137       -0.3000  -18.2354  -51.9387 H         1 UNK         0.1150 
    138 H138        0.5019  -16.3539  -48.1778 H         1 UNK         0.1150 
    139 H139        2.0598  -18.0894  -50.9418 H         1 UNK         0.0800 
    140 H140        2.2547  -17.5941  -49.2832 H         1 UNK         0.0800 
    141 H141        0.6208  -18.6080  -47.4706 H         1 UNK         0.0800 
    142 H142        1.6160  -19.9725  -47.0737 H         1 UNK         0.0800 
    143 H143       -0.2607  -21.5095  -47.8170 H         1 UNK         0.0600 
    144 H144       -0.1582  -20.0087  -45.3916 H         1 UNK         0.3000 
    145 H145       -2.4627  -22.1325  -43.6265 H         1 UNK         0.0600 
    146 H146       -0.4912  -22.2048  -42.1467 H         1 UNK         0.0600 
    147 H147       -0.1708  -23.1495  -43.5929 H         1 UNK         0.0600 
    148 H148        0.5384  -21.5479  -43.4169 H         1 UNK         0.0600 
    149 H149       -1.1084  -19.7967  -42.7733 H         1 UNK         0.3000 
    150 H150       -3.6948  -17.4478  -43.6819 H         1 UNK         0.0600 
    151 H151       -4.2870  -18.5419  -41.5035 H         1 UNK         0.0600 
    152 H152       -3.4882  -16.9953  -41.2698 H         1 UNK         0.0600 
    153 H153       -2.5947  -18.4944  -41.0213 H         1 UNK         0.0600 
    154 H154       -1.2066  -16.9854  -42.4315 H         1 UNK         0.3000 
    155 H155        0.6956  -16.3772  -45.4430 H         1 UNK         0.0600 
    156 H156       -0.2459  -14.6944  -43.0583 H         1 UNK         0.0600 
    157 H157       -0.5196  -14.3014  -44.7505 H         1 UNK         0.0600 
    158 H158        1.1174  -14.3278  -44.1107 H         1 UNK         0.0600 
    159 H159        1.5629  -16.4108  -42.7616 H         1 UNK         0.3000 
    160 H160        2.4454  -19.8718  -42.5202 H         1 UNK         0.0600 
    161 H161        4.5576  -18.7379  -41.8553 H         1 UNK         0.0600 
    162 H162        4.0189  -17.2383  -42.6096 H         1 UNK         0.0600 
    163 H163        4.3324  -18.6574  -43.5962 H         1 UNK         0.0600 
    164 H164        2.4684  -17.6351  -40.6985 H         1 UNK         0.3000 
    165 H165       -0.6692  -18.3461  -39.1492 H         1 UNK         0.0600 
    166 H166        0.8001  -18.5007  -37.1618 H         1 UNK         0.0600 
    167 H167        0.9609  -19.9498  -38.1410 H         1 UNK         0.0600 
    168 H168        2.2188  -18.7201  -38.1865 H         1 UNK         0.0600 
    169 H169        1.3829  -16.4230  -38.6052 H         1 UNK         0.3000 
    170 H170        0.1423  -13.8450  -40.7297 H         1 UNK         0.0600 
    171 H171       -1.3161  -13.7779  -38.6964 H         1 UNK         0.0600 
    172 H172        0.0734  -14.1409  -37.6798 H         1 UNK         0.0600 
    173 H173        0.0058  -12.6278  -38.5841 H         1 UNK         0.0600 
    174 H174        2.2368  -13.6859  -38.9083 H         1 UNK         0.3000 
    175 H175        4.3291  -13.3663  -39.7887 H         1 UNK         0.0600 
    176 H176        4.8941  -16.3818  -39.9970 H         1 UNK         0.0600 
    177 H177        5.9516  -15.1860  -39.2472 H         1 UNK         0.0600 
    178 H178        4.3860  -15.5412  -38.5371 H         1 UNK         0.0600 
    179 H179        5.7102  -14.8958  -41.7698 H         1 UNK         0.3000 
    180 H180        6.5923  -12.7741  -43.6192 H         1 UNK         0.0600 
    181 H181        5.2157  -15.4530  -44.1581 H         1 UNK         0.0600 
    182 H182        6.7914  -15.1801  -43.4235 H         1 UNK         0.0600 
    183 H183        6.5536  -14.8359  -45.1232 H         1 UNK         0.0600 
    184 H184        4.3205  -13.3662  -45.4172 H         1 UNK         0.3000 
    185 H185        3.5015  -10.2227  -46.1617 H         1 UNK         0.0600 
    186 H186        5.6479   -9.5389  -47.1998 H         1 UNK         0.0600 
    187 H187        5.8197  -11.1176  -47.9574 H         1 UNK         0.0600 
    188 H188        4.5104  -10.0383  -48.4389 H         1 UNK         0.0600 
    189 H189        3.9149  -12.6757  -47.7723 H         1 UNK         0.3000 
    190 H190       -2.2663  -18.8032  -46.5964 H         1 UNK         0.3000 
    191 H191       -3.7103  -18.4403  -49.0453 H         1 UNK         0.0600 
    192 H192       -4.5282  -17.8237  -46.1587 H         1 UNK         0.0600 
    193 H193       -5.3418  -17.2333  -47.6037 H         1 UNK         0.0600 
    194 H194       -3.6960  -16.7290  -47.2570 H         1 UNK         0.0600 
    195 H195       -4.2641  -20.5156  -46.1622 H         1 UNK         0.3000 
    196 H196       -6.7978  -21.5232  -46.9992 H         1 UNK         0.0600 
    197 H197       -6.4335  -23.1601  -45.1410 H         1 UNK         0.0600 
    198 H198       -6.0770  -21.5152  -44.6368 H         1 UNK         0.0600 
    199 H199       -4.7608  -22.6308  -44.9972 H         1 UNK         0.0600 
    200 H200       -3.4746  -22.7323  -47.4957 H         1 UNK         0.3000 
    201 H201       -4.4958  -24.7901  -49.4190 H         1 UNK         0.0600 
    202 H202       -3.6923  -25.9249  -47.3673 H         1 UNK         0.0600 
    203 H203       -2.1829  -25.0179  -47.4124 H         1 UNK         0.0600 
    204 H204       -2.5515  -26.1834  -48.6802 H         1 UNK         0.0600 
    205 H205       -4.2682  -23.4455  -51.1640 H         1 UNK         0.3000 
    206 H206       -2.1516  -21.5821  -51.5739 H         1 UNK         0.0600 
    207 H207       -4.4427  -21.4116  -52.5797 H         1 UNK         0.0600 
    208 H208       -3.1989  -21.3550  -53.8180 H         1 UNK         0.0600 
    209 H209       -4.1110  -22.8357  -53.5631 H         1 UNK         0.0600 
    210 H210       -0.6735  -21.5442  -53.3857 H         1 UNK         0.3000 
    211 H211        1.1816  -23.6289  -53.4698 H         1 UNK         0.0600 
    212 H212        0.7145  -21.3327  -55.4514 H         1 UNK         0.0600 
    213 H213        2.1841  -22.2937  -55.3416 H         1 UNK         0.0600 
    214 H214        1.7146  -21.2626  -53.9994 H         1 UNK         0.0600 
    215 H215        1.6208  -25.2858  -54.8367 H         1 UNK         0.3000 
    216 H216        1.3042  -27.0355  -56.1347 H         1 UNK         0.0600 
    217 H217        0.5413  -26.7479  -58.4485 H         1 UNK         0.0600 
    218 H218        1.5250  -25.3650  -58.0017 H         1 UNK         0.0600 
    219 H219       -0.2311  -25.2175  -58.0643 H         1 UNK         0.0600 
    220 H220       -0.7869  -26.2511  -54.1086 H         1 UNK         0.3000 
    221 H221       -2.6057  -27.0079  -53.1521 H         1 UNK         0.0600 
    222 H222       -2.5571  -29.3858  -55.0815 H         1 UNK         0.0600 
    223 H223       -1.6420  -29.2843  -53.5775 H         1 UNK         0.0600 
    224 H224       -3.3965  -29.2985  -53.5404 H         1 UNK         0.0600 
    225 H225       -2.8299  -25.1090  -55.3282 H         1 UNK         0.3000 
    226 H226       -5.2267  -25.6322  -56.8501 H         1 UNK         0.0600 
    227 H227       -4.8263  -23.3372  -57.6893 H         1 UNK         0.0600 
    228 H228       -3.6153  -23.0627  -56.4409 H         1 UNK         0.0600 
    229 H229       -3.3326  -24.2610  -57.7017 H         1 UNK         0.0600 
    230 H230       -6.0935  -26.1569  -54.4398 H         1 UNK         0.3000 
    231 H231       -7.6403  -25.8611  -52.8873 H         1 UNK         0.0600 
    232 H232       -9.1257  -25.3149  -54.8108 H         1 UNK         0.0600 
    233 H233       -8.7576  -23.6035  -54.6420 H         1 UNK         0.0600 
    234 H234       -9.6211  -24.4592  -53.3650 H         1 UNK         0.0600 
    235 H235       -8.5541  -22.6864  -52.7270 H         1 UNK         0.3000 
    236 H236       -6.4499  -21.8976  -50.7726 H         1 UNK         0.0600 
    237 H237       -8.5240  -22.7180  -49.5758 H         1 UNK         0.0600 
    238 H238       -8.2636  -20.9984  -49.3401 H         1 UNK         0.0600 
    239 H239       -9.4931  -21.5524  -50.4732 H         1 UNK         0.0600 
    240 H240       -6.2410  -19.6300  -50.5584 H         1 UNK         0.3000 
    241 H241       -6.6928  -18.1141  -53.0288 H         1 UNK         0.0600 
    242 H242       -9.5043  -16.9812  -50.3810 H         1 UNK         0.3800 
    243 H243       -8.6501  -18.4944  -50.2262 H         1 UNK         0.3800 
    244 H244       -5.1823  -17.3526  -50.4812 H         1 UNK         0.0800 
    245 H245       -5.2604  -16.3845  -51.9298 H         1 UNK         0.0800 
    246 H246       -2.0282  -17.2591  -53.3585 H         1 UNK         0.0800 
    247 H247       -3.1417  -16.0616  -52.7667 H         1 UNK         0.0800 
@<TRIPOS>BOND
     1    1    2 1    
     2    1  127 1    
     3    1  128 1    
     4    1  129 1    
     5    2    3 2    
     6    2    4 am   BACKBONE|DICT|INTERRES
     7    4    5 1    
     8    4  130 1    
     9    5    6 1    
    10    5   65 1    
    11    5  131 1    
    12    6    7 1    
    13    6  132 1    
    14    6  133 1    
    15    7    8 1    
    16    8    9 1    
    17    8  134 1    
    18    8  135 1    
    19    9   10 ar   
    20    9   14 ar   
    21   10   11 ar   
    22   10  136 1    
    23   11   12 ar   
    24   11  126 1    
    25   12   13 ar   
    26   12  137 1    
    27   13   14 ar   
    28   13   15 1    
    29   14  138 1    
    30   15   16 1    
    31   15  139 1    
    32   15  140 1    
    33   16   17 1    
    34   17   18 1    
    35   17  141 1    
    36   17  142 1    
    37   18   19 1    
    38   18   67 1    
    39   18  143 1    
    40   19   20 am   BACKBONE|DICT|INTERRES
    41   19  144 1    
    42   20   21 2    
    43   20   22 1    
    44   22   23 1    
    45   22   24 1    
    46   22  145 1    
    47   23  146 1    
    48   23  147 1    
    49   23  148 1    
    50   24   25 am   BACKBONE|DICT|INTERRES
    51   24  149 1    
    52   25   26 2    
    53   25   27 1    
    54   27   28 1    
    55   27   29 1    
    56   27  150 1    
    57   28  151 1    
    58   28  152 1    
    59   28  153 1    
    60   29   30 am   BACKBONE|DICT|INTERRES
    61   29  154 1    
    62   30   31 2    
    63   30   32 1    
    64   32   33 1    
    65   32   34 1    
    66   32  155 1    
    67   33  156 1    
    68   33  157 1    
    69   33  158 1    
    70   34   35 am   BACKBONE|DICT|INTERRES
    71   34  159 1    
    72   35   36 2    
    73   35   37 1    
    74   37   38 1    
    75   37   39 1    
    76   37  160 1    
    77   38  161 1    
    78   38  162 1    
    79   38  163 1    
    80   39   40 am   BACKBONE|DICT|INTERRES
    81   39  164 1    
    82   40   41 2    
    83   40   42 1    
    84   42   43 1    
    85   42   44 1    
    86   42  165 1    
    87   43  166 1    
    88   43  167 1    
    89   43  168 1    
    90   44   45 am   BACKBONE|DICT|INTERRES
    91   44  169 1    
    92   45   46 2    
    93   45   47 1    
    94   47   48 1    
    95   47   49 1    
    96   47  170 1    
    97   48  171 1    
    98   48  172 1    
    99   48  173 1    
   100   49   50 am   BACKBONE|DICT|INTERRES
   101   49  174 1    
   102   50   51 2    
   103   50   52 1    
   104   52   53 1    
   105   52   54 1    
   106   52  175 1    
   107   53  176 1    
   108   53  177 1    
   109   53  178 1    
   110   54   55 am   BACKBONE|DICT|INTERRES
   111   54  179 1    
   112   55   56 2    
   113   55   57 1    
   114   57   58 1    
   115   57   59 1    
   116   57  180 1    
   117   58  181 1    
   118   58  182 1    
   119   58  183 1    
   120   59   60 am   BACKBONE|DICT|INTERRES
   121   59  184 1    
   122   60   61 2    
   123   60   62 1    
   124   62   63 1    
   125   62   64 1    
   126   62  185 1    
   127   63  186 1    
   128   63  187 1    
   129   63  188 1    
   130   64   65 am   BACKBONE|DICT|INTERRES
   131   64  189 1    
   132   65   66 2    
   133   67   68 2    
   134   67   69 am   BACKBONE|DICT|INTERRES
   135   69   70 1    
   136   69  190 1    
   137   70   71 1    
   138   70   72 1    
   139   70  191 1    
   140   71  192 1    
   141   71  193 1    
   142   71  194 1    
   143   72   73 2    
   144   72   74 am   BACKBONE|DICT|INTERRES
   145   74   75 1    
   146   74  195 1    
   147   75   76 1    
   148   75   77 1    
   149   75  196 1    
   150   76  197 1    
   151   76  198 1    
   152   76  199 1    
   153   77   78 2    
   154   77   79 am   BACKBONE|DICT|INTERRES
   155   79   80 1    
   156   79  200 1    
   157   80   81 1    
   158   80   82 1    
   159   80  201 1    
   160   81  202 1    
   161   81  203 1    
   162   81  204 1    
   163   82   83 2    
   164   82   84 am   BACKBONE|DICT|INTERRES
   165   84   85 1    
   166   84  205 1    
   167   85   86 1    
   168   85   87 1    
   169   85  206 1    
   170   86  207 1    
   171   86  208 1    
   172   86  209 1    
   173   87   88 2    
   174   87   89 am   BACKBONE|DICT|INTERRES
   175   89   90 1    
   176   89  210 1    
   177   90   91 1    
   178   90   92 1    
   179   90  211 1    
   180   91  212 1    
   181   91  213 1    
   182   91  214 1    
   183   92   93 2    
   184   92   94 am   BACKBONE|DICT|INTERRES
   185   94   95 1    
   186   94  215 1    
   187   95   96 1    
   188   95   97 1    
   189   95  216 1    
   190   96  217 1    
   191   96  218 1    
   192   96  219 1    
   193   97   98 2    
   194   97   99 am   BACKBONE|DICT|INTERRES
   195   99  100 1    
   196   99  220 1    
   197  100  101 1    
   198  100  102 1    
   199  100  221 1    
   200  101  222 1    
   201  101  223 1    
   202  101  224 1    
   203  102  103 2    
   204  102  104 am   BACKBONE|DICT|INTERRES
   205  104  105 1    
   206  104  225 1    
   207  105  106 1    
   208  105  107 1    
   209  105  226 1    
   210  106  227 1    
   211  106  228 1    
   212  106  229 1    
   213  107  108 2    
   214  107  109 am   BACKBONE|DICT|INTERRES
   215  109  110 1    
   216  109  230 1    
   217  110  111 1    
   218  110  112 1    
   219  110  231 1    
   220  111  232 1    
   221  111  233 1    
   222  111  234 1    
   223  112  113 2    
   224  112  114 am   BACKBONE|DICT|INTERRES
   225  114  115 1    
   226  114  235 1    
   227  115  116 1    
   228  115  117 1    
   229  115  236 1    
   230  116  237 1    
   231  116  238 1    
   232  116  239 1    
   233  117  118 2    
   234  117  119 am   BACKBONE|DICT|INTERRES
   235  119  120 1    
   236  119  240 1    
   237  120  121 1    
   238  120  124 1    
   239  120  241 1    
   240  121  122 am   BACKBONE|DICT|INTERRES
   241  121  123 2    
   242  122  242 1    
   243  122  243 1    
   244  124  125 1    
   245  124  244 1    
   246  124  245 1    
   247  125  126 1    
   248  126  246 1    
   249  126  247 1    
@<TRIPOS>SUBSTRUCTURE
     1 UNK         1 GROUP             0       ****    0 ROOT    
