@<TRIPOS>MOLECULE
3R540
247   249    1
SMALL
USER_CHARGES


@<TRIPOS>ATOM
      1 CA          5.2077  -16.3587  -49.5326 C.3       0 UNK        -0.1800 
      2 C           4.3097  -15.8315  -48.4232 C.2       0 UNK         0.5000 
      3 O           4.1962  -16.4617  -47.3731 O.2       0 UNK        -0.5000 
      4 N           3.6729  -14.6760  -48.6458 N.am      1 UNK        -0.5000 
      5 CA          2.7055  -14.0385  -47.7435 C.3       1 UNK         0.1400 
      6 C6          1.7094  -13.1126  -48.5039 C.3       23 UNK        -0.0398 
      7 S7          1.0888  -13.7838  -50.0866 S.3       23 UNK        -0.2404 
      8 C8         -0.0569  -15.0893  -49.5520 C.3       23 UNK        -0.0205 
      9 C9          0.0454  -16.2830  -50.4875 C.ar      23 UNK        -0.0193 
     10 C10        -0.7020  -16.3267  -51.6689 C.ar      23 UNK        -0.1150 
     11 C11        -0.5820  -17.4109  -52.5445 C.ar      23 UNK        -0.0193 
     12 C12         0.2901  -18.4559  -52.2278 C.ar      23 UNK        -0.1150 
     13 C13         1.0337  -18.4292  -51.0437 C.ar      23 UNK        -0.0193 
     14 C14         0.9093  -17.3373  -50.1803 C.ar      23 UNK        -0.1150 
     15 C15         1.9531  -19.5875  -50.6746 C.3       23 UNK        -0.0205 
     16 S16         1.1203  -21.2120  -50.7162 S.3       23 UNK        -0.2404 
     17 C17        -0.4341  -20.8985  -49.8108 C.3       23 UNK        -0.0398 
     18 CA         -0.5583  -21.7426  -48.5271 C.3       11 UNK         0.1400 
     19 N           0.4351  -21.3631  -47.5222 N.am      11 UNK        -0.5000 
     20 C           0.6767  -22.0124  -46.3792 C.2       10 UNK         0.5000 
     21 O           0.0722  -23.0282  -46.0355 O.2       10 UNK        -0.5000 
     22 CA          1.7299  -21.3987  -45.4432 C.3       10 UNK         0.1400 
     23 CB          3.1584  -21.6548  -45.9568 C.3       10 UNK        -0.1800 
     24 N           1.5094  -19.9779  -45.1506 N.am      10 UNK        -0.5000 
     25 C           1.5981  -18.9052  -45.9519 C.2       9 UNK         0.5000 
     26 O           1.8208  -18.9648  -47.1602 O.2       9 UNK        -0.5000 
     27 CA          1.3868  -17.5299  -45.2869 C.3       9 UNK         0.1400 
     28 CB         -0.0710  -17.0729  -45.4441 C.3       9 UNK        -0.1800 
     29 N           1.7394  -17.5256  -43.8658 N.am      9 UNK        -0.5000 
     30 C           2.9842  -17.6849  -43.3918 C.2       8 UNK         0.5000 
     31 O           3.9889  -17.7477  -44.0985 O.2       8 UNK        -0.5000 
     32 CA          3.1191  -17.8513  -41.8710 C.3       8 UNK         0.1400 
     33 CB          3.0525  -16.4899  -41.1658 C.3       8 UNK        -0.1800 
     34 N           2.0812  -18.7389  -41.3436 N.am      8 UNK        -0.5000 
     35 C           2.1079  -20.0759  -41.4499 C.2       7 UNK         0.5000 
     36 O           3.0398  -20.7020  -41.9541 O.2       7 UNK        -0.5000 
     37 CA          0.8866  -20.8500  -40.9188 C.3       7 UNK         0.1400 
     38 CB          1.1193  -21.2931  -39.4668 C.3       7 UNK        -0.1800 
     39 N          -0.3527  -20.0765  -40.9885 N.am      7 UNK        -0.5000 
     40 C          -1.0271  -19.8245  -42.1176 C.2       6 UNK         0.5000 
     41 O          -0.6971  -20.2467  -43.2262 O.2       6 UNK        -0.5000 
     42 CA         -2.2655  -18.9209  -41.9868 C.3       6 UNK         0.1400 
     43 CB         -3.5174  -19.7610  -41.6951 C.3       6 UNK        -0.1800 
     44 N          -2.1335  -17.8613  -40.9840 N.am      6 UNK        -0.5000 
     45 C          -1.2224  -16.8819  -41.0460 C.2       5 UNK         0.5000 
     46 O          -0.3093  -16.8493  -41.8747 O.2       5 UNK        -0.5000 
     47 CA         -1.3330  -15.7654  -39.9936 C.3       5 UNK         0.1400 
     48 CB         -0.2789  -15.9566  -38.8926 C.3       5 UNK        -0.1800 
     49 N          -1.1581  -14.4476  -40.6026 N.am      5 UNK        -0.5000 
     50 C          -1.9989  -13.8932  -41.4886 C.2       4 UNK         0.5000 
     51 O          -3.0758  -14.3964  -41.8124 O.2       4 UNK        -0.5000 
     52 CA         -1.5823  -12.5449  -42.1123 C.3       4 UNK         0.1400 
     53 CB         -2.3751  -11.3916  -41.4770 C.3       4 UNK        -0.1800 
     54 N          -0.1505  -12.2549  -41.9922 N.am      4 UNK        -0.5000 
     55 C           0.8127  -12.8718  -42.6876 C.2       3 UNK         0.5000 
     56 O           0.6001  -13.7474  -43.5312 O.2       3 UNK        -0.5000 
     57 CA          2.2529  -12.4377  -42.3781 C.3       3 UNK         0.1400 
     58 CB          2.6427  -12.7436  -40.9174 C.3       3 UNK        -0.1800 
     59 N           3.1451  -13.1202  -43.3073 N.am      3 UNK        -0.5000 
     60 C           4.3927  -12.7528  -43.6130 C.2       2 UNK         0.5000 
     61 O           4.9890  -11.8265  -43.0617 O.2       2 UNK        -0.5000 
     62 CA          5.0914  -13.5359  -44.7414 C.3       2 UNK         0.1400 
     63 CB          5.9052  -14.7010  -44.1598 C.3       2 UNK        -0.1800 
     64 N           4.1898  -14.0492  -45.7792 N.am      2 UNK        -0.5000 
     65 C           3.4348  -13.2989  -46.5949 C.2       1 UNK         0.5000 
     66 O           3.3503  -12.0734  -46.4964 O.2       1 UNK        -0.5000 
     67 C          -1.9996  -21.6609  -47.9901 C.2       11 UNK         0.5000 
     68 O          -2.8619  -22.3844  -48.4838 O.2       11 UNK        -0.5000 
     69 N          -2.2467  -20.7946  -47.0003 N.am      12 UNK        -0.5000 
     70 CA         -3.5331  -20.6822  -46.3170 C.3       12 UNK         0.1400 
     71 CB         -3.5793  -19.3575  -45.5494 C.3       12 UNK        -0.1800 
     72 C          -3.8052  -21.8847  -45.3965 C.2       12 UNK         0.5000 
     73 O          -4.9192  -22.4074  -45.4039 O.2       12 UNK        -0.5000 
     74 N          -2.7765  -22.3343  -44.6624 N.am      13 UNK        -0.5000 
     75 CA         -2.8281  -23.5356  -43.8252 C.3       13 UNK         0.1400 
     76 CB         -1.6156  -23.5631  -42.8817 C.3       13 UNK        -0.1800 
     77 C          -2.9082  -24.8299  -44.6572 C.2       13 UNK         0.5000 
     78 O          -3.6404  -25.7476  -44.2860 O.2       13 UNK        -0.5000 
     79 N          -2.1778  -24.8680  -45.7805 N.am      14 UNK        -0.5000 
     80 CA         -2.1690  -25.9793  -46.7365 C.3       14 UNK         0.1400 
     81 CB         -0.9091  -25.8659  -47.6089 C.3       14 UNK        -0.1800 
     82 C          -3.4274  -26.0472  -47.6284 C.2       14 UNK         0.5000 
     83 O          -3.6308  -27.0607  -48.2968 O.2       14 UNK        -0.5000 
     84 N          -4.2209  -24.9654  -47.6490 N.am      15 UNK        -0.5000 
     85 CA         -5.4155  -24.7267  -48.4704 C.3       15 UNK         0.1400 
     86 CB         -6.5084  -25.7831  -48.2110 C.3       15 UNK        -0.1800 
     87 C          -5.1207  -24.5368  -49.9750 C.2       15 UNK         0.5000 
     88 O          -6.0504  -24.5053  -50.7811 O.2       15 UNK        -0.5000 
     89 N          -3.8455  -24.3383  -50.3301 N.am      16 UNK        -0.5000 
     90 CA         -3.3861  -23.9814  -51.6716 C.3       16 UNK         0.1400 
     91 CB         -1.8584  -24.1222  -51.7348 C.3       16 UNK        -0.1800 
     92 C          -3.8255  -22.5632  -52.0820 C.2       16 UNK         0.5000 
     93 O          -4.1014  -22.3277  -53.2580 O.2       16 UNK        -0.5000 
     94 N          -3.9286  -21.6508  -51.1046 N.am      17 UNK        -0.5000 
     95 CA         -4.4570  -20.3000  -51.3056 C.3       17 UNK         0.1400 
     96 CB         -4.1121  -19.4167  -50.0982 C.3       17 UNK        -0.1800 
     97 C          -5.9755  -20.3106  -51.5619 C.2       17 UNK         0.5000 
     98 O          -6.4534  -19.5407  -52.3939 O.2       17 UNK        -0.5000 
     99 N          -6.6970  -21.2163  -50.8839 N.am      18 UNK        -0.5000 
    100 CA        -8.1306  -21.4536  -51.0778 C.3       18 UNK         0.1400 
    101 CB        -8.6782  -22.2874  -49.9091 C.3       18 UNK        -0.1800 
    102 C         -8.4303  -22.1293  -52.4297 C.2       18 UNK         0.5000 
    103 O         -9.4294  -21.7987  -53.0685 O.2       18 UNK        -0.5000 
    104 N         -7.5296  -23.0224  -52.8641 N.am      19 UNK        -0.5000 
    105 CA        -7.5241  -23.6461  -54.1905 C.3       19 UNK         0.1400 
    106 CB        -6.6109  -24.8814  -54.1518 C.3       19 UNK        -0.1800 
    107 C         -7.0893  -22.6887  -55.3231 C.2       19 UNK         0.5000 
    108 O         -7.2170  -23.0515  -56.4930 O.2       19 UNK        -0.5000 
    109 N         -6.5916  -21.4973  -54.9587 N.am      20 UNK        -0.5000 
    110 CA        -6.1185  -20.4134  -55.8201 C.3       20 UNK         0.1400 
    111 CB        -7.2705  -19.8386  -56.6708 C.3       20 UNK        -0.1800 
    112 C         -4.8825  -20.8095  -56.6503 C.2       20 UNK         0.5000 
    113 O         -4.8438  -20.5707  -57.8591 O.2       20 UNK        -0.5000 
    114 N         -3.8721  -21.3813  -55.9776 N.am      21 UNK        -0.5000 
    115 CA        -2.5917  -21.8080  -56.5589 C.3       21 UNK         0.1400 
    116 CB        -1.7391  -22.4696  -55.4653 C.3       21 UNK        -0.1800 
    117 C         -1.7903  -20.6896  -57.2615 C.2       21 UNK         0.5000 
    118 O         -0.9958  -20.9886  -58.1542 O.2       21 UNK        -0.5000 
    119 N         -2.0299  -19.4304  -56.8722 N.am      22 UNK        -0.5000 
    120 CA        -1.5230  -18.2285  -57.5557 C.3       22 UNK         0.1400 
    121 C         -2.2302  -17.9093  -58.9091 C.2       22 UNK         0.5000 
    122 N         -3.3238  -18.5656  -59.2795 N.am      22 UNK        -0.7600 
    123 O         -1.7670  -17.0465  -59.6502 O.2       22 UNK        -0.5000 
    124 C124       -1.5413  -16.9896  -56.6228 C.3       23 UNK        -0.0398 
    125 S125       -0.3245  -17.1082  -55.2695 S.3       23 UNK        -0.2404 
    126 C126       -1.3861  -17.4565  -53.8346 C.3       23 UNK        -0.0205 
    127 H127        5.2180  -15.6933  -50.3963 H         1 UNK         0.0600 
    128 H128        6.2302  -16.4640  -49.1701 H         1 UNK         0.0600 
    129 H129        4.8575  -17.3373  -49.8615 H         1 UNK         0.0600 
    130 H130        3.8161  -14.1973  -49.5236 H         1 UNK         0.3000 
    131 H131        2.1129  -14.8277  -47.2771 H         1 UNK         0.0600 
    132 H132        0.8601  -12.8639  -47.8653 H         1 UNK         0.0800 
    133 H133        2.1846  -12.1627  -48.7552 H         1 UNK         0.0800 
    134 H134        0.1631  -15.3993  -48.5299 H         1 UNK         0.0800 
    135 H135       -1.0753  -14.6981  -49.5430 H         1 UNK         0.0800 
    136 H136       -1.3650  -15.5082  -51.9119 H         1 UNK         0.1150 
    137 H137        0.3842  -19.2960  -52.9018 H         1 UNK         0.1150 
    138 H138        1.4868  -17.3054  -49.2666 H         1 UNK         0.1150 
    139 H139        2.3801  -19.4420  -49.6819 H         1 UNK         0.0800 
    140 H140        2.7943  -19.6046  -51.3684 H         1 UNK         0.0800 
    141 H141       -1.2432  -21.1199  -50.5076 H         1 UNK         0.0800 
    142 H142       -0.5384  -19.8425  -49.5621 H         1 UNK         0.0800 
    143 H143       -0.3761  -22.7860  -48.7875 H         1 UNK         0.0600 
    144 H144        0.9709  -20.5157  -47.6976 H         1 UNK         0.3000 
    145 H145        1.6311  -21.9110  -44.4847 H         1 UNK         0.0600 
    146 H146        3.9000  -21.2761  -45.2530 H         1 UNK         0.0600 
    147 H147        3.3410  -22.7229  -46.0799 H         1 UNK         0.0600 
    148 H148        3.3395  -21.1801  -46.9216 H         1 UNK         0.0600 
    149 H149        1.2006  -19.8000  -44.2034 H         1 UNK         0.3000 
    150 H150        2.0299  -16.8126  -45.7985 H         1 UNK         0.0600 
    151 H151       -0.7564  -17.7341  -44.9134 H         1 UNK         0.0600 
    152 H152       -0.3684  -17.0594  -46.4935 H         1 UNK         0.0600 
    153 H153       -0.2107  -16.0652  -45.0517 H         1 UNK         0.0600 
    154 H154        0.9760  -17.4121  -43.2038 H         1 UNK         0.3000 
    155 H155        4.0970  -18.2907  -41.6622 H         1 UNK         0.0600 
    156 H156        2.1120  -15.9789  -41.3697 H         1 UNK         0.0600 
    157 H157        3.8577  -15.8370  -41.5051 H         1 UNK         0.0600 
    158 H158        3.1529  -16.5969  -40.0858 H         1 UNK         0.0600 
    159 H159        1.2513  -18.2952  -40.9769 H         1 UNK         0.3000 
    160 H160        0.7702  -21.7455  -41.5335 H         1 UNK         0.0600 
    161 H161        1.2291  -20.4392  -38.7971 H         1 UNK         0.0600 
    162 H162        2.0251  -21.8952  -39.3828 H         1 UNK         0.0600 
    163 H163        0.2913  -21.9019  -39.1032 H         1 UNK         0.0600 
    164 H164       -0.7021  -19.6918  -40.1231 H         1 UNK         0.3000 
    165 H165       -2.4048  -18.4169  -42.9423 H         1 UNK         0.0600 
    166 H166       -4.4179  -19.1469  -41.7138 H         1 UNK         0.0600 
    167 H167       -3.4595  -20.2451  -40.7195 H         1 UNK         0.0600 
    168 H168       -3.6463  -20.5450  -42.4424 H         1 UNK         0.0600 
    169 H169       -2.8436  -17.8284  -40.2666 H         1 UNK         0.3000 
    170 H170       -2.3244  -15.8009  -39.5371 H         1 UNK         0.0600 
    171 H171       -0.3852  -16.9306  -38.4132 H         1 UNK         0.0600 
    172 H172        0.7352  -15.8940  -39.2877 H         1 UNK         0.0600 
    173 H173       -0.3812  -15.2001  -38.1144 H         1 UNK         0.0600 
    174 H174       -0.2879  -13.9747  -40.4153 H         1 UNK         0.3000 
    175 H175       -1.8350  -12.5873  -43.1740 H         1 UNK         0.0600 
    176 H176       -2.1559  -11.2905  -40.4133 H         1 UNK         0.0600 
    177 H177       -2.1460  -10.4415  -41.9601 H         1 UNK         0.0600 
    178 H178       -3.4493  -11.5534  -41.5766 H         1 UNK         0.0600 
    179 H179        0.1058  -11.5409  -41.3254 H         1 UNK         0.3000 
    180 H180        2.3224  -11.3625  -42.5552 H         1 UNK         0.0600 
    181 H181        2.4982  -13.7933  -40.6696 H         1 UNK         0.0600 
    182 H182        2.0421  -12.1601  -40.2192 H         1 UNK         0.0600 
    183 H183        3.6854  -12.4961  -40.7193 H         1 UNK         0.0600 
    184 H184        2.6960  -13.8562  -43.8388 H         1 UNK         0.3000 
    185 H185        5.7867  -12.8494  -45.2287 H         1 UNK         0.0600 
    186 H186        6.4504  -15.2329  -44.9399 H         1 UNK         0.0600 
    187 H187        6.6386  -14.3426  -43.4363 H         1 UNK         0.0600 
    188 H188        5.2655  -15.4194  -43.6479 H         1 UNK         0.0600 
    189 H189        4.2411  -15.0445  -45.9773 H         1 UNK         0.3000 
    190 H190       -1.4867  -20.2320  -46.6486 H         1 UNK         0.3000 
    191 H191       -4.3298  -20.6645  -47.0624 H         1 UNK         0.0600 
    192 H192       -4.4614  -19.2932  -44.9108 H         1 UNK         0.0600 
    193 H193       -3.6064  -18.5095  -46.2339 H         1 UNK         0.0600 
    194 H194       -2.6984  -19.2476  -44.9228 H         1 UNK         0.0600 
    195 H195       -1.8883  -21.8535  -44.7077 H         1 UNK         0.3000 
    196 H196       -3.7294  -23.4844  -43.2105 H         1 UNK         0.0600 
    197 H197       -0.6738  -23.5065  -43.4284 H         1 UNK         0.0600 
    198 H198       -1.6474  -22.7312  -42.1794 H         1 UNK         0.0600 
    199 H199       -1.5989  -24.4800  -42.2913 H         1 UNK         0.0600 
    200 H200       -1.5352  -24.1024  -45.9653 H         1 UNK         0.3000 
    201 H201       -2.1129  -26.9153  -46.1770 H         1 UNK         0.0600 
    202 H202       -0.9273  -24.9662  -48.2228 H         1 UNK         0.0600 
    203 H203       -0.8201  -26.7194  -48.2822 H         1 UNK         0.0600 
    204 H204       -0.0059  -25.8380  -46.9989 H         1 UNK         0.0600 
    205 H205       -3.9357  -24.1800  -47.0799 H         1 UNK         0.3000 
    206 H206       -5.8091  -23.7680  -48.1297 H         1 UNK         0.0600 
    207 H207       -6.7037  -25.8944  -47.1444 H         1 UNK         0.0600 
    208 H208       -7.4485  -25.4963  -48.6835 H         1 UNK         0.0600 
    209 H209       -6.2334  -26.7604  -48.6076 H         1 UNK         0.0600 
    210 H210       -3.1648  -24.2805  -49.5856 H         1 UNK         0.3000 
    211 H211       -3.8229  -24.6855  -52.3816 H         1 UNK         0.0600 
    212 H212       -1.4775  -23.8476  -52.7189 H         1 UNK         0.0600 
    213 H213       -1.5518  -25.1508  -51.5441 H         1 UNK         0.0600 
    214 H214       -1.3622  -23.4870  -51.0023 H         1 UNK         0.0600 
    215 H215       -3.6809  -21.9228  -50.1579 H         1 UNK         0.3000 
    216 H216       -3.9729  -19.8699  -52.1853 H         1 UNK         0.0600 
    217 H217       -4.5631  -19.7958  -49.1823 H         1 UNK         0.0600 
    218 H218       -4.4765  -18.3991  -50.2448 H         1 UNK         0.0600 
    219 H219       -3.0353  -19.3527  -49.9462 H         1 UNK         0.0600 
    220 H220       -6.2196  -21.8286  -50.2411 H         1 UNK         0.3000 
    221 H221       -8.6387  -20.4869  -51.0698 H         1 UNK         0.0600 
    222 H222       -8.5004  -21.7933  -48.9537 H         1 UNK         0.0600 
    223 H223       -8.2232  -23.2766  -49.8655 H         1 UNK         0.0600 
    224 H224       -9.7553  -22.4289  -50.0056 H         1 UNK         0.0600 
    225 H225       -6.7891  -23.3071  -52.2319 H         1 UNK         0.3000 
    226 H226       -8.5392  -23.9792  -54.4157 H         1 UNK         0.0600 
    227 H227       -5.5704  -24.6035  -53.9866 H         1 UNK         0.0600 
    228 H228       -6.9062  -25.5691  -53.3591 H         1 UNK         0.0600 
    229 H229       -6.6563  -25.4309  -55.0927 H         1 UNK         0.0600 
    230 H230       -6.5107  -21.3196  -53.9673 H         1 UNK         0.3000 
    231 H231       -5.7867  -19.6196  -55.1496 H         1 UNK         0.0600 
    232 H232       -7.6313  -20.5561  -57.4082 H         1 UNK         0.0600 
    233 H233       -6.9477  -18.9492  -57.2131 H         1 UNK         0.0600 
    234 H234       -8.1141  -19.5477  -56.0447 H         1 UNK         0.0600 
    235 H235       -4.0045  -21.5973  -54.9917 H         1 UNK         0.3000 
    236 H236       -2.8166  -22.5616  -57.3160 H         1 UNK         0.0600 
    237 H237       -2.2371  -23.3512  -55.0618 H         1 UNK         0.0600 
    238 H238       -0.7755  -22.7957  -55.8589 H         1 UNK         0.0600 
    239 H239       -1.5433  -21.7847  -54.6392 H         1 UNK         0.0600 
    240 H240       -2.6994  -19.2801  -56.1343 H         1 UNK         0.3000 
    241 H241       -0.4810  -18.4197  -57.8201 H         1 UNK         0.0600 
    242 H242       -3.7529  -18.3395  -60.1626 H         1 UNK         0.3800 
    243 H243       -3.7386  -19.2911  -58.7009 H         1 UNK         0.3800 
    244 H244       -2.5422  -16.8221  -56.2222 H         1 UNK         0.0800 
    245 H245       -1.2889  -16.0848  -57.1789 H         1 UNK         0.0800 
    246 H246       -2.2021  -16.7331  -53.7982 H         1 UNK         0.0800 
    247 H247       -1.8431  -18.4407  -53.9474 H         1 UNK         0.0800 
@<TRIPOS>BOND
     1    1    2 1    
     2    1  127 1    
     3    1  128 1    
     4    1  129 1    
     5    2    3 2    
     6    2    4 am   BACKBONE|DICT|INTERRES
     7    4    5 1    
     8    4  130 1    
     9    5    6 1    
    10    5   65 1    
    11    5  131 1    
    12    6    7 1    
    13    6  132 1    
    14    6  133 1    
    15    7    8 1    
    16    8    9 1    
    17    8  134 1    
    18    8  135 1    
    19    9   10 ar   
    20    9   14 ar   
    21   10   11 ar   
    22   10  136 1    
    23   11   12 ar   
    24   11  126 1    
    25   12   13 ar   
    26   12  137 1    
    27   13   14 ar   
    28   13   15 1    
    29   14  138 1    
    30   15   16 1    
    31   15  139 1    
    32   15  140 1    
    33   16   17 1    
    34   17   18 1    
    35   17  141 1    
    36   17  142 1    
    37   18   19 1    
    38   18   67 1    
    39   18  143 1    
    40   19   20 am   BACKBONE|DICT|INTERRES
    41   19  144 1    
    42   20   21 2    
    43   20   22 1    
    44   22   23 1    
    45   22   24 1    
    46   22  145 1    
    47   23  146 1    
    48   23  147 1    
    49   23  148 1    
    50   24   25 am   BACKBONE|DICT|INTERRES
    51   24  149 1    
    52   25   26 2    
    53   25   27 1    
    54   27   28 1    
    55   27   29 1    
    56   27  150 1    
    57   28  151 1    
    58   28  152 1    
    59   28  153 1    
    60   29   30 am   BACKBONE|DICT|INTERRES
    61   29  154 1    
    62   30   31 2    
    63   30   32 1    
    64   32   33 1    
    65   32   34 1    
    66   32  155 1    
    67   33  156 1    
    68   33  157 1    
    69   33  158 1    
    70   34   35 am   BACKBONE|DICT|INTERRES
    71   34  159 1    
    72   35   36 2    
    73   35   37 1    
    74   37   38 1    
    75   37   39 1    
    76   37  160 1    
    77   38  161 1    
    78   38  162 1    
    79   38  163 1    
    80   39   40 am   BACKBONE|DICT|INTERRES
    81   39  164 1    
    82   40   41 2    
    83   40   42 1    
    84   42   43 1    
    85   42   44 1    
    86   42  165 1    
    87   43  166 1    
    88   43  167 1    
    89   43  168 1    
    90   44   45 am   BACKBONE|DICT|INTERRES
    91   44  169 1    
    92   45   46 2    
    93   45   47 1    
    94   47   48 1    
    95   47   49 1    
    96   47  170 1    
    97   48  171 1    
    98   48  172 1    
    99   48  173 1    
   100   49   50 am   BACKBONE|DICT|INTERRES
   101   49  174 1    
   102   50   51 2    
   103   50   52 1    
   104   52   53 1    
   105   52   54 1    
   106   52  175 1    
   107   53  176 1    
   108   53  177 1    
   109   53  178 1    
   110   54   55 am   BACKBONE|DICT|INTERRES
   111   54  179 1    
   112   55   56 2    
   113   55   57 1    
   114   57   58 1    
   115   57   59 1    
   116   57  180 1    
   117   58  181 1    
   118   58  182 1    
   119   58  183 1    
   120   59   60 am   BACKBONE|DICT|INTERRES
   121   59  184 1    
   122   60   61 2    
   123   60   62 1    
   124   62   63 1    
   125   62   64 1    
   126   62  185 1    
   127   63  186 1    
   128   63  187 1    
   129   63  188 1    
   130   64   65 am   BACKBONE|DICT|INTERRES
   131   64  189 1    
   132   65   66 2    
   133   67   68 2    
   134   67   69 am   BACKBONE|DICT|INTERRES
   135   69   70 1    
   136   69  190 1    
   137   70   71 1    
   138   70   72 1    
   139   70  191 1    
   140   71  192 1    
   141   71  193 1    
   142   71  194 1    
   143   72   73 2    
   144   72   74 am   BACKBONE|DICT|INTERRES
   145   74   75 1    
   146   74  195 1    
   147   75   76 1    
   148   75   77 1    
   149   75  196 1    
   150   76  197 1    
   151   76  198 1    
   152   76  199 1    
   153   77   78 2    
   154   77   79 am   BACKBONE|DICT|INTERRES
   155   79   80 1    
   156   79  200 1    
   157   80   81 1    
   158   80   82 1    
   159   80  201 1    
   160   81  202 1    
   161   81  203 1    
   162   81  204 1    
   163   82   83 2    
   164   82   84 am   BACKBONE|DICT|INTERRES
   165   84   85 1    
   166   84  205 1    
   167   85   86 1    
   168   85   87 1    
   169   85  206 1    
   170   86  207 1    
   171   86  208 1    
   172   86  209 1    
   173   87   88 2    
   174   87   89 am   BACKBONE|DICT|INTERRES
   175   89   90 1    
   176   89  210 1    
   177   90   91 1    
   178   90   92 1    
   179   90  211 1    
   180   91  212 1    
   181   91  213 1    
   182   91  214 1    
   183   92   93 2    
   184   92   94 am   BACKBONE|DICT|INTERRES
   185   94   95 1    
   186   94  215 1    
   187   95   96 1    
   188   95   97 1    
   189   95  216 1    
   190   96  217 1    
   191   96  218 1    
   192   96  219 1    
   193   97   98 2    
   194   97   99 am   BACKBONE|DICT|INTERRES
   195   99  100 1    
   196   99  220 1    
   197  100  101 1    
   198  100  102 1    
   199  100  221 1    
   200  101  222 1    
   201  101  223 1    
   202  101  224 1    
   203  102  103 2    
   204  102  104 am   BACKBONE|DICT|INTERRES
   205  104  105 1    
   206  104  225 1    
   207  105  106 1    
   208  105  107 1    
   209  105  226 1    
   210  106  227 1    
   211  106  228 1    
   212  106  229 1    
   213  107  108 2    
   214  107  109 am   BACKBONE|DICT|INTERRES
   215  109  110 1    
   216  109  230 1    
   217  110  111 1    
   218  110  112 1    
   219  110  231 1    
   220  111  232 1    
   221  111  233 1    
   222  111  234 1    
   223  112  113 2    
   224  112  114 am   BACKBONE|DICT|INTERRES
   225  114  115 1    
   226  114  235 1    
   227  115  116 1    
   228  115  117 1    
   229  115  236 1    
   230  116  237 1    
   231  116  238 1    
   232  116  239 1    
   233  117  118 2    
   234  117  119 am   BACKBONE|DICT|INTERRES
   235  119  120 1    
   236  119  240 1    
   237  120  121 1    
   238  120  124 1    
   239  120  241 1    
   240  121  122 am   BACKBONE|DICT|INTERRES
   241  121  123 2    
   242  122  242 1    
   243  122  243 1    
   244  124  125 1    
   245  124  244 1    
   246  124  245 1    
   247  125  126 1    
   248  126  246 1    
   249  126  247 1    
@<TRIPOS>SUBSTRUCTURE
     1 UNK         1 GROUP             0       ****    0 ROOT    
