@<TRIPOS>MOLECULE
3R540
247   249    1
SMALL
USER_CHARGES


@<TRIPOS>ATOM
      1 CA         -3.2500  -13.1471  -48.2401 C.3       0 UNK        -0.1800 
      2 C          -2.2676  -13.9089  -47.3641 C.2       0 UNK         0.5000 
      3 O          -2.2925  -13.7641  -46.1416 O.2       0 UNK        -0.5000 
      4 N          -1.4152  -14.7418  -47.9759 N.am      1 UNK        -0.5000 
      5 CA         -0.3636  -15.5196  -47.3047 C.3       1 UNK         0.1400 
      6 C6          0.5422  -16.2699  -48.3036 C.3       23 UNK        -0.0398 
      7 S7          1.3729  -15.1935  -49.5245 S.3       23 UNK        -0.2404 
      8 C8          0.9140  -15.9552  -51.1290 C.3       23 UNK        -0.0205 
      9 C9          1.0889  -17.4740  -51.2241 C.ar      23 UNK        -0.0193 
     10 C10         0.3068  -18.1899  -52.1355 C.ar      23 UNK        -0.1150 
     11 C11         0.3782  -19.5843  -52.2158 C.ar      23 UNK        -0.0193 
     12 C12         1.2241  -20.2673  -51.3301 C.ar      23 UNK        -0.1150 
     13 C13         2.0278  -19.5701  -50.4233 C.ar      23 UNK        -0.0193 
     14 C14         1.9882  -18.1739  -50.4127 C.ar      23 UNK        -0.1150 
     15 C15         2.9373  -20.3386  -49.4673 C.3       23 UNK        -0.0205 
     16 S16         3.0241  -19.6397  -47.7787 S.3       23 UNK        -0.2404 
     17 C17         1.2941  -19.7637  -47.2025 C.3       23 UNK        -0.0398 
     18 CA          0.9581  -21.1506  -46.6080 C.3       11 UNK         0.1400 
     19 N           1.8564  -21.5224  -45.5098 N.am      11 UNK        -0.5000 
     20 C           2.1065  -22.7823  -45.1294 C.2       10 UNK         0.5000 
     21 O           1.4415  -23.7454  -45.5119 O.2       10 UNK        -0.5000 
     22 CA          3.2924  -23.0048  -44.1759 C.3       10 UNK         0.1400 
     23 CB          4.6224  -22.9041  -44.9396 C.3       10 UNK        -0.1800 
     24 N           3.2845  -22.0254  -43.0920 N.am      10 UNK        -0.5000 
     25 C           3.2276  -22.3243  -41.7865 C.2       9 UNK         0.5000 
     26 O           3.3179  -23.4688  -41.3399 O.2       9 UNK        -0.5000 
     27 CA          2.9989  -21.1524  -40.8044 C.3       9 UNK         0.1400 
     28 CB          4.3363  -20.6679  -40.2242 C.3       9 UNK        -0.1800 
     29 N           2.3016  -20.0063  -41.3928 N.am      9 UNK        -0.5000 
     30 C           1.1132  -20.0474  -42.0111 C.2       8 UNK         0.5000 
     31 O           0.4081  -21.0528  -42.0652 O.2       8 UNK        -0.5000 
     32 CA          0.6652  -18.7802  -42.7585 C.3       8 UNK         0.1400 
     33 CB         -0.3745  -18.0173  -41.9279 C.3       8 UNK        -0.1800 
     34 N           1.7526  -17.8697  -43.1302 N.am      8 UNK        -0.5000 
     35 C           2.8155  -18.1649  -43.8936 C.2       7 UNK         0.5000 
     36 O           3.0728  -19.3016  -44.2940 O.2       7 UNK        -0.5000 
     37 CA          3.7688  -17.0095  -44.2361 C.3       7 UNK         0.1400 
     38 CB          3.2744  -16.2450  -45.4723 C.3       7 UNK        -0.1800 
     39 N           3.8935  -16.0777  -43.1164 N.am      7 UNK        -0.5000 
     40 C           4.9063  -16.0719  -42.2401 C.2       6 UNK         0.5000 
     41 O           5.8713  -16.8344  -42.3033 O.2       6 UNK        -0.5000 
     42 CA          4.8381  -15.0412  -41.0952 C.3       6 UNK         0.1400 
     43 CB          5.5828  -13.7557  -41.4866 C.3       6 UNK        -0.1800 
     44 N           3.4731  -14.6960  -40.6951 N.am      6 UNK        -0.5000 
     45 C           2.6208  -15.5340  -40.0903 C.2       5 UNK         0.5000 
     46 O           2.8995  -16.6947  -39.7869 O.2       5 UNK        -0.5000 
     47 CA          1.2094  -14.9908  -39.7909 C.3       5 UNK         0.1400 
     48 CB          1.1819  -14.3233  -38.4075 C.3       5 UNK        -0.1800 
     49 N           0.6532  -14.0576  -40.7801 N.am      5 UNK        -0.5000 
     50 C           0.5822  -14.2427  -42.1057 C.2       4 UNK         0.5000 
     51 O           1.1407  -15.1624  -42.7038 O.2       4 UNK        -0.5000 
     52 CA         -0.2745  -13.2395  -42.8981 C.3       4 UNK         0.1400 
     53 CB          0.4703  -12.7390  -44.1462 C.3       4 UNK        -0.1800 
     54 N          -1.5423  -13.8427  -43.3097 N.am      4 UNK        -0.5000 
     55 C          -2.5299  -14.2137  -42.4812 C.2       3 UNK         0.5000 
     56 O          -2.4979  -14.0437  -41.2619 O.2       3 UNK        -0.5000 
     57 CA         -3.7643  -14.8804  -43.1122 C.3       3 UNK         0.1400 
     58 CB         -4.7577  -13.8157  -43.6038 C.3       3 UNK        -0.1800 
     59 N          -3.3945  -15.7449  -44.2325 N.am      3 UNK        -0.5000 
     60 C          -3.3029  -17.0815  -44.1716 C.2       2 UNK         0.5000 
     61 O          -3.5702  -17.7387  -43.1658 O.2       2 UNK        -0.5000 
     62 CA         -2.8437  -17.8229  -45.4442 C.3       2 UNK         0.1400 
     63 CB         -4.0337  -18.4945  -46.1475 C.3       2 UNK        -0.1800 
     64 N          -2.1610  -16.9501  -46.3988 N.am      2 UNK        -0.5000 
     65 C          -0.9003  -16.5204  -46.2576 C.2       1 UNK         0.5000 
     66 O          -0.1657  -16.8818  -45.3440 O.2       1 UNK        -0.5000 
     67 C          -0.5430  -21.2625  -46.2710 C.2       11 UNK         0.5000 
     68 O          -1.3564  -21.1704  -47.1883 O.2       11 UNK        -0.5000 
     69 N          -0.9121  -21.5144  -45.0051 N.am      12 UNK        -0.5000 
     70 CA         -2.2953  -21.8282  -44.6202 C.3       12 UNK         0.1400 
     71 CB         -2.4565  -21.7190  -43.0984 C.3       12 UNK        -0.1800 
     72 C          -2.7748  -23.2069  -45.1245 C.2       12 UNK         0.5000 
     73 O          -3.9780  -23.4662  -45.1096 O.2       12 UNK        -0.5000 
     74 N          -1.8412  -24.0595  -45.5750 N.am      13 UNK        -0.5000 
     75 CA         -2.1262  -25.3296  -46.2434 C.3       13 UNK         0.1400 
     76 CB         -0.8496  -26.1843  -46.2495 C.3       13 UNK        -0.1800 
     77 C          -2.6638  -25.1549  -47.6801 C.2       13 UNK         0.5000 
     78 O          -3.2719  -26.0878  -48.2072 O.2       13 UNK        -0.5000 
     79 N          -2.4331  -23.9842  -48.2934 N.am      14 UNK        -0.5000 
     80 CA         -2.9706  -23.6178  -49.6027 C.3       14 UNK         0.1400 
     81 CB         -2.1526  -22.4416  -50.1633 C.3       14 UNK        -0.1800 
     82 C          -4.4587  -23.2349  -49.5061 C.2       14 UNK         0.5000 
     83 O          -4.9266  -22.8414  -48.4349 O.2       14 UNK        -0.5000 
     84 N          -5.1678  -23.3109  -50.6392 N.am      15 UNK        -0.5000 
     85 CA         -6.5646  -22.9046  -50.8106 C.3       15 UNK         0.1400 
     86 CB         -7.0594  -23.4212  -52.1729 C.3       15 UNK        -0.1800 
     87 C          -6.7362  -21.3771  -50.6766 C.2       15 UNK         0.5000 
     88 O          -6.7818  -20.6678  -51.6827 O.2       15 UNK        -0.5000 
     89 N          -6.7467  -20.8931  -49.4256 N.am      16 UNK        -0.5000 
     90 CA         -6.8443  -19.4889  -48.9985 C.3       16 UNK         0.1400 
     91 CB         -8.2354  -18.9201  -49.3455 C.3       16 UNK        -0.1800 
     92 C          -5.7004  -18.5919  -49.5247 C.2       16 UNK         0.5000 
     93 O          -5.8486  -17.3700  -49.5625 O.2       16 UNK        -0.5000 
     94 N          -4.5917  -19.2234  -49.9412 N.am      17 UNK        -0.5000 
     95 CA         -3.4479  -18.6476  -50.6541 C.3       17 UNK         0.1400 
     96 CB         -2.6493  -17.7001  -49.7409 C.3       17 UNK        -0.1800 
     97 C          -3.8097  -18.0138  -52.0172 C.2       17 UNK         0.5000 
     98 O          -3.0651  -17.1652  -52.5103 O.2       17 UNK        -0.5000 
     99 N          -4.9256  -18.4463  -52.6244 N.am      18 UNK        -0.5000 
    100 CA        -5.3405  -18.0447  -53.9652 C.3       18 UNK         0.1400 
    101 CB        -6.8289  -18.3752  -54.1618 C.3       18 UNK        -0.1800 
    102 C         -4.4644  -18.7722  -54.9944 C.2       18 UNK         0.5000 
    103 O         -4.6205  -19.9812  -55.1703 O.2       18 UNK        -0.5000 
    104 N         -3.5399  -18.0381  -55.6265 N.am      19 UNK        -0.5000 
    105 CA        -2.4791  -18.5553  -56.5002 C.3       19 UNK         0.1400 
    106 CB        -1.5773  -17.3886  -56.9296 C.3       19 UNK        -0.1800 
    107 C         -2.9547  -19.3554  -57.7294 C.2       19 UNK         0.5000 
    108 O         -2.1836  -20.1541  -58.2616 O.2       19 UNK        -0.5000 
    109 N         -4.2133  -19.1531  -58.1409 N.am      20 UNK        -0.5000 
    110 CA        -4.8841  -19.9164  -59.1944 C.3       20 UNK         0.1400 
    111 CB        -6.2021  -19.2118  -59.5515 C.3       20 UNK        -0.1800 
    112 C         -5.1475  -21.3906  -58.8184 C.2       20 UNK         0.5000 
    113 O         -5.2893  -22.2189  -59.7191 O.2       20 UNK        -0.5000 
    114 N         -5.2118  -21.6897  -57.5139 N.am      21 UNK        -0.5000 
    115 CA        -5.4144  -23.0297  -56.9666 C.3       21 UNK         0.1400 
    116 CB        -6.6946  -23.0387  -56.1136 C.3       21 UNK        -0.1800 
    117 C         -4.1949  -23.4598  -56.1373 C.2       21 UNK         0.5000 
    118 O         -3.6165  -24.5130  -56.4075 O.2       21 UNK        -0.5000 
    119 N         -3.8214  -22.6228  -55.1610 N.am      22 UNK        -0.5000 
    120 CA        -2.7396  -22.8190  -54.1895 C.3       22 UNK         0.1400 
    121 C         -2.8571  -24.1512  -53.3838 C.2       22 UNK         0.5000 
    122 N         -1.7699  -24.8538  -53.0973 N.am      22 UNK        -0.7600 
    123 O         -3.9430  -24.5137  -52.9395 O.2       22 UNK        -0.5000 
    124 C124       -1.3474  -22.5102  -54.8070 C.3       23 UNK        -0.0398 
    125 S125       -0.0964  -22.0520  -53.5565 S.3       23 UNK        -0.2404 
    126 C126       -0.4894  -20.2918  -53.2606 C.3       23 UNK        -0.0205 
    127 H127       -3.0993  -12.0740  -48.1245 H         1 UNK         0.0600 
    128 H128       -4.2730  -13.3827  -47.9468 H         1 UNK         0.0600 
    129 H129       -3.1316  -13.3975  -49.2946 H         1 UNK         0.0600 
    130 H130       -1.4256  -14.8047  -48.9836 H         1 UNK         0.3000 
    131 H131        0.2608  -14.8067  -46.7640 H         1 UNK         0.0600 
    132 H132       -0.0312  -17.0403  -48.8155 H         1 UNK         0.0800 
    133 H133        1.3313  -16.7985  -47.7683 H         1 UNK         0.0800 
    134 H134        1.5082  -15.4889  -51.9157 H         1 UNK         0.0800 
    135 H135       -0.1257  -15.6968  -51.3361 H         1 UNK         0.0800 
    136 H136       -0.3729  -17.6555  -52.7852 H         1 UNK         0.1150 
    137 H137        1.2724  -21.3459  -51.3422 H         1 UNK         0.1150 
    138 H138        2.6298  -17.6366  -49.7306 H         1 UNK         0.1150 
    139 H139        2.6201  -21.3798  -49.3929 H         1 UNK         0.0800 
    140 H140        3.9432  -20.3534  -49.8881 H         1 UNK         0.0800 
    141 H141        0.6270  -19.5214  -48.0314 H         1 UNK         0.0800 
    142 H142        1.1367  -18.9898  -46.4505 H         1 UNK         0.0800 
    143 H143        1.1206  -21.8769  -47.4075 H         1 UNK         0.0600 
    144 H144        2.4306  -20.7649  -45.1461 H         1 UNK         0.3000 
    145 H145        3.2018  -24.0190  -43.7815 H         1 UNK         0.0600 
    146 H146        5.4666  -23.1272  -44.2872 H         1 UNK         0.0600 
    147 H147        4.6532  -23.6141  -45.7671 H         1 UNK         0.0600 
    148 H148        4.7753  -21.9068  -45.3549 H         1 UNK         0.0600 
    149 H149        3.2066  -21.0510  -43.3651 H         1 UNK         0.3000 
    150 H150        2.3811  -21.5272  -39.9861 H         1 UNK         0.0600 
    151 H151        4.8767  -21.4872  -39.7483 H         1 UNK         0.0600 
    152 H152        4.1827  -19.8976  -39.4680 H         1 UNK         0.0600 
    153 H153        4.9825  -20.2530  -40.9991 H         1 UNK         0.0600 
    154 H154        2.7994  -19.1272  -41.3954 H         1 UNK         0.3000 
    155 H155        0.1885  -19.1017  -43.6861 H         1 UNK         0.0600 
    156 H156        0.0418  -17.6905  -40.9765 H         1 UNK         0.0600 
    157 H157       -1.2389  -18.6449  -41.7087 H         1 UNK         0.0600 
    158 H158       -0.7402  -17.1391  -42.4598 H         1 UNK         0.0600 
    159 H159        1.5882  -16.8893  -42.9113 H         1 UNK         0.3000 
    160 H160        4.7406  -17.4435  -44.4802 H         1 UNK         0.0600 
    161 H161        2.3011  -15.7845  -45.3004 H         1 UNK         0.0600 
    162 H162        3.1818  -16.9132  -46.3280 H         1 UNK         0.0600 
    163 H163        3.9720  -15.4555  -45.7516 H         1 UNK         0.0600 
    164 H164        3.1018  -15.4646  -42.9538 H         1 UNK         0.3000 
    165 H165        5.3427  -15.4775  -40.2305 H         1 UNK         0.0600 
    166 H166        5.6136  -13.0489  -40.6572 H         1 UNK         0.0600 
    167 H167        6.6149  -13.9717  -41.7662 H         1 UNK         0.0600 
    168 H168        5.1099  -13.2594  -42.3351 H         1 UNK         0.0600 
    169 H169        3.1536  -13.7641  -40.9148 H         1 UNK         0.3000 
    170 H170        0.5367  -15.8477  -39.7546 H         1 UNK         0.0600 
    171 H171        1.5651  -14.9965  -37.6391 H         1 UNK         0.0600 
    172 H172        1.7913  -13.4190  -38.3856 H         1 UNK         0.0600 
    173 H173        0.1661  -14.0515  -38.1198 H         1 UNK         0.0600 
    174 H174        0.1439  -13.2762  -40.3929 H         1 UNK         0.3000 
    175 H175       -0.4932  -12.3770  -42.2654 H         1 UNK         0.0600 
    176 H176        0.7106  -13.5559  -44.8265 H         1 UNK         0.0600 
    177 H177       -0.1261  -12.0112  -44.6968 H         1 UNK         0.0600 
    178 H178        1.4080  -12.2540  -43.8728 H         1 UNK         0.0600 
    179 H179       -1.6731  -13.9731  -44.3073 H         1 UNK         0.3000 
    180 H180       -4.2602  -15.4632  -42.3331 H         1 UNK         0.0600 
    181 H181       -4.3248  -13.1839  -44.3803 H         1 UNK         0.0600 
    182 H182       -5.0675  -13.1643  -42.7857 H         1 UNK         0.0600 
    183 H183       -5.6577  -14.2766  -44.0110 H         1 UNK         0.0600 
    184 H184       -3.1183  -15.2713  -45.0849 H         1 UNK         0.3000 
    185 H185       -2.1513  -18.6069  -45.1293 H         1 UNK         0.0600 
    186 H186       -4.5845  -19.1380  -45.4603 H         1 UNK         0.0600 
    187 H187       -4.7355  -17.7592  -46.5429 H         1 UNK         0.0600 
    188 H188       -3.6975  -19.1211  -46.9741 H         1 UNK         0.0600 
    189 H189       -2.7075  -16.6011  -47.1718 H         1 UNK         0.3000 
    190 H190       -0.2066  -21.5972  -44.2844 H         1 UNK         0.3000 
    191 H191       -2.9504  -21.0826  -45.0746 H         1 UNK         0.0600 
    192 H192       -2.2057  -20.7182  -42.7475 H         1 UNK         0.0600 
    193 H193       -1.8227  -22.4353  -42.5747 H         1 UNK         0.0600 
    194 H194       -3.4869  -21.9139  -42.7986 H         1 UNK         0.0600 
    195 H195       -0.8669  -23.7889  -45.5237 H         1 UNK         0.3000 
    196 H196       -2.8883  -25.8590  -45.6679 H         1 UNK         0.0600 
    197 H197       -1.0373  -27.1645  -46.6896 H         1 UNK         0.0600 
    198 H198       -0.4779  -26.3479  -45.2378 H         1 UNK         0.0600 
    199 H199       -0.0535  -25.7124  -46.8268 H         1 UNK         0.0600 
    200 H200       -1.9924  -23.2382  -47.7715 H         1 UNK         0.3000 
    201 H201       -2.8688  -24.4710  -50.2761 H         1 UNK         0.0600 
    202 H202       -1.0929  -22.6889  -50.2301 H         1 UNK         0.0600 
    203 H203       -2.2517  -21.5494  -49.5461 H         1 UNK         0.0600 
    204 H204       -2.4845  -22.1720  -51.1640 H         1 UNK         0.0600 
    205 H205       -4.7168  -23.6812  -51.4734 H         1 UNK         0.3000 
    206 H206       -7.1639  -23.3812  -50.0321 H         1 UNK         0.0600 
    207 H207       -7.0147  -24.5093  -52.2218 H         1 UNK         0.0600 
    208 H208       -8.0946  -23.1284  -52.3525 H         1 UNK         0.0600 
    209 H209       -6.4580  -23.0277  -52.9932 H         1 UNK         0.0600 
    210 H210       -6.5659  -21.5599  -48.6822 H         1 UNK         0.3000 
    211 H211       -6.7474  -19.4931  -47.9119 H         1 UNK         0.0600 
    212 H212       -8.3745  -18.8221  -50.4228 H         1 UNK         0.0600 
    213 H213       -8.3772  -17.9318  -48.9068 H         1 UNK         0.0600 
    214 H214       -9.0301  -19.5597  -48.9614 H         1 UNK         0.0600 
    215 H215       -4.5869  -20.2284  -49.8479 H         1 UNK         0.3000 
    216 H216       -2.7918  -19.4843  -50.8953 H         1 UNK         0.0600 
    217 H217       -1.7827  -17.2974  -50.2626 H         1 UNK         0.0600 
    218 H218       -2.2796  -18.2338  -48.8661 H         1 UNK         0.0600 
    219 H219       -3.2473  -16.8538  -49.4041 H         1 UNK         0.0600 
    220 H220       -5.4860  -19.1694  -52.1844 H         1 UNK         0.3000 
    221 H221       -5.2145  -16.9653  -54.0733 H         1 UNK         0.0600 
    222 H222       -7.0230  -19.4457  -54.0835 H         1 UNK         0.0600 
    223 H223       -7.4454  -17.8710  -53.4174 H         1 UNK         0.0600 
    224 H224       -7.1726  -18.0520  -55.1450 H         1 UNK         0.0600 
    225 H225       -3.4765  -17.0565  -55.3965 H         1 UNK         0.3000 
    226 H226       -1.8804  -19.2412  -55.9009 H         1 UNK         0.0600 
    227 H227       -1.1356  -16.8924  -56.0650 H         1 UNK         0.0600 
    228 H228       -0.7549  -17.7373  -57.5558 H         1 UNK         0.0600 
    229 H229       -2.1315  -16.6425  -57.5003 H         1 UNK         0.0600 
    230 H230       -4.7715  -18.4728  -57.6469 H         1 UNK         0.3000 
    231 H231       -4.2424  -19.9122  -60.0780 H         1 UNK         0.0600 
    232 H232       -6.0252  -18.1910  -59.8908 H         1 UNK         0.0600 
    233 H233       -6.8801  -19.1707  -58.6980 H         1 UNK         0.0600 
    234 H234       -6.7195  -19.7351  -60.3568 H         1 UNK         0.0600 
    235 H235       -5.0437  -20.9519  -56.8377 H         1 UNK         0.3000 
    236 H236       -5.5392  -23.7626  -57.7664 H         1 UNK         0.0600 
    237 H237       -6.8359  -24.0045  -55.6266 H         1 UNK         0.0600 
    238 H238       -6.6689  -22.2759  -55.3344 H         1 UNK         0.0600 
    239 H239       -7.5745  -22.8524  -56.7295 H         1 UNK         0.0600 
    240 H240       -4.3322  -21.7495  -55.0537 H         1 UNK         0.3000 
    241 H241       -2.9373  -22.0450  -53.4493 H         1 UNK         0.0600 
    242 H242       -1.8587  -25.7066  -52.5685 H         1 UNK         0.3800 
    243 H243       -0.8574  -24.5425  -53.3929 H         1 UNK         0.3800 
    244 H244       -0.9866  -23.3608  -55.3872 H         1 UNK         0.0800 
    245 H245       -1.4254  -21.6860  -55.5172 H         1 UNK         0.0800 
    246 H246       -0.3834  -19.7622  -54.2074 H         1 UNK         0.0800 
    247 H247       -1.5339  -20.1996  -52.9637 H         1 UNK         0.0800 
@<TRIPOS>BOND
     1    1    2 1    
     2    1  127 1    
     3    1  128 1    
     4    1  129 1    
     5    2    3 2    
     6    2    4 am   BACKBONE|DICT|INTERRES
     7    4    5 1    
     8    4  130 1    
     9    5    6 1    
    10    5   65 1    
    11    5  131 1    
    12    6    7 1    
    13    6  132 1    
    14    6  133 1    
    15    7    8 1    
    16    8    9 1    
    17    8  134 1    
    18    8  135 1    
    19    9   10 ar   
    20    9   14 ar   
    21   10   11 ar   
    22   10  136 1    
    23   11   12 ar   
    24   11  126 1    
    25   12   13 ar   
    26   12  137 1    
    27   13   14 ar   
    28   13   15 1    
    29   14  138 1    
    30   15   16 1    
    31   15  139 1    
    32   15  140 1    
    33   16   17 1    
    34   17   18 1    
    35   17  141 1    
    36   17  142 1    
    37   18   19 1    
    38   18   67 1    
    39   18  143 1    
    40   19   20 am   BACKBONE|DICT|INTERRES
    41   19  144 1    
    42   20   21 2    
    43   20   22 1    
    44   22   23 1    
    45   22   24 1    
    46   22  145 1    
    47   23  146 1    
    48   23  147 1    
    49   23  148 1    
    50   24   25 am   BACKBONE|DICT|INTERRES
    51   24  149 1    
    52   25   26 2    
    53   25   27 1    
    54   27   28 1    
    55   27   29 1    
    56   27  150 1    
    57   28  151 1    
    58   28  152 1    
    59   28  153 1    
    60   29   30 am   BACKBONE|DICT|INTERRES
    61   29  154 1    
    62   30   31 2    
    63   30   32 1    
    64   32   33 1    
    65   32   34 1    
    66   32  155 1    
    67   33  156 1    
    68   33  157 1    
    69   33  158 1    
    70   34   35 am   BACKBONE|DICT|INTERRES
    71   34  159 1    
    72   35   36 2    
    73   35   37 1    
    74   37   38 1    
    75   37   39 1    
    76   37  160 1    
    77   38  161 1    
    78   38  162 1    
    79   38  163 1    
    80   39   40 am   BACKBONE|DICT|INTERRES
    81   39  164 1    
    82   40   41 2    
    83   40   42 1    
    84   42   43 1    
    85   42   44 1    
    86   42  165 1    
    87   43  166 1    
    88   43  167 1    
    89   43  168 1    
    90   44   45 am   BACKBONE|DICT|INTERRES
    91   44  169 1    
    92   45   46 2    
    93   45   47 1    
    94   47   48 1    
    95   47   49 1    
    96   47  170 1    
    97   48  171 1    
    98   48  172 1    
    99   48  173 1    
   100   49   50 am   BACKBONE|DICT|INTERRES
   101   49  174 1    
   102   50   51 2    
   103   50   52 1    
   104   52   53 1    
   105   52   54 1    
   106   52  175 1    
   107   53  176 1    
   108   53  177 1    
   109   53  178 1    
   110   54   55 am   BACKBONE|DICT|INTERRES
   111   54  179 1    
   112   55   56 2    
   113   55   57 1    
   114   57   58 1    
   115   57   59 1    
   116   57  180 1    
   117   58  181 1    
   118   58  182 1    
   119   58  183 1    
   120   59   60 am   BACKBONE|DICT|INTERRES
   121   59  184 1    
   122   60   61 2    
   123   60   62 1    
   124   62   63 1    
   125   62   64 1    
   126   62  185 1    
   127   63  186 1    
   128   63  187 1    
   129   63  188 1    
   130   64   65 am   BACKBONE|DICT|INTERRES
   131   64  189 1    
   132   65   66 2    
   133   67   68 2    
   134   67   69 am   BACKBONE|DICT|INTERRES
   135   69   70 1    
   136   69  190 1    
   137   70   71 1    
   138   70   72 1    
   139   70  191 1    
   140   71  192 1    
   141   71  193 1    
   142   71  194 1    
   143   72   73 2    
   144   72   74 am   BACKBONE|DICT|INTERRES
   145   74   75 1    
   146   74  195 1    
   147   75   76 1    
   148   75   77 1    
   149   75  196 1    
   150   76  197 1    
   151   76  198 1    
   152   76  199 1    
   153   77   78 2    
   154   77   79 am   BACKBONE|DICT|INTERRES
   155   79   80 1    
   156   79  200 1    
   157   80   81 1    
   158   80   82 1    
   159   80  201 1    
   160   81  202 1    
   161   81  203 1    
   162   81  204 1    
   163   82   83 2    
   164   82   84 am   BACKBONE|DICT|INTERRES
   165   84   85 1    
   166   84  205 1    
   167   85   86 1    
   168   85   87 1    
   169   85  206 1    
   170   86  207 1    
   171   86  208 1    
   172   86  209 1    
   173   87   88 2    
   174   87   89 am   BACKBONE|DICT|INTERRES
   175   89   90 1    
   176   89  210 1    
   177   90   91 1    
   178   90   92 1    
   179   90  211 1    
   180   91  212 1    
   181   91  213 1    
   182   91  214 1    
   183   92   93 2    
   184   92   94 am   BACKBONE|DICT|INTERRES
   185   94   95 1    
   186   94  215 1    
   187   95   96 1    
   188   95   97 1    
   189   95  216 1    
   190   96  217 1    
   191   96  218 1    
   192   96  219 1    
   193   97   98 2    
   194   97   99 am   BACKBONE|DICT|INTERRES
   195   99  100 1    
   196   99  220 1    
   197  100  101 1    
   198  100  102 1    
   199  100  221 1    
   200  101  222 1    
   201  101  223 1    
   202  101  224 1    
   203  102  103 2    
   204  102  104 am   BACKBONE|DICT|INTERRES
   205  104  105 1    
   206  104  225 1    
   207  105  106 1    
   208  105  107 1    
   209  105  226 1    
   210  106  227 1    
   211  106  228 1    
   212  106  229 1    
   213  107  108 2    
   214  107  109 am   BACKBONE|DICT|INTERRES
   215  109  110 1    
   216  109  230 1    
   217  110  111 1    
   218  110  112 1    
   219  110  231 1    
   220  111  232 1    
   221  111  233 1    
   222  111  234 1    
   223  112  113 2    
   224  112  114 am   BACKBONE|DICT|INTERRES
   225  114  115 1    
   226  114  235 1    
   227  115  116 1    
   228  115  117 1    
   229  115  236 1    
   230  116  237 1    
   231  116  238 1    
   232  116  239 1    
   233  117  118 2    
   234  117  119 am   BACKBONE|DICT|INTERRES
   235  119  120 1    
   236  119  240 1    
   237  120  121 1    
   238  120  124 1    
   239  120  241 1    
   240  121  122 am   BACKBONE|DICT|INTERRES
   241  121  123 2    
   242  122  242 1    
   243  122  243 1    
   244  124  125 1    
   245  124  244 1    
   246  124  245 1    
   247  125  126 1    
   248  126  246 1    
   249  126  247 1    
@<TRIPOS>SUBSTRUCTURE
     1 UNK         1 GROUP             0       ****    0 ROOT    
