@<TRIPOS>MOLECULE
3R540
247   249    1
SMALL
USER_CHARGES


@<TRIPOS>ATOM
      1 CA         -0.7096  -13.1803  -47.0360 C.3       0 UNK        -0.1800 
      2 C          -0.9466  -13.0758  -45.5323 C.2       0 UNK         0.5000 
      3 O          -0.0955  -13.5014  -44.7584 O.2       0 UNK        -0.5000 
      4 N          -2.0662  -12.5263  -45.0437 N.am      1 UNK        -0.5000 
      5 CA         -3.2191  -11.9256  -45.7336 C.3       1 UNK         0.1400 
      6 C6         -4.1890  -12.9818  -46.3450 C.3       23 UNK        -0.0398 
      7 S7         -4.6755  -14.3153  -45.1938 S.3       23 UNK        -0.2404 
      8 C8         -3.5841  -15.6877  -45.6976 C.3       23 UNK        -0.0205 
      9 C9         -4.1215  -16.4718  -46.8859 C.ar      23 UNK        -0.0193 
     10 C10        -3.8338  -16.0738  -48.1953 C.ar      23 UNK        -0.1150 
     11 C11        -4.3340  -16.7927  -49.2843 C.ar      23 UNK        -0.0193 
     12 C12        -5.1009  -17.9379  -49.0570 C.ar      23 UNK        -0.1150 
     13 C13        -5.3611  -18.3712  -47.7536 C.ar      23 UNK        -0.0193 
     14 C14        -4.8809  -17.6254  -46.6731 C.ar      23 UNK        -0.1150 
     15 C15        -6.1500  -19.6499  -47.5083 C.3       23 UNK        -0.0205 
     16 S16        -5.2084  -21.1411  -47.9677 S.3       23 UNK        -0.2404 
     17 C17        -3.6761  -20.9312  -46.9956 C.3       23 UNK        -0.0398 
     18 CA         -2.9487  -22.2768  -46.7603 C.3       11 UNK         0.1400 
     19 N          -1.4905  -22.1317  -46.7325 N.am      11 UNK        -0.5000 
     20 C          -0.6367  -23.1578  -46.8527 C.2       10 UNK         0.5000 
     21 O          -0.9971  -24.3210  -47.0220 O.2       10 UNK        -0.5000 
     22 CA          0.8650  -22.8523  -46.7212 C.3       10 UNK         0.1400 
     23 CB          1.4345  -22.3162  -48.0416 C.3       10 UNK        -0.1800 
     24 N           1.1595  -21.9217  -45.6316 N.am      10 UNK        -0.5000 
     25 C           0.9298  -22.1851  -44.3370 C.2       9 UNK         0.5000 
     26 O           0.4853  -23.2578  -43.9288 O.2       9 UNK        -0.5000 
     27 CA          1.1927  -21.0474  -43.3344 C.3       9 UNK         0.1400 
     28 CB          2.6921  -20.9252  -43.0254 C.3       9 UNK        -0.1800 
     29 N           0.6817  -19.7583  -43.7984 N.am      9 UNK        -0.5000 
     30 C          -0.6082  -19.4866  -44.0423 C.2       8 UNK         0.5000 
     31 O          -1.5258  -20.2860  -43.8606 O.2       8 UNK        -0.5000 
     32 CA         -0.9162  -18.1100  -44.6565 C.3       8 UNK         0.1400 
     33 CB         -0.8972  -17.0083  -43.5854 C.3       8 UNK        -0.1800 
     34 N           0.0075  -17.7714  -45.7401 N.am      8 UNK        -0.5000 
     35 C           0.1085  -18.4683  -46.8815 C.2       7 UNK         0.5000 
     36 O          -0.5918  -19.4437  -47.1461 O.2       7 UNK        -0.5000 
     37 CA          1.2155  -18.0446  -47.8598 C.3       7 UNK         0.1400 
     38 CB          0.7507  -16.8751  -48.7382 C.3       7 UNK        -0.1800 
     39 N           2.4493  -17.6887  -47.1580 N.am      7 UNK        -0.5000 
     40 C           3.2492  -18.5861  -46.5605 C.2       6 UNK         0.5000 
     41 O           3.0450  -19.7998  -46.5825 O.2       6 UNK        -0.5000 
     42 CA          4.4501  -18.0399  -45.7619 C.3       6 UNK         0.1400 
     43 CB          5.6612  -17.8311  -46.6825 C.3       6 UNK        -0.1800 
     44 N           4.1514  -16.7881  -45.0656 N.am      6 UNK        -0.5000 
     45 C           3.2009  -16.6448  -44.1329 C.2       5 UNK         0.5000 
     46 O           2.5532  -17.5881  -43.6800 O.2       5 UNK        -0.5000 
     47 CA          2.8807  -15.2180  -43.6477 C.3       5 UNK         0.1400 
     48 CB          3.4843  -14.9794  -42.2560 C.3       5 UNK        -0.1800 
     49 N           3.2947  -14.1248  -44.5338 N.am      5 UNK        -0.5000 
     50 C           2.9674  -13.9516  -45.8214 C.2       4 UNK         0.5000 
     51 O           2.3982  -14.8067  -46.5031 O.2       4 UNK        -0.5000 
     52 CA          3.3454  -12.5847  -46.4340 C.3       4 UNK         0.1400 
     53 CB          3.0119  -12.4899  -47.9334 C.3       4 UNK        -0.1800 
     54 N           2.7114  -11.4616  -45.7335 N.am      4 UNK        -0.5000 
     55 C           3.0850  -10.9631  -44.5490 C.2       3 UNK         0.5000 
     56 O           4.0204  -11.4261  -43.8937 O.2       3 UNK        -0.5000 
     57 CA          2.3088   -9.7557  -43.9813 C.3       3 UNK         0.1400 
     58 CB          2.9303   -8.4325  -44.4682 C.3       3 UNK        -0.1800 
     59 N           0.8496   -9.7566  -44.1757 N.am      3 UNK        -0.5000 
     60 C           0.1490   -9.6413  -45.3112 C.2       2 UNK         0.5000 
     61 O           0.6561   -9.6281  -46.4356 O.2       2 UNK        -0.5000 
     62 CA         -1.3766   -9.4891  -45.1526 C.3       2 UNK         0.1400 
     63 CB         -1.7199   -8.0382  -44.7785 C.3       2 UNK        -0.1800 
     64 N          -2.0362   -9.7979  -46.4218 N.am      2 UNK        -0.5000 
     65 C          -2.8384  -10.8192  -46.7583 C.2       1 UNK         0.5000 
     66 O          -3.2644  -10.9052  -47.9094 O.2       1 UNK        -0.5000 
     67 C          -3.4835  -23.0205  -45.5183 C.2       11 UNK         0.5000 
     68 O          -4.3981  -23.8310  -45.6492 O.2       11 UNK        -0.5000 
     69 N          -2.8812  -22.7890  -44.3443 N.am      12 UNK        -0.5000 
     70 CA         -3.1845  -23.5318  -43.1193 C.3       12 UNK         0.1400 
     71 CB         -2.4900  -22.8624  -41.9237 C.3       12 UNK        -0.1800 
     72 C          -2.8001  -25.0223  -43.2155 C.2       12 UNK         0.5000 
     73 O          -3.5325  -25.8711  -42.7054 O.2       12 UNK        -0.5000 
     74 N          -1.6672  -25.3106  -43.8693 N.am      13 UNK        -0.5000 
     75 CA         -1.1411  -26.6588  -44.0600 C.3       13 UNK         0.1400 
     76 CB          0.3687  -26.5784  -44.3397 C.3       13 UNK        -0.1800 
     77 C          -1.8603  -27.4408  -45.1746 C.2       13 UNK         0.5000 
     78 O          -2.3125  -28.5601  -44.9290 O.2       13 UNK        -0.5000 
     79 N          -1.9086  -26.8664  -46.3836 N.am      14 UNK        -0.5000 
     80 CA         -2.2599  -27.5708  -47.6200 C.3       14 UNK         0.1400 
     81 CB         -1.1093  -27.3769  -48.6235 C.3       14 UNK        -0.1800 
     82 C          -3.5828  -27.1077  -48.2532 C.2       14 UNK         0.5000 
     83 O          -4.0716  -27.7941  -49.1524 O.2       14 UNK        -0.5000 
     84 N          -4.1339  -25.9697  -47.8044 N.am      15 UNK        -0.5000 
     85 CA         -5.3011  -25.2853  -48.3773 C.3       15 UNK         0.1400 
     86 CB         -6.5885  -26.1090  -48.1470 C.3       15 UNK        -0.1800 
     87 C          -5.0609  -24.8715  -49.8456 C.2       15 UNK         0.5000 
     88 O          -3.9415  -24.4779  -50.1842 O.2       15 UNK        -0.5000 
     89 N          -6.1110  -24.9400  -50.6785 N.am      16 UNK        -0.5000 
     90 CA         -6.1075  -24.7227  -52.1312 C.3       16 UNK         0.1400 
     91 CB         -5.4194  -25.9114  -52.8342 C.3       16 UNK        -0.1800 
     92 C          -5.5224  -23.3598  -52.5587 C.2       16 UNK         0.5000 
     93 O          -4.7869  -23.2897  -53.5429 O.2       16 UNK        -0.5000 
     94 N          -5.8377  -22.3085  -51.7876 N.am      17 UNK        -0.5000 
     95 CA         -5.3431  -20.9347  -51.9355 C.3       17 UNK         0.1400 
     96 CB         -5.9275  -20.2781  -53.1998 C.3       17 UNK        -0.1800 
     97 C          -3.8025  -20.8608  -51.8612 C.2       17 UNK         0.5000 
     98 O          -3.1472  -20.3675  -52.7835 O.2       17 UNK        -0.5000 
     99 N          -3.2712  -21.4125  -50.7604 N.am      18 UNK        -0.5000 
    100 CA        -1.8519  -21.5561  -50.4294 C.3       18 UNK         0.1400 
    101 CB        -1.1927  -20.1742  -50.2606 C.3       18 UNK        -0.1800 
    102 C         -1.1107  -22.4579  -51.4319 C.2       18 UNK         0.5000 
    103 O         -0.0318  -22.0992  -51.9013 O.2       18 UNK        -0.5000 
    104 N         -1.7269  -23.5997  -51.7728 N.am      19 UNK        -0.5000 
    105 CA        -1.2945  -24.5463  -52.8081 C.3       19 UNK         0.1400 
    106 CB        -0.0307  -25.3058  -52.3549 C.3       19 UNK        -0.1800 
    107 C         -1.1413  -23.8659  -54.1881 C.2       19 UNK         0.5000 
    108 O         -0.1356  -24.0544  -54.8746 O.2       19 UNK        -0.5000 
    109 N         -2.1498  -23.0558  -54.5368 N.am      20 UNK        -0.5000 
    110 CA        -2.2899  -22.2246  -55.7331 C.3       20 UNK         0.1400 
    111 CB        -2.3107  -23.0922  -57.0088 C.3       20 UNK        -0.1800 
    112 C         -1.2951  -21.0472  -55.8326 C.2       20 UNK         0.5000 
    113 O         -1.2007  -20.4406  -56.9011 O.2       20 UNK        -0.5000 
    114 N         -0.5934  -20.7045  -54.7410 N.am      21 UNK        -0.5000 
    115 CA         0.3419  -19.5751  -54.6964 C.3       21 UNK         0.1400 
    116 CB         1.2853  -19.7168  -53.4934 C.3       21 UNK        -0.1800 
    117 C         -0.3537  -18.1998  -54.6762 C.2       21 UNK         0.5000 
    118 O          0.2620  -17.2164  -55.0912 O.2       21 UNK        -0.5000 
    119 N         -1.6090  -18.1447  -54.2155 N.am      22 UNK        -0.5000 
    120 CA        -2.4280  -16.9228  -54.1602 C.3       22 UNK         0.1400 
    121 C         -3.9123  -17.1585  -54.5562 C.2       22 UNK         0.5000 
    122 N         -4.2211  -18.1971  -55.3232 N.am      22 UNK        -0.7600 
    123 O         -4.7930  -16.3787  -54.2037 O.2       22 UNK        -0.5000 
    124 C124       -2.2182  -16.1093  -52.8531 C.3       23 UNK        -0.0398 
    125 S125       -2.4885  -17.0473  -51.3108 S.3       23 UNK        -0.2404 
    126 C126       -4.0413  -16.3294  -50.7025 C.3       23 UNK        -0.0205 
    127 H127        0.0494  -13.9308  -47.2434 H         1 UNK         0.0600 
    128 H128       -0.3541  -12.2292  -47.4309 H         1 UNK         0.0600 
    129 H129       -1.6043  -13.4725  -47.5790 H         1 UNK         0.0600 
    130 H130       -2.1583  -12.5225  -44.0382 H         1 UNK         0.3000 
    131 H131       -3.7794  -11.4085  -44.9533 H         1 UNK         0.0600 
    132 H132       -5.1100  -12.4879  -46.6592 H         1 UNK         0.0800 
    133 H133       -3.7807  -13.4182  -47.2516 H         1 UNK         0.0800 
    134 H134       -2.5822  -15.3240  -45.9182 H         1 UNK         0.0800 
    135 H135       -3.4792  -16.3536  -44.8410 H         1 UNK         0.0800 
    136 H136       -3.2171  -15.2070  -48.3772 H         1 UNK         0.1150 
    137 H137       -5.4804  -18.5002  -49.8958 H         1 UNK         0.1150 
    138 H138       -5.0877  -17.9497  -45.6628 H         1 UNK         0.1150 
    139 H139       -6.4481  -19.7267  -46.4616 H         1 UNK         0.0800 
    140 H140       -7.0736  -19.6207  -48.0879 H         1 UNK         0.0800 
    141 H141       -3.0442  -20.2531  -47.5696 H         1 UNK         0.0800 
    142 H142       -3.8836  -20.4173  -46.0550 H         1 UNK         0.0800 
    143 H143       -3.1606  -22.9209  -47.6170 H         1 UNK         0.0600 
    144 H144       -1.1220  -21.1874  -46.6431 H         1 UNK         0.3000 
    145 H145        1.3700  -23.7945  -46.4985 H         1 UNK         0.0600 
    146 H146        2.5215  -22.2458  -47.9996 H         1 UNK         0.0600 
    147 H147        1.1816  -22.9703  -48.8774 H         1 UNK         0.0600 
    148 H148        1.0480  -21.3246  -48.2687 H         1 UNK         0.0600 
    149 H149        1.5704  -21.0310  -45.8910 H         1 UNK         0.3000 
    150 H150        0.6730  -21.2953  -42.4068 H         1 UNK         0.0600 
    151 H151        2.8763  -20.1686  -42.2625 H         1 UNK         0.0600 
    152 H152        3.0924  -21.8689  -42.6527 H         1 UNK         0.0600 
    153 H153        3.2653  -20.6512  -43.9115 H         1 UNK         0.0600 
    154 H154        1.3676  -19.0192  -43.9324 H         1 UNK         0.3000 
    155 H155       -1.9194  -18.1580  -45.0840 H         1 UNK         0.0600 
    156 H156        0.0589  -16.9605  -43.0652 H         1 UNK         0.0600 
    157 H157       -1.6664  -17.1882  -42.8336 H         1 UNK         0.0600 
    158 H158       -1.0880  -16.0266  -44.0177 H         1 UNK         0.0600 
    159 H159        0.6426  -17.0027  -45.5834 H         1 UNK         0.3000 
    160 H160        1.4264  -18.8912  -48.5160 H         1 UNK         0.0600 
    161 H161        0.5155  -15.9941  -48.1433 H         1 UNK         0.0600 
    162 H162       -0.1475  -17.1429  -49.2960 H         1 UNK         0.0600 
    163 H163        1.5149  -16.5968  -49.4639 H         1 UNK         0.0600 
    164 H164        2.6378  -16.6971  -47.0413 H         1 UNK         0.3000 
    165 H165        4.7148  -18.7856  -45.0096 H         1 UNK         0.0600 
    166 H166        6.5394  -17.5219  -46.1155 H         1 UNK         0.0600 
    167 H167        5.9196  -18.7548  -47.2021 H         1 UNK         0.0600 
    168 H168        5.4649  -17.0715  -47.4403 H         1 UNK         0.0600 
    169 H169        4.6261  -15.9590  -45.3899 H         1 UNK         0.3000 
    170 H170        1.7946  -15.1554  -43.5599 H         1 UNK         0.0600 
    171 H171        3.1690  -15.7517  -41.5528 H         1 UNK         0.0600 
    172 H172        4.5746  -14.9863  -42.2860 H         1 UNK         0.0600 
    173 H173        3.1654  -14.0204  -41.8469 H         1 UNK         0.0600 
    174 H174        3.7451  -13.3357  -44.0800 H         1 UNK         0.3000 
    175 H175        4.4283  -12.4839  -46.3369 H         1 UNK         0.0600 
    176 H176        1.9404  -12.5607  -48.1161 H         1 UNK         0.0600 
    177 H177        3.3599  -11.5466  -48.3545 H         1 UNK         0.0600 
    178 H178        3.4941  -13.2919  -48.4937 H         1 UNK         0.0600 
    179 H179        1.9345  -11.0044  -46.2019 H         1 UNK         0.3000 
    180 H180        2.4489   -9.7934  -42.8998 H         1 UNK         0.0600 
    181 H181        2.8444   -8.3145  -45.5487 H         1 UNK         0.0600 
    182 H182        3.9917   -8.3869  -44.2207 H         1 UNK         0.0600 
    183 H183        2.4507   -7.5744  -43.9974 H         1 UNK         0.0600 
    184 H184        0.3245   -9.7977  -43.3131 H         1 UNK         0.3000 
    185 H185       -1.7235  -10.1278  -44.3423 H         1 UNK         0.0600 
    186 H186       -1.2660   -7.7576  -43.8272 H         1 UNK         0.0600 
    187 H187       -1.3665   -7.3319  -45.5311 H         1 UNK         0.0600 
    188 H188       -2.7967   -7.9033  -44.6742 H         1 UNK         0.0600 
    189 H189       -1.7621   -9.1761  -47.1686 H         1 UNK         0.3000 
    190 H190       -2.1753  -22.0609  -44.2784 H         1 UNK         0.3000 
    191 H191       -4.2627  -23.4788  -42.9538 H         1 UNK         0.0600 
    192 H192       -2.8139  -21.8279  -41.8087 H         1 UNK         0.0600 
    193 H193       -2.7252  -23.3826  -40.9944 H         1 UNK         0.0600 
    194 H194       -1.4057  -22.8623  -42.0344 H         1 UNK         0.0600 
    195 H195       -1.0903  -24.5450  -44.2013 H         1 UNK         0.3000 
    196 H196       -1.2724  -27.2142  -43.1287 H         1 UNK         0.0600 
    197 H197        0.7935  -27.5720  -44.4881 H         1 UNK         0.0600 
    198 H198        0.8983  -26.1196  -43.5045 H         1 UNK         0.0600 
    199 H199        0.5852  -25.9907  -45.2324 H         1 UNK         0.0600 
    200 H200       -1.5299  -25.9273  -46.5046 H         1 UNK         0.3000 
    201 H201       -2.3583  -28.6419  -47.4328 H         1 UNK         0.0600 
    202 H202       -0.1642  -27.7354  -48.2153 H         1 UNK         0.0600 
    203 H203       -0.9825  -26.3271  -48.8915 H         1 UNK         0.0600 
    204 H204       -1.2943  -27.9288  -49.5460 H         1 UNK         0.0600 
    205 H205       -3.6734  -25.4796  -47.0494 H         1 UNK         0.3000 
    206 H206       -5.4213  -24.3474  -47.8393 H         1 UNK         0.0600 
    207 H207       -6.6786  -26.4020  -47.1009 H         1 UNK         0.0600 
    208 H208       -7.4801  -25.5297  -48.3889 H         1 UNK         0.0600 
    209 H209       -6.6079  -27.0189  -48.7478 H         1 UNK         0.0600 
    210 H210       -6.9914  -25.2507  -50.2922 H         1 UNK         0.3000 
    211 H211       -7.1516  -24.7129  -52.4469 H         1 UNK         0.0600 
    212 H212       -4.3648  -25.9807  -52.5683 H         1 UNK         0.0600 
    213 H213       -5.4813  -25.8203  -53.9193 H         1 UNK         0.0600 
    214 H214       -5.8924  -26.8551  -52.5627 H         1 UNK         0.0600 
    215 H215       -6.4349  -22.4772  -50.9907 H         1 UNK         0.3000 
    216 H216       -5.7257  -20.3847  -51.0767 H         1 UNK         0.0600 
    217 H217       -5.5197  -20.7136  -54.1126 H         1 UNK         0.0600 
    218 H218       -5.7031  -19.2119  -53.2103 H         1 UNK         0.0600 
    219 H219       -7.0120  -20.3795  -53.2338 H         1 UNK         0.0600 
    220 H220       -3.9096  -21.8298  -50.0978 H         1 UNK         0.3000 
    221 H221       -1.8055  -22.0685  -49.4707 H         1 UNK         0.0600 
    222 H222       -1.1461  -19.6346  -51.2051 H         1 UNK         0.0600 
    223 H223       -1.7449  -19.5559  -49.5536 H         1 UNK         0.0600 
    224 H224       -0.1720  -20.2648  -49.8933 H         1 UNK         0.0600 
    225 H225       -2.6006  -23.8299  -51.3024 H         1 UNK         0.3000 
    226 H226       -2.0972  -25.2764  -52.9134 H         1 UNK         0.0600 
    227 H227       -0.1870  -25.7882  -51.3901 H         1 UNK         0.0600 
    228 H228        0.2319  -26.0866  -53.0695 H         1 UNK         0.0600 
    229 H229        0.8306  -24.6435  -52.2630 H         1 UNK         0.0600 
    230 H230       -2.9531  -23.0097  -53.9139 H         1 UNK         0.3000 
    231 H231       -3.2741  -21.7629  -55.6412 H         1 UNK         0.0600 
    232 H232       -1.3353  -23.5329  -57.2158 H         1 UNK         0.0600 
    233 H233       -2.5920  -22.5012  -57.8810 H         1 UNK         0.0600 
    234 H234       -3.0350  -23.9022  -56.9224 H         1 UNK         0.0600 
    235 H235       -0.7179  -21.2316  -53.8851 H         1 UNK         0.3000 
    236 H236        0.9560  -19.6138  -55.5986 H         1 UNK         0.0600 
    237 H237        1.7940  -20.6810  -53.4996 H         1 UNK         0.0600 
    238 H238        2.0541  -18.9435  -53.5092 H         1 UNK         0.0600 
    239 H239        0.7515  -19.6224  -52.5487 H         1 UNK         0.0600 
    240 H240       -2.0488  -18.9822  -53.8437 H         1 UNK         0.3000 
    241 H241       -2.0877  -16.2701  -54.9661 H         1 UNK         0.0600 
    242 H242       -5.1796  -18.3397  -55.5977 H         1 UNK         0.3800 
    243 H243       -3.5032  -18.8192  -55.6560 H         1 UNK         0.3800 
    244 H244       -1.1888  -15.7502  -52.8266 H         1 UNK         0.0800 
    245 H245       -2.8321  -15.2075  -52.8556 H         1 UNK         0.0800 
    246 H246       -4.8567  -16.6104  -51.3708 H         1 UNK         0.0800 
    247 H247       -3.9787  -15.2404  -50.7278 H         1 UNK         0.0800 
@<TRIPOS>BOND
     1    1    2 1    
     2    1  127 1    
     3    1  128 1    
     4    1  129 1    
     5    2    3 2    
     6    2    4 am   BACKBONE|DICT|INTERRES
     7    4    5 1    
     8    4  130 1    
     9    5    6 1    
    10    5   65 1    
    11    5  131 1    
    12    6    7 1    
    13    6  132 1    
    14    6  133 1    
    15    7    8 1    
    16    8    9 1    
    17    8  134 1    
    18    8  135 1    
    19    9   10 ar   
    20    9   14 ar   
    21   10   11 ar   
    22   10  136 1    
    23   11   12 ar   
    24   11  126 1    
    25   12   13 ar   
    26   12  137 1    
    27   13   14 ar   
    28   13   15 1    
    29   14  138 1    
    30   15   16 1    
    31   15  139 1    
    32   15  140 1    
    33   16   17 1    
    34   17   18 1    
    35   17  141 1    
    36   17  142 1    
    37   18   19 1    
    38   18   67 1    
    39   18  143 1    
    40   19   20 am   BACKBONE|DICT|INTERRES
    41   19  144 1    
    42   20   21 2    
    43   20   22 1    
    44   22   23 1    
    45   22   24 1    
    46   22  145 1    
    47   23  146 1    
    48   23  147 1    
    49   23  148 1    
    50   24   25 am   BACKBONE|DICT|INTERRES
    51   24  149 1    
    52   25   26 2    
    53   25   27 1    
    54   27   28 1    
    55   27   29 1    
    56   27  150 1    
    57   28  151 1    
    58   28  152 1    
    59   28  153 1    
    60   29   30 am   BACKBONE|DICT|INTERRES
    61   29  154 1    
    62   30   31 2    
    63   30   32 1    
    64   32   33 1    
    65   32   34 1    
    66   32  155 1    
    67   33  156 1    
    68   33  157 1    
    69   33  158 1    
    70   34   35 am   BACKBONE|DICT|INTERRES
    71   34  159 1    
    72   35   36 2    
    73   35   37 1    
    74   37   38 1    
    75   37   39 1    
    76   37  160 1    
    77   38  161 1    
    78   38  162 1    
    79   38  163 1    
    80   39   40 am   BACKBONE|DICT|INTERRES
    81   39  164 1    
    82   40   41 2    
    83   40   42 1    
    84   42   43 1    
    85   42   44 1    
    86   42  165 1    
    87   43  166 1    
    88   43  167 1    
    89   43  168 1    
    90   44   45 am   BACKBONE|DICT|INTERRES
    91   44  169 1    
    92   45   46 2    
    93   45   47 1    
    94   47   48 1    
    95   47   49 1    
    96   47  170 1    
    97   48  171 1    
    98   48  172 1    
    99   48  173 1    
   100   49   50 am   BACKBONE|DICT|INTERRES
   101   49  174 1    
   102   50   51 2    
   103   50   52 1    
   104   52   53 1    
   105   52   54 1    
   106   52  175 1    
   107   53  176 1    
   108   53  177 1    
   109   53  178 1    
   110   54   55 am   BACKBONE|DICT|INTERRES
   111   54  179 1    
   112   55   56 2    
   113   55   57 1    
   114   57   58 1    
   115   57   59 1    
   116   57  180 1    
   117   58  181 1    
   118   58  182 1    
   119   58  183 1    
   120   59   60 am   BACKBONE|DICT|INTERRES
   121   59  184 1    
   122   60   61 2    
   123   60   62 1    
   124   62   63 1    
   125   62   64 1    
   126   62  185 1    
   127   63  186 1    
   128   63  187 1    
   129   63  188 1    
   130   64   65 am   BACKBONE|DICT|INTERRES
   131   64  189 1    
   132   65   66 2    
   133   67   68 2    
   134   67   69 am   BACKBONE|DICT|INTERRES
   135   69   70 1    
   136   69  190 1    
   137   70   71 1    
   138   70   72 1    
   139   70  191 1    
   140   71  192 1    
   141   71  193 1    
   142   71  194 1    
   143   72   73 2    
   144   72   74 am   BACKBONE|DICT|INTERRES
   145   74   75 1    
   146   74  195 1    
   147   75   76 1    
   148   75   77 1    
   149   75  196 1    
   150   76  197 1    
   151   76  198 1    
   152   76  199 1    
   153   77   78 2    
   154   77   79 am   BACKBONE|DICT|INTERRES
   155   79   80 1    
   156   79  200 1    
   157   80   81 1    
   158   80   82 1    
   159   80  201 1    
   160   81  202 1    
   161   81  203 1    
   162   81  204 1    
   163   82   83 2    
   164   82   84 am   BACKBONE|DICT|INTERRES
   165   84   85 1    
   166   84  205 1    
   167   85   86 1    
   168   85   87 1    
   169   85  206 1    
   170   86  207 1    
   171   86  208 1    
   172   86  209 1    
   173   87   88 2    
   174   87   89 am   BACKBONE|DICT|INTERRES
   175   89   90 1    
   176   89  210 1    
   177   90   91 1    
   178   90   92 1    
   179   90  211 1    
   180   91  212 1    
   181   91  213 1    
   182   91  214 1    
   183   92   93 2    
   184   92   94 am   BACKBONE|DICT|INTERRES
   185   94   95 1    
   186   94  215 1    
   187   95   96 1    
   188   95   97 1    
   189   95  216 1    
   190   96  217 1    
   191   96  218 1    
   192   96  219 1    
   193   97   98 2    
   194   97   99 am   BACKBONE|DICT|INTERRES
   195   99  100 1    
   196   99  220 1    
   197  100  101 1    
   198  100  102 1    
   199  100  221 1    
   200  101  222 1    
   201  101  223 1    
   202  101  224 1    
   203  102  103 2    
   204  102  104 am   BACKBONE|DICT|INTERRES
   205  104  105 1    
   206  104  225 1    
   207  105  106 1    
   208  105  107 1    
   209  105  226 1    
   210  106  227 1    
   211  106  228 1    
   212  106  229 1    
   213  107  108 2    
   214  107  109 am   BACKBONE|DICT|INTERRES
   215  109  110 1    
   216  109  230 1    
   217  110  111 1    
   218  110  112 1    
   219  110  231 1    
   220  111  232 1    
   221  111  233 1    
   222  111  234 1    
   223  112  113 2    
   224  112  114 am   BACKBONE|DICT|INTERRES
   225  114  115 1    
   226  114  235 1    
   227  115  116 1    
   228  115  117 1    
   229  115  236 1    
   230  116  237 1    
   231  116  238 1    
   232  116  239 1    
   233  117  118 2    
   234  117  119 am   BACKBONE|DICT|INTERRES
   235  119  120 1    
   236  119  240 1    
   237  120  121 1    
   238  120  124 1    
   239  120  241 1    
   240  121  122 am   BACKBONE|DICT|INTERRES
   241  121  123 2    
   242  122  242 1    
   243  122  243 1    
   244  124  125 1    
   245  124  244 1    
   246  124  245 1    
   247  125  126 1    
   248  126  246 1    
   249  126  247 1    
@<TRIPOS>SUBSTRUCTURE
     1 UNK         1 GROUP             0       ****    0 ROOT    
