@<TRIPOS>MOLECULE
3R540
247   249    1
SMALL
USER_CHARGES


@<TRIPOS>ATOM
      1 CA          1.1597  -13.4274  -48.9738 C.3       0 UNK        -0.1800 
      2 C           2.6236  -13.8194  -48.8415 C.2       0 UNK         0.5000 
      3 O           3.2591  -13.4793  -47.8431 O.2       0 UNK        -0.5000 
      4 N           3.1595  -14.5449  -49.8344 N.am      1 UNK        -0.5000 
      5 CA          4.5760  -14.9290  -49.9407 C.3       1 UNK         0.1400 
      6 C6          4.9313  -15.4780  -51.3487 C.3       23 UNK        -0.0398 
      7 S7          4.3945  -17.1947  -51.6869 S.3       23 UNK        -0.2404 
      8 C8          3.1080  -16.9714  -52.9596 C.3       23 UNK        -0.0205 
      9 C9          1.7902  -16.4148  -52.4300 C.ar      23 UNK        -0.0193 
     10 C10         1.0514  -15.5295  -53.2212 C.ar      23 UNK        -0.1150 
     11 C11        -0.1947  -15.0617  -52.7938 C.ar      23 UNK        -0.0193 
     12 C12        -0.6837  -15.4538  -51.5456 C.ar      23 UNK        -0.1150 
     13 C13         0.0526  -16.3183  -50.7343 C.ar      23 UNK        -0.0193 
     14 C14         1.2770  -16.8119  -51.1891 C.ar      23 UNK        -0.1150 
     15 C15        -0.4670  -16.6872  -49.3561 C.3       23 UNK        -0.0205 
     16 S16        -1.3906  -18.2517  -49.3719 S.3       23 UNK        -0.2404 
     17 C17        -0.0414  -19.4711  -49.2167 C.3       23 UNK        -0.0398 
     18 CA         -0.3181  -20.6372  -48.2389 C.3       11 UNK         0.1400 
     19 N          -0.4285  -20.2256  -46.8348 N.am      11 UNK        -0.5000 
     20 C          -0.2999  -21.0863  -45.8123 C.2       10 UNK         0.5000 
     21 O          -0.0710  -22.2875  -45.9597 O.2       10 UNK        -0.5000 
     22 CA         -0.5109  -20.5371  -44.3908 C.3       10 UNK         0.1400 
     23 CB          0.6952  -19.7053  -43.9291 C.3       10 UNK        -0.1800 
     24 N          -1.7374  -19.7522  -44.2673 N.am      10 UNK        -0.5000 
     25 C          -2.9731  -20.2328  -44.4654 C.2       9 UNK         0.5000 
     26 O          -3.2131  -21.4009  -44.7696 O.2       9 UNK        -0.5000 
     27 CA         -4.1334  -19.2343  -44.3266 C.3       9 UNK         0.1400 
     28 CB         -4.5678  -19.1004  -42.8592 C.3       9 UNK        -0.1800 
     29 N          -3.7719  -17.9212  -44.8567 N.am      9 UNK        -0.5000 
     30 C          -3.7388  -17.6273  -46.1637 C.2       8 UNK         0.5000 
     31 O          -4.0711  -18.4133  -47.0487 O.2       8 UNK        -0.5000 
     32 CA         -3.2255  -16.2284  -46.5496 C.3       8 UNK         0.1400 
     33 CB         -4.3658  -15.2009  -46.4921 C.3       8 UNK        -0.1800 
     34 N          -2.1181  -15.7623  -45.7132 N.am      8 UNK        -0.5000 
     35 C          -0.9229  -16.3602  -45.6074 C.2       7 UNK         0.5000 
     36 O          -0.5953  -17.3691  -46.2297 O.2       7 UNK        -0.5000 
     37 CA          0.0570  -15.7589  -44.5844 C.3       7 UNK         0.1400 
     38 CB          0.8630  -14.6204  -45.2273 C.3       7 UNK        -0.1800 
     39 N          -0.5771  -15.2862  -43.3466 N.am      7 UNK        -0.5000 
     40 C          -1.3749  -16.0179  -42.5525 C.2       6 UNK         0.5000 
     41 O          -1.6850  -17.1853  -42.7936 O.2       6 UNK        -0.5000 
     42 CA         -1.8680  -15.3357  -41.2668 C.3       6 UNK         0.1400 
     43 CB         -2.8120  -16.2219  -40.4336 C.3       6 UNK        -0.1800 
     44 N          -0.6984  -14.9879  -40.4708 N.am      6 UNK        -0.5000 
     45 C          -0.4563  -13.8011  -39.9025 C.2       5 UNK         0.5000 
     46 O          -1.2653  -12.8731  -39.8759 O.2       5 UNK        -0.5000 
     47 CA          0.9471  -13.6098  -39.2864 C.3       5 UNK         0.1400 
     48 CB          0.9069  -13.8563  -37.7705 C.3       5 UNK        -0.1800 
     49 N           1.9743  -14.4729  -39.8854 N.am      5 UNK        -0.5000 
     50 C           2.3595  -14.4220  -41.1681 C.2       4 UNK         0.5000 
     51 O           1.9127  -13.6058  -41.9781 O.2       4 UNK        -0.5000 
     52 CA          3.3563  -15.5063  -41.6220 C.3       4 UNK         0.1400 
     53 CB          2.6888  -16.8931  -41.6293 C.3       4 UNK        -0.1800 
     54 N           3.8724  -15.2369  -42.9625 N.am      4 UNK        -0.5000 
     55 C           4.8069  -14.3264  -43.2601 C.2       3 UNK         0.5000 
     56 O           5.3897  -13.6551  -42.4060 O.2       3 UNK        -0.5000 
     57 CA          5.1357  -14.1110  -44.7556 C.3       3 UNK         0.1400 
     58 CB          6.6421  -13.8770  -44.9920 C.3       3 UNK        -0.1800 
     59 N           4.6327  -15.1451  -45.6719 N.am      3 UNK        -0.5000 
     60 C           4.9604  -16.4487  -45.7021 C.2       2 UNK         0.5000 
     61 O           5.6747  -16.9992  -44.8645 O.2       2 UNK        -0.5000 
     62 CA          4.4034  -17.2825  -46.8755 C.3       2 UNK         0.1400 
     63 CB          3.1072  -18.0003  -46.4643 C.3       2 UNK        -0.1800 
     64 N           4.1461  -16.4888  -48.0777 N.am      2 UNK        -0.5000 
     65 C           5.0780  -15.8477  -48.8000 C.2       1 UNK         0.5000 
     66 O           6.2878  -15.9369  -48.5856 O.2       1 UNK        -0.5000 
     67 C          -1.4957  -21.5300  -48.6845 C.2       11 UNK         0.5000 
     68 O          -1.2722  -22.4808  -49.4331 O.2       11 UNK        -0.5000 
     69 N          -2.7078  -21.2576  -48.1735 N.am      12 UNK        -0.5000 
     70 CA         -3.9036  -22.0716  -48.4032 C.3       12 UNK         0.1400 
     71 CB         -5.1251  -21.4096  -47.7514 C.3       12 UNK        -0.1800 
     72 C          -3.7540  -23.5082  -47.8805 C.2       12 UNK         0.5000 
     73 O          -4.1296  -24.4491  -48.5816 O.2       12 UNK        -0.5000 
     74 N          -3.1938  -23.6424  -46.6707 N.am      13 UNK        -0.5000 
     75 CA         -2.8854  -24.9176  -46.0300 C.3       13 UNK         0.1400 
     76 CB         -2.5503  -24.6798  -44.5499 C.3       13 UNK        -0.1800 
     77 C          -1.7430  -25.6670  -46.7356 C.2       13 UNK         0.5000 
     78 O          -1.8525  -26.8769  -46.9325 O.2       13 UNK        -0.5000 
     79 N          -0.6851  -24.9396  -47.1253 N.am      14 UNK        -0.5000 
     80 CA          0.4761  -25.4789  -47.8380 C.3       14 UNK         0.1400 
     81 CB          1.5778  -24.4119  -47.9183 C.3       14 UNK        -0.1800 
     82 C           0.1278  -26.0066  -49.2417 C.2       14 UNK         0.5000 
     83 O           0.5993  -27.0791  -49.6218 O.2       14 UNK        -0.5000 
     84 N          -0.7112  -25.2609  -49.9735 N.am      15 UNK        -0.5000 
     85 CA         -1.2376  -25.6525  -51.2822 C.3       15 UNK         0.1400 
     86 CB         -1.7818  -24.4019  -51.9918 C.3       15 UNK        -0.1800 
     87 C          -2.3391  -26.7271  -51.1937 C.2       15 UNK         0.5000 
     88 O          -2.6112  -27.3892  -52.1956 O.2       15 UNK        -0.5000 
     89 N          -2.9710  -26.8487  -50.0151 N.am      16 UNK        -0.5000 
     90 CA         -4.1707  -27.6403  -49.7150 C.3       16 UNK         0.1400 
     91 CB         -3.8820  -29.1511  -49.8287 C.3       16 UNK        -0.1800 
     92 C          -5.3876  -27.1841  -50.5508 C.2       16 UNK         0.5000 
     93 O          -6.2118  -28.0038  -50.9598 O.2       16 UNK        -0.5000 
     94 N          -5.4510  -25.8723  -50.8095 N.am      17 UNK        -0.5000 
     95 CA         -6.4123  -25.2330  -51.7049 C.3       17 UNK         0.1400 
     96 CB         -5.6922  -24.0953  -52.4471 C.3       17 UNK        -0.1800 
     97 C          -7.6481  -24.6923  -50.9664 C.2       17 UNK         0.5000 
     98 O          -8.6733  -24.4650  -51.6088 O.2       17 UNK        -0.5000 
     99 N          -7.5236  -24.4694  -49.6473 N.am      18 UNK        -0.5000 
    100 CA        -8.5269  -23.8814  -48.7429 C.3       18 UNK         0.1400 
    101 CB        -9.7787  -24.7776  -48.6435 C.3       18 UNK        -0.1800 
    102 C         -8.8795  -22.4055  -49.0533 C.2       18 UNK         0.5000 
    103 O         -9.8580  -21.8795  -48.5212 O.2       18 UNK        -0.5000 
    104 N         -8.0525  -21.7557  -49.8754 N.am      19 UNK        -0.5000 
    105 CA        -8.0649  -20.3451  -50.2337 C.3       19 UNK         0.1400 
    106 CB        -9.0346  -20.1066  -51.4027 C.3       19 UNK        -0.1800 
    107 C         -6.6223  -19.9873  -50.6163 C.2       19 UNK         0.5000 
    108 O         -5.8660  -20.8849  -50.9996 O.2       19 UNK        -0.5000 
    109 N         -6.2497  -18.7090  -50.4725 N.am      20 UNK        -0.5000 
    110 CA        -4.8877  -18.2184  -50.7000 C.3       20 UNK         0.1400 
    111 CB        -4.8063  -16.7292  -50.3308 C.3       20 UNK        -0.1800 
    112 C         -4.4185  -18.4586  -52.1475 C.2       20 UNK         0.5000 
    113 O         -5.0758  -18.0024  -53.0858 O.2       20 UNK        -0.5000 
    114 N         -3.3090  -19.1861  -52.2918 N.am      21 UNK        -0.5000 
    115 CA        -2.7455  -19.6242  -53.5602 C.3       21 UNK         0.1400 
    116 CB        -3.1566  -21.0869  -53.8086 C.3       21 UNK        -0.1800 
    117 C         -1.2189  -19.4748  -53.4535 C.2       21 UNK         0.5000 
    118 O         -0.6244  -20.1786  -52.6387 O.2       21 UNK        -0.5000 
    119 N         -0.5562  -18.5812  -54.1990 N.am      22 UNK        -0.5000 
    120 CA        -1.0378  -17.6866  -55.2660 C.3       22 UNK         0.1400 
    121 C         -1.4996  -18.4116  -56.5662 C.2       22 UNK         0.5000 
    122 N         -1.9187  -17.6702  -57.5822 N.am      22 UNK        -0.7600 
    123 O         -1.4738  -19.6350  -56.6728 O.2       22 UNK        -0.5000 
    124 C124       -2.0446  -16.6021  -54.7656 C.3       23 UNK        -0.0398 
    125 S125       -1.5163  -14.9243  -55.2636 S.3       23 UNK        -0.2404 
    126 C126       -1.0321  -14.1499  -53.6816 C.3       23 UNK        -0.0205 
    127 H127        0.5402  -14.0479  -48.3275 H         1 UNK         0.0600 
    128 H128        1.0223  -12.3869  -48.6798 H         1 UNK         0.0600 
    129 H129        0.8080  -13.5333  -49.9996 H         1 UNK         0.0600 
    130 H130        2.5751  -14.8291  -50.6093 H         1 UNK         0.3000 
    131 H131        5.1371  -13.9990  -49.8255 H         1 UNK         0.0600 
    132 H132        6.0144  -15.4526  -51.4785 H         1 UNK         0.0800 
    133 H133        4.5378  -14.8115  -52.1172 H         1 UNK         0.0800 
    134 H134        2.9055  -17.9423  -53.4129 H         1 UNK         0.0800 
    135 H135        3.5045  -16.3391  -53.7557 H         1 UNK         0.0800 
    136 H136        1.4263  -15.2289  -54.1896 H         1 UNK         0.1150 
    137 H137       -1.6402  -15.0853  -51.2024 H         1 UNK         0.1150 
    138 H138        1.8325  -17.5023  -50.5715 H         1 UNK         0.1150 
    139 H139        0.3555  -16.7356  -48.6420 H         1 UNK         0.0800 
    140 H140       -1.1245  -15.8971  -48.9944 H         1 UNK         0.0800 
    141 H141        0.8695  -18.9647  -48.8989 H         1 UNK         0.0800 
    142 H142        0.1799  -19.8624  -50.2096 H         1 UNK         0.0800 
    143 H143        0.5685  -21.2719  -48.2959 H         1 UNK         0.0600 
    144 H144       -0.6128  -19.2418  -46.6503 H         1 UNK         0.3000 
    145 H145       -0.6045  -21.3916  -43.7174 H         1 UNK         0.0600 
    146 H146        0.5478  -19.3175  -42.9209 H         1 UNK         0.0600 
    147 H147        1.6022  -20.3107  -43.9174 H         1 UNK         0.0600 
    148 H148        0.8786  -18.8607  -44.5903 H         1 UNK         0.0600 
    149 H149       -1.6376  -18.7853  -43.9765 H         1 UNK         0.3000 
    150 H150       -4.9831  -19.6206  -44.8933 H         1 UNK         0.0600 
    151 H151       -4.9043  -20.0606  -42.4665 H         1 UNK         0.0600 
    152 H152       -5.3950  -18.3982  -42.7544 H         1 UNK         0.0600 
    153 H153       -3.7525  -18.7567  -42.2225 H         1 UNK         0.0600 
    154 H154       -3.4047  -17.2523  -44.1937 H         1 UNK         0.3000 
    155 H155       -2.8748  -16.2851  -47.5797 H         1 UNK         0.0600 
    156 H156       -4.7258  -15.0553  -45.4729 H         1 UNK         0.0600 
    157 H157       -5.2157  -15.5222  -47.0953 H         1 UNK         0.0600 
    158 H158       -4.0434  -14.2332  -46.8768 H         1 UNK         0.0600 
    159 H159       -2.2902  -14.9420  -45.1512 H         1 UNK         0.3000 
    160 H160        0.7564  -16.5474  -44.3077 H         1 UNK         0.0600 
    161 H161        1.6318  -14.2441  -44.5543 H         1 UNK         0.0600 
    162 H162        0.2248  -13.7811  -45.5060 H         1 UNK         0.0600 
    163 H163        1.3689  -14.9622  -46.1305 H         1 UNK         0.0600 
    164 H164       -0.3310  -14.3514  -43.0495 H         1 UNK         0.3000 
    165 H165       -2.4107  -14.4374  -41.5682 H         1 UNK         0.0600 
    166 H166       -3.1468  -15.7025  -39.5357 H         1 UNK         0.0600 
    167 H167       -3.7017  -16.4895  -41.0048 H         1 UNK         0.0600 
    168 H168       -2.3271  -17.1482  -40.1228 H         1 UNK         0.0600 
    169 H169        0.0359  -15.6805  -40.4486 H         1 UNK         0.3000 
    170 H170        1.2401  -12.5719  -39.4578 H         1 UNK         0.0600 
    171 H171        0.1717  -13.2101  -37.2890 H         1 UNK         0.0600 
    172 H172        0.6397  -14.8878  -37.5373 H         1 UNK         0.0600 
    173 H173        1.8725  -13.6459  -37.3102 H         1 UNK         0.0600 
    174 H174        2.3844  -15.1673  -39.2772 H         1 UNK         0.3000 
    175 H175        4.1921  -15.5225  -40.9194 H         1 UNK         0.0600 
    176 H176        1.8002  -16.9139  -42.2592 H         1 UNK         0.0600 
    177 H177        3.3741  -17.6587  -41.9945 H         1 UNK         0.0600 
    178 H178        2.3836  -17.1909  -40.6258 H         1 UNK         0.0600 
    179 H179        3.4384  -15.7309  -43.7257 H         1 UNK         0.3000 
    180 H180        4.6161  -13.1945  -45.0389 H         1 UNK         0.0600 
    181 H181        7.2384  -14.7324  -44.6733 H         1 UNK         0.0600 
    182 H182        6.9978  -13.0064  -44.4398 H         1 UNK         0.0600 
    183 H183        6.8513  -13.6969  -46.0467 H         1 UNK         0.0600 
    184 H184        4.0522  -14.7877  -46.4238 H         1 UNK         0.3000 
    185 H185        5.1509  -18.0383  -47.1251 H         1 UNK         0.0600 
    186 H186        2.7643  -18.6764  -47.2474 H         1 UNK         0.0600 
    187 H187        3.2604  -18.6000  -45.5661 H         1 UNK         0.0600 
    188 H188        2.3023  -17.2956  -46.2561 H         1 UNK         0.0600 
    189 H189        3.1813  -16.3570  -48.3391 H         1 UNK         0.3000 
    190 H190       -2.8159  -20.4471  -47.5778 H         1 UNK         0.3000 
    191 H191       -4.0672  -22.1244  -49.4810 H         1 UNK         0.0600 
    192 H192       -5.0147  -21.3213  -46.6721 H         1 UNK         0.0600 
    193 H193       -6.0273  -21.9913  -47.9357 H         1 UNK         0.0600 
    194 H194       -5.2928  -20.4107  -48.1481 H         1 UNK         0.0600 
    195 H195       -2.9718  -22.8050  -46.1399 H         1 UNK         0.3000 
    196 H196       -3.7778  -25.5452  -46.0797 H         1 UNK         0.0600 
    197 H197       -2.3245  -25.6190  -44.0435 H         1 UNK         0.0600 
    198 H198       -3.3889  -24.2205  -44.0264 H         1 UNK         0.0600 
    199 H199       -1.6861  -24.0250  -44.4323 H         1 UNK         0.0600 
    200 H200       -0.6496  -23.9549  -46.8785 H         1 UNK         0.3000 
    201 H201        0.8616  -26.3178  -47.2550 H         1 UNK         0.0600 
    202 H202        1.8750  -24.0748  -46.9252 H         1 UNK         0.0600 
    203 H203        1.2516  -23.5405  -48.4856 H         1 UNK         0.0600 
    204 H204        2.4687  -24.8071  -48.4078 H         1 UNK         0.0600 
    205 H205       -1.0055  -24.3530  -49.6206 H         1 UNK         0.3000 
    206 H206       -0.4210  -26.0596  -51.8820 H         1 UNK         0.0600 
    207 H207       -1.0064  -23.6443  -52.1091 H         1 UNK         0.0600 
    208 H208       -2.1528  -24.6443  -52.9884 H         1 UNK         0.0600 
    209 H209       -2.6051  -23.9514  -51.4356 H         1 UNK         0.0600 
    210 H210       -2.6682  -26.2391  -49.2674 H         1 UNK         0.3000 
    211 H211       -4.4200  -27.4291  -48.6741 H         1 UNK         0.0600 
    212 H212       -3.6895  -29.4527  -50.8585 H         1 UNK         0.0600 
    213 H213       -4.7282  -29.7378  -49.4696 H         1 UNK         0.0600 
    214 H214       -3.0159  -29.4309  -49.2288 H         1 UNK         0.0600 
    215 H215       -4.7631  -25.2740  -50.3655 H         1 UNK         0.3000 
    216 H216       -6.7623  -25.9535  -52.4472 H         1 UNK         0.0600 
    217 H217       -6.3761  -23.5522  -53.1008 H         1 UNK         0.0600 
    218 H218       -4.8866  -24.4829  -53.0710 H         1 UNK         0.0600 
    219 H219       -5.2569  -23.3742  -51.7548 H         1 UNK         0.0600 
    220 H220       -6.6345  -24.6980  -49.2232 H         1 UNK         0.3000 
    221 H221       -8.0604  -23.8685  -47.7569 H         1 UNK         0.0600 
    222 H222      -10.3541  -24.7775  -49.5695 H         1 UNK         0.0600 
    223 H223       -9.5086  -25.8087  -48.4156 H         1 UNK         0.0600 
    224 H224      -10.4430  -24.4350  -47.8494 H         1 UNK         0.0600 
    225 H225       -7.2496  -22.2463  -50.2496 H         1 UNK         0.3000 
    226 H226       -8.3634  -19.7500  -49.3682 H         1 UNK         0.0600 
    227 H227       -8.7551  -20.6921  -52.2797 H         1 UNK         0.0600 
    228 H228      -10.0548  -20.3779  -51.1311 H         1 UNK         0.0600 
    229 H229       -9.0435  -19.0562  -51.6958 H         1 UNK         0.0600 
    230 H230       -6.9306  -18.0250  -50.1776 H         1 UNK         0.3000 
    231 H231       -4.2342  -18.7691  -50.0202 H         1 UNK         0.0600 
    232 H232       -5.0762  -16.5697  -49.2875 H         1 UNK         0.0600 
    233 H233       -5.4692  -16.1227  -50.9490 H         1 UNK         0.0600 
    234 H234       -3.7921  -16.3510  -50.4643 H         1 UNK         0.0600 
    235 H235       -2.7930  -19.4806  -51.4731 H         1 UNK         0.3000 
    236 H236       -3.1425  -19.0280  -54.3785 H         1 UNK         0.0600 
    237 H237       -2.7263  -21.4595  -54.7388 H         1 UNK         0.0600 
    238 H238       -2.8248  -21.7437  -53.0036 H         1 UNK         0.0600 
    239 H239       -4.2398  -21.1828  -53.8865 H         1 UNK         0.0600 
    240 H240        0.4409  -18.5363  -54.0582 H         1 UNK         0.3000 
    241 H241       -0.1173  -17.1870  -55.5701 H         1 UNK         0.0600 
    242 H242       -2.2145  -18.1246  -58.4325 H         1 UNK         0.3800 
    243 H243       -1.9360  -16.6628  -57.5267 H         1 UNK         0.3800 
    244 H244       -3.0515  -16.7710  -55.1517 H         1 UNK         0.0800 
    245 H245       -2.1591  -16.6375  -53.6825 H         1 UNK         0.0800 
    246 H246       -0.4683  -13.2399  -53.8907 H         1 UNK         0.0800 
    247 H247       -1.9380  -13.8342  -53.1619 H         1 UNK         0.0800 
@<TRIPOS>BOND
     1    1    2 1    
     2    1  127 1    
     3    1  128 1    
     4    1  129 1    
     5    2    3 2    
     6    2    4 am   BACKBONE|DICT|INTERRES
     7    4    5 1    
     8    4  130 1    
     9    5    6 1    
    10    5   65 1    
    11    5  131 1    
    12    6    7 1    
    13    6  132 1    
    14    6  133 1    
    15    7    8 1    
    16    8    9 1    
    17    8  134 1    
    18    8  135 1    
    19    9   10 ar   
    20    9   14 ar   
    21   10   11 ar   
    22   10  136 1    
    23   11   12 ar   
    24   11  126 1    
    25   12   13 ar   
    26   12  137 1    
    27   13   14 ar   
    28   13   15 1    
    29   14  138 1    
    30   15   16 1    
    31   15  139 1    
    32   15  140 1    
    33   16   17 1    
    34   17   18 1    
    35   17  141 1    
    36   17  142 1    
    37   18   19 1    
    38   18   67 1    
    39   18  143 1    
    40   19   20 am   BACKBONE|DICT|INTERRES
    41   19  144 1    
    42   20   21 2    
    43   20   22 1    
    44   22   23 1    
    45   22   24 1    
    46   22  145 1    
    47   23  146 1    
    48   23  147 1    
    49   23  148 1    
    50   24   25 am   BACKBONE|DICT|INTERRES
    51   24  149 1    
    52   25   26 2    
    53   25   27 1    
    54   27   28 1    
    55   27   29 1    
    56   27  150 1    
    57   28  151 1    
    58   28  152 1    
    59   28  153 1    
    60   29   30 am   BACKBONE|DICT|INTERRES
    61   29  154 1    
    62   30   31 2    
    63   30   32 1    
    64   32   33 1    
    65   32   34 1    
    66   32  155 1    
    67   33  156 1    
    68   33  157 1    
    69   33  158 1    
    70   34   35 am   BACKBONE|DICT|INTERRES
    71   34  159 1    
    72   35   36 2    
    73   35   37 1    
    74   37   38 1    
    75   37   39 1    
    76   37  160 1    
    77   38  161 1    
    78   38  162 1    
    79   38  163 1    
    80   39   40 am   BACKBONE|DICT|INTERRES
    81   39  164 1    
    82   40   41 2    
    83   40   42 1    
    84   42   43 1    
    85   42   44 1    
    86   42  165 1    
    87   43  166 1    
    88   43  167 1    
    89   43  168 1    
    90   44   45 am   BACKBONE|DICT|INTERRES
    91   44  169 1    
    92   45   46 2    
    93   45   47 1    
    94   47   48 1    
    95   47   49 1    
    96   47  170 1    
    97   48  171 1    
    98   48  172 1    
    99   48  173 1    
   100   49   50 am   BACKBONE|DICT|INTERRES
   101   49  174 1    
   102   50   51 2    
   103   50   52 1    
   104   52   53 1    
   105   52   54 1    
   106   52  175 1    
   107   53  176 1    
   108   53  177 1    
   109   53  178 1    
   110   54   55 am   BACKBONE|DICT|INTERRES
   111   54  179 1    
   112   55   56 2    
   113   55   57 1    
   114   57   58 1    
   115   57   59 1    
   116   57  180 1    
   117   58  181 1    
   118   58  182 1    
   119   58  183 1    
   120   59   60 am   BACKBONE|DICT|INTERRES
   121   59  184 1    
   122   60   61 2    
   123   60   62 1    
   124   62   63 1    
   125   62   64 1    
   126   62  185 1    
   127   63  186 1    
   128   63  187 1    
   129   63  188 1    
   130   64   65 am   BACKBONE|DICT|INTERRES
   131   64  189 1    
   132   65   66 2    
   133   67   68 2    
   134   67   69 am   BACKBONE|DICT|INTERRES
   135   69   70 1    
   136   69  190 1    
   137   70   71 1    
   138   70   72 1    
   139   70  191 1    
   140   71  192 1    
   141   71  193 1    
   142   71  194 1    
   143   72   73 2    
   144   72   74 am   BACKBONE|DICT|INTERRES
   145   74   75 1    
   146   74  195 1    
   147   75   76 1    
   148   75   77 1    
   149   75  196 1    
   150   76  197 1    
   151   76  198 1    
   152   76  199 1    
   153   77   78 2    
   154   77   79 am   BACKBONE|DICT|INTERRES
   155   79   80 1    
   156   79  200 1    
   157   80   81 1    
   158   80   82 1    
   159   80  201 1    
   160   81  202 1    
   161   81  203 1    
   162   81  204 1    
   163   82   83 2    
   164   82   84 am   BACKBONE|DICT|INTERRES
   165   84   85 1    
   166   84  205 1    
   167   85   86 1    
   168   85   87 1    
   169   85  206 1    
   170   86  207 1    
   171   86  208 1    
   172   86  209 1    
   173   87   88 2    
   174   87   89 am   BACKBONE|DICT|INTERRES
   175   89   90 1    
   176   89  210 1    
   177   90   91 1    
   178   90   92 1    
   179   90  211 1    
   180   91  212 1    
   181   91  213 1    
   182   91  214 1    
   183   92   93 2    
   184   92   94 am   BACKBONE|DICT|INTERRES
   185   94   95 1    
   186   94  215 1    
   187   95   96 1    
   188   95   97 1    
   189   95  216 1    
   190   96  217 1    
   191   96  218 1    
   192   96  219 1    
   193   97   98 2    
   194   97   99 am   BACKBONE|DICT|INTERRES
   195   99  100 1    
   196   99  220 1    
   197  100  101 1    
   198  100  102 1    
   199  100  221 1    
   200  101  222 1    
   201  101  223 1    
   202  101  224 1    
   203  102  103 2    
   204  102  104 am   BACKBONE|DICT|INTERRES
   205  104  105 1    
   206  104  225 1    
   207  105  106 1    
   208  105  107 1    
   209  105  226 1    
   210  106  227 1    
   211  106  228 1    
   212  106  229 1    
   213  107  108 2    
   214  107  109 am   BACKBONE|DICT|INTERRES
   215  109  110 1    
   216  109  230 1    
   217  110  111 1    
   218  110  112 1    
   219  110  231 1    
   220  111  232 1    
   221  111  233 1    
   222  111  234 1    
   223  112  113 2    
   224  112  114 am   BACKBONE|DICT|INTERRES
   225  114  115 1    
   226  114  235 1    
   227  115  116 1    
   228  115  117 1    
   229  115  236 1    
   230  116  237 1    
   231  116  238 1    
   232  116  239 1    
   233  117  118 2    
   234  117  119 am   BACKBONE|DICT|INTERRES
   235  119  120 1    
   236  119  240 1    
   237  120  121 1    
   238  120  124 1    
   239  120  241 1    
   240  121  122 am   BACKBONE|DICT|INTERRES
   241  121  123 2    
   242  122  242 1    
   243  122  243 1    
   244  124  125 1    
   245  124  244 1    
   246  124  245 1    
   247  125  126 1    
   248  126  246 1    
   249  126  247 1    
@<TRIPOS>SUBSTRUCTURE
     1 UNK         1 GROUP             0       ****    0 ROOT    
