@<TRIPOS>MOLECULE
3R540
247   249    1
SMALL
USER_CHARGES


@<TRIPOS>ATOM
      1 CA         -0.2972  -12.8244  -47.4373 C.3       0 UNK        -0.1800 
      2 C           1.0422  -12.2399  -47.8547 C.2       0 UNK         0.5000 
      3 O           1.0827  -11.3372  -48.6917 O.2       0 UNK        -0.5000 
      4 N           2.1389  -12.7366  -47.2701 N.am      1 UNK        -0.5000 
      5 CA          3.5037  -12.2617  -47.5171 C.3       1 UNK         0.1400 
      6 C6          4.5527  -13.3857  -47.3316 C.3       23 UNK        -0.0398 
      7 S7          4.3967  -14.6818  -48.6048 S.3       23 UNK        -0.2404 
      8 C8          3.5349  -15.9730  -47.6599 C.3       23 UNK        -0.0205 
      9 C9          3.0877  -17.1191  -48.5521 C.ar      23 UNK        -0.0193 
     10 C10         2.0365  -16.9354  -49.4562 C.ar      23 UNK        -0.1150 
     11 C11         1.5800  -17.9974  -50.2422 C.ar      23 UNK        -0.0193 
     12 C12         2.2071  -19.2418  -50.1417 C.ar      23 UNK        -0.1150 
     13 C13         3.2489  -19.4423  -49.2312 C.ar      23 UNK        -0.0193 
     14 C14         3.6904  -18.3755  -48.4439 C.ar      23 UNK        -0.1150 
     15 C15         3.8735  -20.8207  -49.0746 C.3       23 UNK        -0.0205 
     16 S16         3.1275  -21.7459  -47.6926 S.3       23 UNK        -0.2404 
     17 C17         1.4008  -21.8822  -48.2617 C.3       23 UNK        -0.0398 
     18 CA          0.5647  -22.8689  -47.4176 C.3       11 UNK         0.1400 
     19 N           0.3208  -22.3843  -46.0536 N.am      11 UNK        -0.5000 
     20 C          -0.2741  -23.1026  -45.0896 C.2       10 UNK         0.5000 
     21 O          -0.6584  -24.2619  -45.2393 O.2       10 UNK        -0.5000 
     22 CA         -0.5351  -22.3993  -43.7471 C.3       10 UNK         0.1400 
     23 CB          0.7614  -22.2530  -42.9364 C.3       10 UNK        -0.1800 
     24 N          -1.1741  -21.0950  -43.9139 N.am      10 UNK        -0.5000 
     25 C          -2.3890  -20.9065  -44.4500 C.2       9 UNK         0.5000 
     26 O          -3.1238  -21.8222  -44.8215 O.2       9 UNK        -0.5000 
     27 CA         -2.8423  -19.4474  -44.6480 C.3       9 UNK         0.1400 
     28 CB         -3.3809  -18.8565  -43.3370 C.3       9 UNK        -0.1800 
     29 N          -1.7828  -18.5869  -45.1765 N.am      9 UNK        -0.5000 
     30 C          -1.1652  -18.7800  -46.3511 C.2       8 UNK         0.5000 
     31 O          -1.4373  -19.6918  -47.1276 O.2       8 UNK        -0.5000 
     32 CA         -0.0060  -17.8337  -46.6887 C.3       8 UNK         0.1400 
     33 CB         -0.5314  -16.4819  -47.1908 C.3       8 UNK        -0.1800 
     34 N           0.8918  -17.6370  -45.5514 N.am      8 UNK        -0.5000 
     35 C           1.6240  -18.6173  -45.0017 C.2       7 UNK         0.5000 
     36 O           1.6413  -19.7768  -45.4125 O.2       7 UNK        -0.5000 
     37 CA          2.4177  -18.2513  -43.7371 C.3       7 UNK         0.1400 
     38 CB          3.7021  -17.4898  -44.0961 C.3       7 UNK        -0.1800 
     39 N           1.6191  -17.4580  -42.8026 N.am      7 UNK        -0.5000 
     40 C           0.5339  -17.9140  -42.1595 C.2       6 UNK         0.5000 
     41 O           0.1218  -19.0696  -42.2468 O.2       6 UNK        -0.5000 
     42 CA         -0.2471  -16.8970  -41.3080 C.3       6 UNK         0.1400 
     43 CB          0.3126  -16.8478  -39.8788 C.3       6 UNK        -0.1800 
     44 N          -0.2393  -15.5485  -41.8771 N.am      6 UNK        -0.5000 
     45 C          -0.7914  -15.2061  -43.0507 C.2       5 UNK         0.5000 
     46 O          -1.3812  -15.9987  -43.7852 O.2       5 UNK        -0.5000 
     47 CA         -0.6122  -13.7418  -43.4916 C.3       5 UNK         0.1400 
     48 CB         -1.7610  -12.8698  -42.9664 C.3       5 UNK        -0.1800 
     49 N           0.6640  -13.1849  -43.0408 N.am      5 UNK        -0.5000 
     50 C           1.8627  -13.5188  -43.5335 C.2       4 UNK         0.5000 
     51 O           2.0189  -14.2291  -44.5308 O.2       4 UNK        -0.5000 
     52 CA          3.0717  -12.9610  -42.7584 C.3       4 UNK         0.1400 
     53 CB          4.4096  -13.5947  -43.1723 C.3       4 UNK        -0.1800 
     54 N           3.1575  -11.5065  -42.8822 N.am      4 UNK        -0.5000 
     55 C           2.4678  -10.6361  -42.1299 C.2       3 UNK         0.5000 
     56 O           1.6680  -10.9851  -41.2596 O.2       3 UNK        -0.5000 
     57 CA          2.6949   -9.1319  -42.3820 C.3       3 UNK         0.1400 
     58 CB          3.7155   -8.5697  -41.3807 C.3       3 UNK        -0.1800 
     59 N           3.1485   -8.8326  -43.7401 N.am      3 UNK        -0.5000 
     60 C           2.3812   -8.9202  -44.8336 C.2       2 UNK         0.5000 
     61 O           1.1859   -9.2176  -44.8061 O.2       2 UNK        -0.5000 
     62 CA          3.0575   -8.6683  -46.1963 C.3       2 UNK         0.1400 
     63 CB          4.4413   -7.9841  -46.1106 C.3       2 UNK        -0.1800 
     64 N           3.1329   -9.9142  -46.9619 N.am      2 UNK        -0.5000 
     65 C           3.7629  -11.0442  -46.6094 C.2       1 UNK         0.5000 
     66 O           4.4584  -11.1570  -45.5980 O.2       1 UNK        -0.5000 
     67 C          -0.7471  -23.2086  -48.1520 C.2       11 UNK         0.5000 
     68 O          -0.8393  -24.2767  -48.7574 O.2       11 UNK        -0.5000 
     69 N          -1.7433  -22.3165  -48.0610 N.am      12 UNK        -0.5000 
     70 CA         -3.0687  -22.4745  -48.6566 C.3       12 UNK         0.1400 
     71 CB         -3.8839  -21.1914  -48.4454 C.3       12 UNK        -0.1800 
     72 C          -3.8249  -23.7081  -48.1365 C.2       12 UNK         0.5000 
     73 O          -4.4869  -24.3818  -48.9263 O.2       12 UNK        -0.5000 
     74 N          -3.6852  -24.0016  -46.8379 N.am      13 UNK        -0.5000 
     75 CA         -4.2150  -25.2082  -46.2109 C.3       13 UNK         0.1400 
     76 CB         -4.2255  -25.0311  -44.6845 C.3       13 UNK        -0.1800 
     77 C          -3.4269  -26.4679  -46.6149 C.2       13 UNK         0.5000 
     78 O          -4.0373  -27.4564  -47.0225 O.2       13 UNK        -0.5000 
     79 N          -2.0926  -26.4142  -46.4926 N.am      14 UNK        -0.5000 
     80 CA         -1.1894  -27.5489  -46.6988 C.3       14 UNK         0.1400 
     81 CB          0.2181  -27.1848  -46.2020 C.3       14 UNK        -0.1800 
     82 C          -1.1315  -28.0446  -48.1533 C.2       14 UNK         0.5000 
     83 O          -1.1819  -29.2536  -48.3833 O.2       14 UNK        -0.5000 
     84 N          -1.0288  -27.1101  -49.1066 N.am      15 UNK        -0.5000 
     85 CA         -0.9493  -27.4055  -50.5394 C.3       15 UNK         0.1400 
     86 CB         -0.1195  -26.3066  -51.2248 C.3       15 UNK        -0.1800 
     87 C          -2.3345  -27.5203  -51.2032 C.2       15 UNK         0.5000 
     88 O          -2.4037  -27.8694  -52.3819 O.2       15 UNK        -0.5000 
     89 N          -3.3993  -27.1795  -50.4594 N.am      16 UNK        -0.5000 
     90 CA         -4.7905  -27.0246  -50.9062 C.3       16 UNK         0.1400 
     91 CB         -5.3724  -28.3579  -51.4188 C.3       16 UNK        -0.1800 
     92 C          -4.9763  -25.8636  -51.9099 C.2       16 UNK         0.5000 
     93 O          -5.9749  -25.8195  -52.6308 O.2       16 UNK        -0.5000 
     94 N          -4.0252  -24.9173  -51.9134 N.am      17 UNK        -0.5000 
     95 CA         -4.0032  -23.7283  -52.7636 C.3       17 UNK         0.1400 
     96 CB         -2.5772  -23.1560  -52.8100 C.3       17 UNK        -0.1800 
     97 C          -5.0311  -22.6560  -52.3556 C.2       17 UNK         0.5000 
     98 O          -5.1872  -21.6784  -53.0853 O.2       17 UNK        -0.5000 
     99 N          -5.7500  -22.8564  -51.2399 N.am      18 UNK        -0.5000 
    100 CA        -6.8963  -22.0488  -50.8067 C.3       18 UNK         0.1400 
    101 CB        -7.4708  -22.6386  -49.5087 C.3       18 UNK        -0.1800 
    102 C         -8.0061  -21.9417  -51.8714 C.2       18 UNK         0.5000 
    103 O         -8.6094  -20.8786  -52.0155 O.2       18 UNK        -0.5000 
    104 N         -8.2027  -23.0198  -52.6447 N.am      19 UNK        -0.5000 
    105 CA        -9.1191  -23.0842  -53.7869 C.3       19 UNK         0.1400 
    106 CB        -9.2317  -24.5468  -54.2432 C.3       19 UNK        -0.1800 
    107 C         -8.7043  -22.1819  -54.9695 C.2       19 UNK         0.5000 
    108 O         -9.5545  -21.8318  -55.7885 O.2       19 UNK        -0.5000 
    109 N         -7.4180  -21.8151  -55.0293 N.am      20 UNK        -0.5000 
    110 CA        -6.8234  -20.9120  -56.0135 C.3       20 UNK         0.1400 
    111 CB        -5.5837  -21.6015  -56.6111 C.3       20 UNK        -0.1800 
    112 C         -6.4521  -19.5535  -55.3829 C.2       20 UNK         0.5000 
    113 O         -5.7143  -18.7862  -56.0032 O.2       20 UNK        -0.5000 
    114 N         -6.9271  -19.2877  -54.1542 N.am      21 UNK        -0.5000 
    115 CA        -6.6619  -18.0977  -53.3361 C.3       21 UNK         0.1400 
    116 CB        -7.3782  -16.8680  -53.9316 C.3       21 UNK        -0.1800 
    117 C         -5.1565  -17.8546  -53.0808 C.2       21 UNK         0.5000 
    118 O         -4.7022  -16.7095  -53.1005 O.2       21 UNK        -0.5000 
    119 N         -4.4108  -18.9470  -52.8643 N.am      22 UNK        -0.5000 
    120 CA        -2.9442  -18.9999  -52.7316 C.3       22 UNK         0.1400 
    121 C         -2.1743  -18.8805  -54.0847 C.2       22 UNK         0.5000 
    122 N         -2.8337  -18.8168  -55.2362 N.am      22 UNK        -0.7600 
    123 O         -0.9480  -18.8808  -54.1045 O.2       22 UNK        -0.5000 
    124 C124       -2.3944  -18.0487  -51.6243 C.3       23 UNK        -0.0398 
    125 S125       -1.0511  -18.7699  -50.6193 S.3       23 UNK        -0.2404 
    126 C126        0.3957  -17.8106  -51.1790 C.3       23 UNK        -0.0205 
    127 H127       -0.9031  -12.0645  -46.9438 H         1 UNK         0.0600 
    128 H128       -0.1663  -13.6567  -46.7502 H         1 UNK         0.0600 
    129 H129       -0.8400  -13.1871  -48.3102 H         1 UNK         0.0600 
    130 H130        2.0454  -13.4218  -46.5289 H         1 UNK         0.3000 
    131 H131        3.5867  -11.9128  -48.5490 H         1 UNK         0.0600 
    132 H132        4.4728  -13.8375  -46.3437 H         1 UNK         0.0800 
    133 H133        5.5631  -12.9794  -47.4020 H         1 UNK         0.0800 
    134 H134        4.1986  -16.3349  -46.8740 H         1 UNK         0.0800 
    135 H135        2.6649  -15.5490  -47.1583 H         1 UNK         0.0800 
    136 H136        1.5613  -15.9673  -49.5291 H         1 UNK         0.1150 
    137 H137        1.8529  -20.0652  -50.7459 H         1 UNK         0.1150 
    138 H138        4.4881  -18.5324  -47.7317 H         1 UNK         0.1150 
    139 H139        3.7705  -21.3951  -49.9966 H         1 UNK         0.0800 
    140 H140        4.9451  -20.7204  -48.8962 H         1 UNK         0.0800 
    141 H141        1.4249  -22.1952  -49.3075 H         1 UNK         0.0800 
    142 H142        0.9423  -20.8916  -48.2429 H         1 UNK         0.0800 
    143 H143        1.1271  -23.8012  -47.3332 H         1 UNK         0.0600 
    144 H144        0.6360  -21.4404  -45.8462 H         1 UNK         0.3000 
    145 H145       -1.2186  -23.0290  -43.1737 H         1 UNK         0.0600 
    146 H146        0.5613  -21.8442  -41.9459 H         1 UNK         0.0600 
    147 H147        1.2459  -23.2201  -42.7973 H         1 UNK         0.0600 
    148 H148        1.4767  -21.5952  -43.4301 H         1 UNK         0.0600 
    149 H149       -0.6491  -20.2884  -43.5899 H         1 UNK         0.3000 
    150 H150       -3.6550  -19.4494  -45.3771 H         1 UNK         0.0600 
    151 H151       -4.2130  -19.4497  -42.9558 H         1 UNK         0.0600 
    152 H152       -3.7446  -17.8390  -43.4820 H         1 UNK         0.0600 
    153 H153       -2.6151  -18.8310  -42.5622 H         1 UNK         0.0600 
    154 H154       -1.5158  -17.7862  -44.6115 H         1 UNK         0.3000 
    155 H155        0.5693  -18.2997  -47.4901 H         1 UNK         0.0600 
    156 H156       -1.1393  -15.9755  -46.4413 H         1 UNK         0.0600 
    157 H157       -1.1487  -16.6140  -48.0803 H         1 UNK         0.0600 
    158 H158        0.2884  -15.8202  -47.4624 H         1 UNK         0.0600 
    159 H159        0.9036  -16.7210  -45.1271 H         1 UNK         0.3000 
    160 H160        2.7004  -19.1814  -43.2393 H         1 UNK         0.0600 
    161 H161        3.4841  -16.5258  -44.5556 H         1 UNK         0.0600 
    162 H162        4.3093  -18.0601  -44.8004 H         1 UNK         0.0600 
    163 H163        4.3133  -17.3096  -43.2118 H         1 UNK         0.0600 
    164 H164        1.8763  -16.4897  -42.6894 H         1 UNK         0.3000 
    165 H165       -1.2845  -17.2332  -41.2573 H         1 UNK         0.0600 
    166 H166       -0.2825  -16.1907  -39.2444 H         1 UNK         0.0600 
    167 H167        0.2999  -17.8379  -39.4209 H         1 UNK         0.0600 
    168 H168        1.3431  -16.4907  -39.8605 H         1 UNK         0.0600 
    169 H169        0.2187  -14.8309  -41.3355 H         1 UNK         0.3000 
    170 H170       -0.6395  -13.7183  -44.5799 H         1 UNK         0.0600 
    171 H171       -2.7259  -13.2518  -43.3026 H         1 UNK         0.0600 
    172 H172       -1.7802  -12.8398  -41.8762 H         1 UNK         0.0600 
    173 H173       -1.6734  -11.8452  -43.3287 H         1 UNK         0.0600 
    174 H174        0.6373  -12.5400  -42.2586 H         1 UNK         0.3000 
    175 H175        2.9191  -13.2198  -41.7083 H         1 UNK         0.0600 
    176 H176        5.2177  -13.2574  -42.5231 H         1 UNK         0.0600 
    177 H177        4.3697  -14.6816  -43.0991 H         1 UNK         0.0600 
    178 H178        4.6826  -13.3418  -44.1933 H         1 UNK         0.0600 
    179 H179        3.7411  -11.1562  -43.6345 H         1 UNK         0.3000 
    180 H180        1.7421   -8.6239  -42.2180 H         1 UNK         0.0600 
    181 H181        4.6967   -9.0300  -41.5046 H         1 UNK         0.0600 
    182 H182        3.3955   -8.7502  -40.3535 H         1 UNK         0.0600 
    183 H183        3.8318   -7.4922  -41.4986 H         1 UNK         0.0600 
    184 H184        4.1264   -8.6081  -43.8546 H         1 UNK         0.3000 
    185 H185        2.3944   -8.0014  -46.7492 H         1 UNK         0.0600 
    186 H186        5.1840   -8.5977  -45.6003 H         1 UNK         0.0600 
    187 H187        4.8266   -7.7673  -47.1069 H         1 UNK         0.0600 
    188 H188        4.3750   -7.0331  -45.5805 H         1 UNK         0.0600 
    189 H189        2.5138   -9.9690  -47.7629 H         1 UNK         0.3000 
    190 H190       -1.5778  -21.4366  -47.5737 H         1 UNK         0.3000 
    191 H191       -2.9311  -22.6087  -49.7282 H         1 UNK         0.0600 
    192 H192       -3.3927  -20.3341  -48.9062 H         1 UNK         0.0600 
    193 H193       -4.8713  -21.2701  -48.8938 H         1 UNK         0.0600 
    194 H194       -4.0203  -20.9720  -47.3863 H         1 UNK         0.0600 
    195 H195       -3.1627  -23.3668  -46.2437 H         1 UNK         0.3000 
    196 H196       -5.2482  -25.3404  -46.5394 H         1 UNK         0.0600 
    197 H197       -4.6198  -25.9195  -44.1899 H         1 UNK         0.0600 
    198 H198       -4.8533  -24.1893  -44.3921 H         1 UNK         0.0600 
    199 H199       -3.2248  -24.8506  -44.2904 H         1 UNK         0.0600 
    200 H200       -1.6641  -25.5609  -46.1402 H         1 UNK         0.3000 
    201 H201       -1.5556  -28.3755  -46.0863 H         1 UNK         0.0600 
    202 H202        0.2091  -26.9384  -45.1402 H         1 UNK         0.0600 
    203 H203        0.6251  -26.3281  -46.7407 H         1 UNK         0.0600 
    204 H204        0.9098  -28.0174  -46.3359 H         1 UNK         0.0600 
    205 H205       -0.9884  -26.1265  -48.8442 H         1 UNK         0.3000 
    206 H206       -0.4335  -28.3566  -50.6874 H         1 UNK         0.0600 
    207 H207        0.8573  -26.1962  -50.7536 H         1 UNK         0.0600 
    208 H208        0.0521  -26.5443  -52.2753 H         1 UNK         0.0600 
    209 H209       -0.6208  -25.3390  -51.1884 H         1 UNK         0.0600 
    210 H210       -3.2270  -26.9223  -49.4969 H         1 UNK         0.3000 
    211 H211       -5.3578  -26.7447  -50.0175 H         1 UNK         0.0600 
    212 H212       -4.9240  -28.6627  -52.3644 H         1 UNK         0.0600 
    213 H213       -6.4475  -28.2760  -51.5821 H         1 UNK         0.0600 
    214 H214       -5.2153  -29.1596  -50.6972 H         1 UNK         0.0600 
    215 H215       -3.2711  -25.0151  -51.2501 H         1 UNK         0.3000 
    216 H216       -4.2667  -24.0387  -53.7768 H         1 UNK         0.0600 
    217 H217       -2.5201  -22.3054  -53.4906 H         1 UNK         0.0600 
    218 H218       -1.8683  -23.9014  -53.1709 H         1 UNK         0.0600 
    219 H219       -2.2339  -22.8170  -51.8342 H         1 UNK         0.0600 
    220 H220       -5.5192  -23.6567  -50.6628 H         1 UNK         0.3000 
    221 H221       -6.5361  -21.0382  -50.6054 H         1 UNK         0.0600 
    222 H222       -7.8187  -23.6622  -49.6534 H         1 UNK         0.0600 
    223 H223       -6.7323  -22.6518  -48.7084 H         1 UNK         0.0600 
    224 H224       -8.3184  -22.0507  -49.1541 H         1 UNK         0.0600 
    225 H225       -7.6463  -23.8459  -52.4686 H         1 UNK         0.3000 
    226 H226      -10.1031  -22.7514  -53.4504 H         1 UNK         0.0600 
    227 H227       -9.6026  -25.1834  -53.4398 H         1 UNK         0.0600 
    228 H228       -9.9242  -24.6447  -55.0803 H         1 UNK         0.0600 
    229 H229       -8.2672  -24.9419  -54.5655 H         1 UNK         0.0600 
    230 H230       -6.7924  -22.1096  -54.2887 H         1 UNK         0.3000 
    231 H231       -7.5271  -20.7092  -56.8229 H         1 UNK         0.0600 
    232 H232       -5.8417  -22.5670  -57.0465 H         1 UNK         0.0600 
    233 H233       -4.8135  -21.7689  -55.8570 H         1 UNK         0.0600 
    234 H234       -5.1407  -20.9985  -57.4046 H         1 UNK         0.0600 
    235 H235       -7.5147  -19.9856  -53.7155 H         1 UNK         0.3000 
    236 H236       -7.1047  -18.2957  -52.3589 H         1 UNK         0.0600 
    237 H237       -7.2953  -16.0064  -53.2681 H         1 UNK         0.0600 
    238 H238       -6.9560  -16.5813  -54.8953 H         1 UNK         0.0600 
    239 H239       -8.4408  -17.0631  -54.0757 H         1 UNK         0.0600 
    240 H240       -4.8615  -19.8573  -52.9229 H         1 UNK         0.3000 
    241 H241       -2.7593  -20.0234  -52.4047 H         1 UNK         0.0600 
    242 H242       -3.8467  -18.7982  -55.2733 H         1 UNK         0.3800 
    243 H243       -2.3090  -18.7534  -56.0937 H         1 UNK         0.3800 
    244 H244       -3.1864  -17.8107  -50.9132 H         1 UNK         0.0800 
    245 H245       -2.0906  -17.0885  -52.0441 H         1 UNK         0.0800 
    246 H246        0.1292  -16.7548  -51.2442 H         1 UNK         0.0800 
    247 H247        0.6789  -18.1245  -52.1838 H         1 UNK         0.0800 
@<TRIPOS>BOND
     1    1    2 1    
     2    1  127 1    
     3    1  128 1    
     4    1  129 1    
     5    2    3 2    
     6    2    4 am   BACKBONE|DICT|INTERRES
     7    4    5 1    
     8    4  130 1    
     9    5    6 1    
    10    5   65 1    
    11    5  131 1    
    12    6    7 1    
    13    6  132 1    
    14    6  133 1    
    15    7    8 1    
    16    8    9 1    
    17    8  134 1    
    18    8  135 1    
    19    9   10 ar   
    20    9   14 ar   
    21   10   11 ar   
    22   10  136 1    
    23   11   12 ar   
    24   11  126 1    
    25   12   13 ar   
    26   12  137 1    
    27   13   14 ar   
    28   13   15 1    
    29   14  138 1    
    30   15   16 1    
    31   15  139 1    
    32   15  140 1    
    33   16   17 1    
    34   17   18 1    
    35   17  141 1    
    36   17  142 1    
    37   18   19 1    
    38   18   67 1    
    39   18  143 1    
    40   19   20 am   BACKBONE|DICT|INTERRES
    41   19  144 1    
    42   20   21 2    
    43   20   22 1    
    44   22   23 1    
    45   22   24 1    
    46   22  145 1    
    47   23  146 1    
    48   23  147 1    
    49   23  148 1    
    50   24   25 am   BACKBONE|DICT|INTERRES
    51   24  149 1    
    52   25   26 2    
    53   25   27 1    
    54   27   28 1    
    55   27   29 1    
    56   27  150 1    
    57   28  151 1    
    58   28  152 1    
    59   28  153 1    
    60   29   30 am   BACKBONE|DICT|INTERRES
    61   29  154 1    
    62   30   31 2    
    63   30   32 1    
    64   32   33 1    
    65   32   34 1    
    66   32  155 1    
    67   33  156 1    
    68   33  157 1    
    69   33  158 1    
    70   34   35 am   BACKBONE|DICT|INTERRES
    71   34  159 1    
    72   35   36 2    
    73   35   37 1    
    74   37   38 1    
    75   37   39 1    
    76   37  160 1    
    77   38  161 1    
    78   38  162 1    
    79   38  163 1    
    80   39   40 am   BACKBONE|DICT|INTERRES
    81   39  164 1    
    82   40   41 2    
    83   40   42 1    
    84   42   43 1    
    85   42   44 1    
    86   42  165 1    
    87   43  166 1    
    88   43  167 1    
    89   43  168 1    
    90   44   45 am   BACKBONE|DICT|INTERRES
    91   44  169 1    
    92   45   46 2    
    93   45   47 1    
    94   47   48 1    
    95   47   49 1    
    96   47  170 1    
    97   48  171 1    
    98   48  172 1    
    99   48  173 1    
   100   49   50 am   BACKBONE|DICT|INTERRES
   101   49  174 1    
   102   50   51 2    
   103   50   52 1    
   104   52   53 1    
   105   52   54 1    
   106   52  175 1    
   107   53  176 1    
   108   53  177 1    
   109   53  178 1    
   110   54   55 am   BACKBONE|DICT|INTERRES
   111   54  179 1    
   112   55   56 2    
   113   55   57 1    
   114   57   58 1    
   115   57   59 1    
   116   57  180 1    
   117   58  181 1    
   118   58  182 1    
   119   58  183 1    
   120   59   60 am   BACKBONE|DICT|INTERRES
   121   59  184 1    
   122   60   61 2    
   123   60   62 1    
   124   62   63 1    
   125   62   64 1    
   126   62  185 1    
   127   63  186 1    
   128   63  187 1    
   129   63  188 1    
   130   64   65 am   BACKBONE|DICT|INTERRES
   131   64  189 1    
   132   65   66 2    
   133   67   68 2    
   134   67   69 am   BACKBONE|DICT|INTERRES
   135   69   70 1    
   136   69  190 1    
   137   70   71 1    
   138   70   72 1    
   139   70  191 1    
   140   71  192 1    
   141   71  193 1    
   142   71  194 1    
   143   72   73 2    
   144   72   74 am   BACKBONE|DICT|INTERRES
   145   74   75 1    
   146   74  195 1    
   147   75   76 1    
   148   75   77 1    
   149   75  196 1    
   150   76  197 1    
   151   76  198 1    
   152   76  199 1    
   153   77   78 2    
   154   77   79 am   BACKBONE|DICT|INTERRES
   155   79   80 1    
   156   79  200 1    
   157   80   81 1    
   158   80   82 1    
   159   80  201 1    
   160   81  202 1    
   161   81  203 1    
   162   81  204 1    
   163   82   83 2    
   164   82   84 am   BACKBONE|DICT|INTERRES
   165   84   85 1    
   166   84  205 1    
   167   85   86 1    
   168   85   87 1    
   169   85  206 1    
   170   86  207 1    
   171   86  208 1    
   172   86  209 1    
   173   87   88 2    
   174   87   89 am   BACKBONE|DICT|INTERRES
   175   89   90 1    
   176   89  210 1    
   177   90   91 1    
   178   90   92 1    
   179   90  211 1    
   180   91  212 1    
   181   91  213 1    
   182   91  214 1    
   183   92   93 2    
   184   92   94 am   BACKBONE|DICT|INTERRES
   185   94   95 1    
   186   94  215 1    
   187   95   96 1    
   188   95   97 1    
   189   95  216 1    
   190   96  217 1    
   191   96  218 1    
   192   96  219 1    
   193   97   98 2    
   194   97   99 am   BACKBONE|DICT|INTERRES
   195   99  100 1    
   196   99  220 1    
   197  100  101 1    
   198  100  102 1    
   199  100  221 1    
   200  101  222 1    
   201  101  223 1    
   202  101  224 1    
   203  102  103 2    
   204  102  104 am   BACKBONE|DICT|INTERRES
   205  104  105 1    
   206  104  225 1    
   207  105  106 1    
   208  105  107 1    
   209  105  226 1    
   210  106  227 1    
   211  106  228 1    
   212  106  229 1    
   213  107  108 2    
   214  107  109 am   BACKBONE|DICT|INTERRES
   215  109  110 1    
   216  109  230 1    
   217  110  111 1    
   218  110  112 1    
   219  110  231 1    
   220  111  232 1    
   221  111  233 1    
   222  111  234 1    
   223  112  113 2    
   224  112  114 am   BACKBONE|DICT|INTERRES
   225  114  115 1    
   226  114  235 1    
   227  115  116 1    
   228  115  117 1    
   229  115  236 1    
   230  116  237 1    
   231  116  238 1    
   232  116  239 1    
   233  117  118 2    
   234  117  119 am   BACKBONE|DICT|INTERRES
   235  119  120 1    
   236  119  240 1    
   237  120  121 1    
   238  120  124 1    
   239  120  241 1    
   240  121  122 am   BACKBONE|DICT|INTERRES
   241  121  123 2    
   242  122  242 1    
   243  122  243 1    
   244  124  125 1    
   245  124  244 1    
   246  124  245 1    
   247  125  126 1    
   248  126  246 1    
   249  126  247 1    
@<TRIPOS>SUBSTRUCTURE
     1 UNK         1 GROUP             0       ****    0 ROOT    
