@<TRIPOS>MOLECULE
3R540
247   249    1
SMALL
USER_CHARGES


@<TRIPOS>ATOM
      1 CA         -2.1191  -10.8668  -50.6564 C.3       0 UNK        -0.1800 
      2 C          -1.0096  -10.8418  -49.6140 C.2       0 UNK         0.5000 
      3 O          -0.1828   -9.9289  -49.6203 O.2       0 UNK        -0.5000 
      4 N          -0.9846  -11.8443  -48.7284 N.am      1 UNK        -0.5000 
      5 CA         -0.0203  -11.9720  -47.6296 C.3       1 UNK         0.1400 
      6 C6          0.0406  -13.4165  -47.0763 C.3       23 UNK        -0.0398 
      7 S7          0.5217  -14.6245  -48.3574 S.3       23 UNK        -0.2404 
      8 C8         -0.9365  -15.7115  -48.3848 C.3       23 UNK        -0.0205 
      9 C9         -0.8873  -16.6649  -49.5659 C.ar      23 UNK        -0.0193 
     10 C10        -1.7228  -16.4614  -50.6674 C.ar      23 UNK        -0.1150 
     11 C11        -1.6872  -17.3391  -51.7529 C.ar      23 UNK        -0.0193 
     12 C12        -0.8012  -18.4207  -51.7369 C.ar      23 UNK        -0.1150 
     13 C13         0.0319  -18.6410  -50.6366 C.ar      23 UNK        -0.0193 
     14 C14        -0.0133  -17.7561  -49.5556 C.ar      23 UNK        -0.1150 
     15 C15         0.9850  -19.8277  -50.6256 C.3       23 UNK        -0.0205 
     16 S16         0.1865  -21.3431  -50.0064 S.3       23 UNK        -0.2404 
     17 C17         0.2036  -21.0406  -48.2090 C.3       23 UNK        -0.0398 
     18 CA         -0.4956  -22.1533  -47.3905 C.3       11 UNK         0.1400 
     19 N          -0.0129  -22.1829  -46.0044 N.am      11 UNK        -0.5000 
     20 C          -0.3571  -23.0983  -45.0863 C.2       10 UNK         0.5000 
     21 O          -1.1152  -24.0413  -45.3088 O.2       10 UNK        -0.5000 
     22 CA          0.2010  -22.9063  -43.6655 C.3       10 UNK         0.1400 
     23 CB          1.6527  -23.3998  -43.5804 C.3       10 UNK        -0.1800 
     24 N           0.1166  -21.5206  -43.2016 N.am      10 UNK        -0.5000 
     25 C          -1.0293  -20.8448  -43.0310 C.2       9 UNK         0.5000 
     26 O          -2.1429  -21.3276  -43.2261 O.2       9 UNK        -0.5000 
     27 CA         -0.9185  -19.3641  -42.6308 C.3       9 UNK         0.1400 
     28 CB         -0.6017  -19.2166  -41.1352 C.3       9 UNK        -0.1800 
     29 N           0.0805  -18.6467  -43.4185 N.am      9 UNK        -0.5000 
     30 C           0.0452  -18.4975  -44.7502 C.2       8 UNK         0.5000 
     31 O          -0.8601  -18.9174  -45.4731 O.2       8 UNK        -0.5000 
     32 CA          1.2646  -17.8065  -45.3798 C.3       8 UNK         0.1400 
     33 CB          1.2065  -16.2870  -45.1635 C.3       8 UNK        -0.1800 
     34 N           2.5233  -18.3304  -44.8497 N.am      8 UNK        -0.5000 
     35 C           2.9618  -19.5846  -45.0281 C.2       7 UNK         0.5000 
     36 O           2.3656  -20.4321  -45.6918 O.2       7 UNK        -0.5000 
     37 CA          4.2648  -19.9655  -44.3034 C.3       7 UNK         0.1400 
     38 CB          5.4890  -19.4827  -45.0954 C.3       7 UNK        -0.1800 
     39 N           4.3223  -19.4309  -42.9421 N.am      7 UNK        -0.5000 
     40 C           3.5124  -19.8159  -41.9456 C.2       6 UNK         0.5000 
     41 O           2.6489  -20.6841  -42.0620 O.2       6 UNK        -0.5000 
     42 CA          3.6615  -19.0721  -40.6067 C.3       6 UNK         0.1400 
     43 CB          4.7788  -19.7001  -39.7603 C.3       6 UNK        -0.1800 
     44 N           3.9144  -17.6368  -40.7622 N.am      6 UNK        -0.5000 
     45 C           3.0704  -16.7763  -41.3463 C.2       5 UNK         0.5000 
     46 O           2.0121  -17.1130  -41.8826 O.2       5 UNK        -0.5000 
     47 CA          3.5046  -15.2987  -41.3691 C.3       5 UNK         0.1400 
     48 CB          4.2453  -14.9801  -42.6771 C.3       5 UNK        -0.1800 
     49 N           2.3757  -14.3781  -41.2294 N.am      5 UNK        -0.5000 
     50 C           1.5623  -14.3091  -40.1655 C.2       4 UNK         0.5000 
     51 O           1.6914  -15.0085  -39.1581 O.2       4 UNK        -0.5000 
     52 CA          0.4371  -13.2535  -40.2429 C.3       4 UNK         0.1400 
     53 CB         -0.3036  -13.0599  -38.9030 C.3       4 UNK        -0.1800 
     54 N           0.8968  -11.9597  -40.7650 N.am      4 UNK        -0.5000 
     55 C           1.8847  -11.1894  -40.2815 C.2       3 UNK         0.5000 
     56 O           2.5487  -11.4772  -39.2844 O.2       3 UNK        -0.5000 
     57 CA          2.1687   -9.8549  -41.0063 C.3       3 UNK         0.1400 
     58 CB          3.6780   -9.6426  -41.2494 C.3       3 UNK        -0.1800 
     59 N           1.4010   -9.6330  -42.2420 N.am      3 UNK        -0.5000 
     60 C           1.5106  -10.2818  -43.4098 C.2       2 UNK         0.5000 
     61 O           2.2534  -11.2490  -43.5998 O.2       2 UNK        -0.5000 
     62 CA          0.6262   -9.7532  -44.5502 C.3       2 UNK         0.1400 
     63 CB          1.0737   -8.3525  -45.0066 C.3       2 UNK        -0.1800 
     64 N           0.6915  -10.6672  -45.6864 N.am      2 UNK        -0.5000 
     65 C          -0.3271  -10.9678  -46.4974 C.2       1 UNK         0.5000 
     66 O          -1.4649  -10.5075  -46.3642 O.2       1 UNK        -0.5000 
     67 C          -2.0334  -22.0328  -47.4705 C.2       11 UNK         0.5000 
     68 O          -2.6633  -22.7244  -48.2745 O.2       11 UNK        -0.5000 
     69 N          -2.6077  -21.1836  -46.6075 N.am      12 UNK        -0.5000 
     70 CA         -4.0490  -21.0158  -46.4540 C.3       12 UNK         0.1400 
     71 CB         -4.3316  -19.7300  -45.6624 C.3       12 UNK        -0.1800 
     72 C          -4.7132  -22.2377  -45.7921 C.2       12 UNK         0.5000 
     73 O          -5.6993  -22.7475  -46.3236 O.2       12 UNK        -0.5000 
     74 N          -4.1594  -22.6966  -44.6599 N.am      13 UNK        -0.5000 
     75 CA         -4.6899  -23.7962  -43.8470 C.3       13 UNK         0.1400 
     76 CB         -3.9053  -23.8915  -42.5300 C.3       13 UNK        -0.1800 
     77 C          -4.6958  -25.1571  -44.5643 C.2       13 UNK         0.5000 
     78 O          -5.6494  -25.9203  -44.4068 O.2       13 UNK        -0.5000 
     79 N          -3.6516  -25.4281  -45.3583 N.am      14 UNK        -0.5000 
     80 CA         -3.5359  -26.6266  -46.1925 C.3       14 UNK         0.1400 
     81 CB         -2.0590  -26.8249  -46.5713 C.3       14 UNK        -0.1800 
     82 C          -4.4049  -26.5688  -47.4652 C.2       14 UNK         0.5000 
     83 O          -4.5155  -27.5803  -48.1583 O.2       14 UNK        -0.5000 
     84 N          -4.9624  -25.3862  -47.7719 N.am      15 UNK        -0.5000 
     85 CA         -5.6971  -25.0245  -48.9892 C.3       15 UNK         0.1400 
     86 CB         -6.9865  -25.8564  -49.1420 C.3       15 UNK        -0.1800 
     87 C          -4.8217  -25.0465  -50.2594 C.2       15 UNK         0.5000 
     88 O          -5.3549  -25.0462  -51.3696 O.2       15 UNK        -0.5000 
     89 N          -3.4932  -25.0154  -50.0821 N.am      16 UNK        -0.5000 
     90 CA         -2.4953  -24.9566  -51.1484 C.3       16 UNK         0.1400 
     91 CB         -1.0938  -25.1219  -50.5437 C.3       16 UNK        -0.1800 
     92 C          -2.5961  -23.6534  -51.9566 C.2       16 UNK         0.5000 
     93 O          -2.4432  -23.6833  -53.1770 O.2       16 UNK        -0.5000 
     94 N          -2.9214  -22.5531  -51.2626 N.am      17 UNK        -0.5000 
     95 CA         -3.2036  -21.2388  -51.8362 C.3       17 UNK         0.1400 
     96 CB         -3.5187  -20.2577  -50.6947 C.3       17 UNK        -0.1800 
     97 C          -4.3599  -21.2690  -52.8517 C.2       17 UNK         0.5000 
     98 O          -4.2390  -20.6982  -53.9369 O.2       17 UNK        -0.5000 
     99 N          -5.4433  -21.9648  -52.4809 N.am      18 UNK        -0.5000 
    100 CA        -6.6309  -22.1616  -53.3068 C.3       18 UNK         0.1400 
    101 CB        -7.8018  -22.6151  -52.4213 C.3       18 UNK        -0.1800 
    102 C         -6.3821  -23.1637  -54.4453 C.2       18 UNK         0.5000 
    103 O         -6.7839  -22.8972  -55.5774 O.2       18 UNK        -0.5000 
    104 N         -5.7028  -24.2785  -54.1375 N.am      19 UNK        -0.5000 
    105 CA        -5.3670  -25.3438  -55.0863 C.3       19 UNK         0.1400 
    106 CB        -4.7422  -26.5258  -54.3309 C.3       19 UNK        -0.1800 
    107 C         -4.4404  -24.8763  -56.2238 C.2       19 UNK         0.5000 
    108 O         -4.6491  -25.2609  -57.3749 O.2       19 UNK        -0.5000 
    109 N         -3.4582  -24.0292  -55.8887 N.am      20 UNK        -0.5000 
    110 CA        -2.5539  -23.3882  -56.8448 C.3       20 UNK         0.1400 
    111 CB        -1.2761  -22.9614  -56.1041 C.3       20 UNK        -0.1800 
    112 C         -3.1814  -22.1705  -57.5520 C.2       20 UNK         0.5000 
    113 O         -2.5693  -21.6420  -58.4815 O.2       20 UNK        -0.5000 
    114 N         -4.3463  -21.7054  -57.0709 N.am      21 UNK        -0.5000 
    115 CA        -5.0629  -20.4889  -57.4806 C.3       21 UNK         0.1400 
    116 CB        -5.6674  -20.6697  -58.8875 C.3       21 UNK        -0.1800 
    117 C         -4.1971  -19.2142  -57.3572 C.2       21 UNK         0.5000 
    118 O         -4.3359  -18.2829  -58.1520 O.2       21 UNK        -0.5000 
    119 N         -3.2898  -19.2251  -56.3728 N.am      22 UNK        -0.5000 
    120 CA        -2.2131  -18.2503  -56.1549 C.3       22 UNK         0.1400 
    121 C         -1.1431  -18.1637  -57.2901 C.2       22 UNK         0.5000 
    122 N         -1.0494  -19.1302  -58.1967 N.am      22 UNK        -0.7600 
    123 O         -0.3586  -17.2203  -57.3397 O.2       22 UNK        -0.5000 
    124 C124       -2.7557  -16.8654  -55.6939 C.3       23 UNK        -0.0398 
    125 S125       -1.8137  -16.2189  -54.2737 S.3       23 UNK        -0.2404 
    126 C126       -2.6239  -17.1397  -52.9311 C.3       23 UNK        -0.0205 
    127 H127       -2.7618  -11.7404  -50.5440 H         1 UNK         0.0600 
    128 H128       -2.7388   -9.9746  -50.5660 H         1 UNK         0.0600 
    129 H129       -1.6918  -10.8868  -51.6590 H         1 UNK         0.0600 
    130 H130       -1.7017  -12.5529  -48.7641 H         1 UNK         0.3000 
    131 H131        0.9674  -11.7239  -48.0252 H         1 UNK         0.0600 
    132 H132       -0.9156  -13.7006  -46.6330 H         1 UNK         0.0800 
    133 H133        0.7774  -13.4852  -46.2742 H         1 UNK         0.0800 
    134 H134       -1.8427  -15.1053  -48.4271 H         1 UNK         0.0800 
    135 H135       -0.9909  -16.2852  -47.4590 H         1 UNK         0.0800 
    136 H136       -2.4042  -15.6224  -50.6799 H         1 UNK         0.1150 
    137 H137       -0.7672  -19.0979  -52.5783 H         1 UNK         0.1150 
    138 H138        0.6363  -17.9111  -48.7071 H         1 UNK         0.1150 
    139 H139        1.3456  -20.0131  -51.6384 H         1 UNK         0.0800 
    140 H140        1.8693  -19.6041  -50.0268 H         1 UNK         0.0800 
    141 H141        1.2539  -20.9775  -47.9263 H         1 UNK         0.0800 
    142 H142       -0.2286  -20.0642  -47.9871 H         1 UNK         0.0800 
    143 H143       -0.2236  -23.1182  -47.8226 H         1 UNK         0.0600 
    144 H144        0.6469  -21.4571  -45.7416 H         1 UNK         0.3000 
    145 H145       -0.4012  -23.5170  -42.9900 H         1 UNK         0.0600 
    146 H146        2.3210  -22.7956  -44.1945 H         1 UNK         0.0600 
    147 H147        2.0198  -23.3661  -42.5546 H         1 UNK         0.0600 
    148 H148        1.7356  -24.4326  -43.9210 H         1 UNK         0.0600 
    149 H149        0.9962  -21.0652  -42.9739 H         1 UNK         0.3000 
    150 H150       -1.8862  -18.8955  -42.8212 H         1 UNK         0.0600 
    151 H151       -0.5810  -18.1678  -40.8383 H         1 UNK         0.0600 
    152 H152        0.3645  -19.6531  -40.8824 H         1 UNK         0.0600 
    153 H153       -1.3570  -19.7141  -40.5257 H         1 UNK         0.0600 
    154 H154        0.8532  -18.2322  -42.9034 H         1 UNK         0.3000 
    155 H155        1.2406  -18.0013  -46.4531 H         1 UNK         0.0600 
    156 H156        0.2518  -15.8836  -45.4983 H         1 UNK         0.0600 
    157 H157        1.9929  -15.7798  -45.7225 H         1 UNK         0.0600 
    158 H158        1.3125  -16.0157  -44.1142 H         1 UNK         0.0600 
    159 H159        3.0485  -17.7186  -44.2440 H         1 UNK         0.3000 
    160 H160        4.3058  -21.0552  -44.2427 H         1 UNK         0.0600 
    161 H161        5.5217  -18.3948  -45.1674 H         1 UNK         0.0600 
    162 H162        5.4764  -19.8789  -46.1117 H         1 UNK         0.0600 
    163 H163        6.4162  -19.8164  -44.6294 H         1 UNK         0.0600 
    164 H164        5.0039  -18.7095  -42.7590 H         1 UNK         0.3000 
    165 H165        2.7210  -19.1843  -40.0634 H         1 UNK         0.0600 
    166 H166        5.7553  -19.5883  -40.2331 H         1 UNK         0.0600 
    167 H167        4.8294  -19.2430  -38.7719 H         1 UNK         0.0600 
    168 H168        4.6048  -20.7671  -39.6144 H         1 UNK         0.0600 
    169 H169        4.7691  -17.2854  -40.3548 H         1 UNK         0.3000 
    170 H170        4.1821  -15.1204  -40.5315 H         1 UNK         0.0600 
    171 H171        5.1126  -15.6288  -42.8063 H         1 UNK         0.0600 
    172 H172        3.6026  -15.1130  -43.5479 H         1 UNK         0.0600 
    173 H173        4.6070  -13.9515  -42.6840 H         1 UNK         0.0600 
    174 H174        2.2025  -13.7566  -42.0062 H         1 UNK         0.3000 
    175 H175       -0.2861  -13.6377  -40.9638 H         1 UNK         0.0600 
    176 H176       -1.1117  -12.3349  -39.0007 H         1 UNK         0.0600 
    177 H177       -0.7486  -13.9957  -38.5630 H         1 UNK         0.0600 
    178 H178        0.3662  -12.7111  -38.1164 H         1 UNK         0.0600 
    179 H179        0.4246  -11.6295  -41.5938 H         1 UNK         0.3000 
    180 H180        1.8415   -9.0756  -40.3166 H         1 UNK         0.0600 
    181 H181        3.8685   -8.6901  -41.7439 H         1 UNK         0.0600 
    182 H182        4.2290   -9.6322  -40.3082 H         1 UNK         0.0600 
    183 H183        4.1063  -10.4334  -41.8657 H         1 UNK         0.0600 
    184 H184        0.7381   -8.8714  -42.1905 H         1 UNK         0.3000 
    185 H185       -0.3968   -9.7004  -44.1717 H         1 UNK         0.0600 
    186 H186        0.4430   -7.9824  -45.8152 H         1 UNK         0.0600 
    187 H187        1.0107   -7.6287  -44.1935 H         1 UNK         0.0600 
    188 H188        2.1044   -8.3579  -45.3636 H         1 UNK         0.0600 
    189 H189        1.5812  -11.1389  -45.7888 H         1 UNK         0.3000 
    190 H190       -2.0155  -20.6300  -45.9979 H         1 UNK         0.3000 
    191 H191       -4.4843  -20.8985  -47.4487 H         1 UNK         0.0600 
    192 H192       -5.4042  -19.5705  -45.5457 H         1 UNK         0.0600 
    193 H193       -3.9256  -18.8573  -46.1746 H         1 UNK         0.0600 
    194 H194       -3.8927  -19.7627  -44.6648 H         1 UNK         0.0600 
    195 H195       -3.3534  -22.2077  -44.2743 H         1 UNK         0.3000 
    196 H196       -5.7260  -23.5518  -43.6042 H         1 UNK         0.0600 
    197 H197       -4.2873  -24.6977  -41.9024 H         1 UNK         0.0600 
    198 H198       -3.9856  -22.9684  -41.9558 H         1 UNK         0.0600 
    199 H199       -2.8470  -24.0854  -42.7078 H         1 UNK         0.0600 
    200 H200       -2.8735  -24.7731  -45.3958 H         1 UNK         0.3000 
    201 H201       -3.8590  -27.4925  -45.6111 H         1 UNK         0.0600 
    202 H202       -1.4306  -26.9002  -45.6837 H         1 UNK         0.0600 
    203 H203       -1.6853  -25.9981  -47.1770 H         1 UNK         0.0600 
    204 H204       -1.9194  -27.7415  -47.1458 H         1 UNK         0.0600 
    205 H205       -4.8298  -24.6236  -47.1186 H         1 UNK         0.3000 
    206 H206       -5.9953  -23.9839  -48.8555 H         1 UNK         0.0600 
    207 H207       -7.5833  -25.8289  -48.2304 H         1 UNK         0.0600 
    208 H208       -7.6090  -25.4662  -49.9480 H         1 UNK         0.0600 
    209 H209       -6.7733  -26.8999  -49.3744 H         1 UNK         0.0600 
    210 H210       -3.1484  -24.9278  -49.1368 H         1 UNK         0.3000 
    211 H211       -2.6769  -25.7915  -51.8269 H         1 UNK         0.0600 
    212 H212       -0.3289  -25.0999  -51.3210 H         1 UNK         0.0600 
    213 H213       -0.9996  -26.0730  -50.0195 H         1 UNK         0.0600 
    214 H214       -0.8648  -24.3250  -49.8364 H         1 UNK         0.0600 
    215 H215       -2.9804  -22.6313  -50.2519 H         1 UNK         0.3000 
    216 H216       -2.3070  -20.9017  -52.3581 H         1 UNK         0.0600 
    217 H217       -3.7844  -19.2738  -51.0814 H         1 UNK         0.0600 
    218 H218       -2.6592  -20.1261  -50.0375 H         1 UNK         0.0600 
    219 H219       -4.3527  -20.6037  -50.0831 H         1 UNK         0.0600 
    220 H220       -5.4257  -22.4430  -51.5929 H         1 UNK         0.3000 
    221 H221       -6.8987  -21.2031  -53.7568 H         1 UNK         0.0600 
    222 H222       -7.5948  -23.5654  -51.9282 H         1 UNK         0.0600 
    223 H223       -8.0201  -21.8776  -51.6488 H         1 UNK         0.0600 
    224 H224       -8.7092  -22.7442  -53.0125 H         1 UNK         0.0600 
    225 H225       -5.4466  -24.4416  -53.1669 H         1 UNK         0.3000 
    226 H226       -6.2997  -25.6862  -55.5391 H         1 UNK         0.0600 
    227 H227       -4.5322  -27.3548  -55.0078 H         1 UNK         0.0600 
    228 H228       -3.8028  -26.2446  -53.8555 H         1 UNK         0.0600 
    229 H229       -5.4121  -26.8993  -53.5562 H         1 UNK         0.0600 
    230 H230       -3.3101  -23.8056  -54.9076 H         1 UNK         0.3000 
    231 H231       -2.2776  -24.1116  -57.6145 H         1 UNK         0.0600 
    232 H232       -0.5469  -22.5311  -56.7918 H         1 UNK         0.0600 
    233 H233       -0.7995  -23.8121  -55.6168 H         1 UNK         0.0600 
    234 H234       -1.4871  -22.2127  -55.3391 H         1 UNK         0.0600 
    235 H235       -4.7759  -22.2167  -56.3108 H         1 UNK         0.3000 
    236 H236       -5.8867  -20.3669  -56.7760 H         1 UNK         0.0600 
    237 H237       -4.8947  -20.7448  -59.6532 H         1 UNK         0.0600 
    238 H238       -6.2795  -21.5702  -58.9387 H         1 UNK         0.0600 
    239 H239       -6.3085  -19.8275  -59.1501 H         1 UNK         0.0600 
    240 H240       -3.3192  -20.0020  -55.7224 H         1 UNK         0.3000 
    241 H241       -1.6584  -18.6914  -55.3262 H         1 UNK         0.0600 
    242 H242       -0.3464  -19.0597  -58.9149 H         1 UNK         0.3800 
    243 H243       -1.6780  -19.9276  -58.1957 H         1 UNK         0.3800 
    244 H244       -3.8030  -16.9326  -55.3951 H         1 UNK         0.0800 
    245 H245       -2.7354  -16.1358  -56.5051 H         1 UNK         0.0800 
    246 H246       -3.5244  -16.6072  -52.6214 H         1 UNK         0.0800 
    247 H247       -2.9571  -18.1151  -53.2893 H         1 UNK         0.0800 
@<TRIPOS>BOND
     1    1    2 1    
     2    1  127 1    
     3    1  128 1    
     4    1  129 1    
     5    2    3 2    
     6    2    4 am   BACKBONE|DICT|INTERRES
     7    4    5 1    
     8    4  130 1    
     9    5    6 1    
    10    5   65 1    
    11    5  131 1    
    12    6    7 1    
    13    6  132 1    
    14    6  133 1    
    15    7    8 1    
    16    8    9 1    
    17    8  134 1    
    18    8  135 1    
    19    9   10 ar   
    20    9   14 ar   
    21   10   11 ar   
    22   10  136 1    
    23   11   12 ar   
    24   11  126 1    
    25   12   13 ar   
    26   12  137 1    
    27   13   14 ar   
    28   13   15 1    
    29   14  138 1    
    30   15   16 1    
    31   15  139 1    
    32   15  140 1    
    33   16   17 1    
    34   17   18 1    
    35   17  141 1    
    36   17  142 1    
    37   18   19 1    
    38   18   67 1    
    39   18  143 1    
    40   19   20 am   BACKBONE|DICT|INTERRES
    41   19  144 1    
    42   20   21 2    
    43   20   22 1    
    44   22   23 1    
    45   22   24 1    
    46   22  145 1    
    47   23  146 1    
    48   23  147 1    
    49   23  148 1    
    50   24   25 am   BACKBONE|DICT|INTERRES
    51   24  149 1    
    52   25   26 2    
    53   25   27 1    
    54   27   28 1    
    55   27   29 1    
    56   27  150 1    
    57   28  151 1    
    58   28  152 1    
    59   28  153 1    
    60   29   30 am   BACKBONE|DICT|INTERRES
    61   29  154 1    
    62   30   31 2    
    63   30   32 1    
    64   32   33 1    
    65   32   34 1    
    66   32  155 1    
    67   33  156 1    
    68   33  157 1    
    69   33  158 1    
    70   34   35 am   BACKBONE|DICT|INTERRES
    71   34  159 1    
    72   35   36 2    
    73   35   37 1    
    74   37   38 1    
    75   37   39 1    
    76   37  160 1    
    77   38  161 1    
    78   38  162 1    
    79   38  163 1    
    80   39   40 am   BACKBONE|DICT|INTERRES
    81   39  164 1    
    82   40   41 2    
    83   40   42 1    
    84   42   43 1    
    85   42   44 1    
    86   42  165 1    
    87   43  166 1    
    88   43  167 1    
    89   43  168 1    
    90   44   45 am   BACKBONE|DICT|INTERRES
    91   44  169 1    
    92   45   46 2    
    93   45   47 1    
    94   47   48 1    
    95   47   49 1    
    96   47  170 1    
    97   48  171 1    
    98   48  172 1    
    99   48  173 1    
   100   49   50 am   BACKBONE|DICT|INTERRES
   101   49  174 1    
   102   50   51 2    
   103   50   52 1    
   104   52   53 1    
   105   52   54 1    
   106   52  175 1    
   107   53  176 1    
   108   53  177 1    
   109   53  178 1    
   110   54   55 am   BACKBONE|DICT|INTERRES
   111   54  179 1    
   112   55   56 2    
   113   55   57 1    
   114   57   58 1    
   115   57   59 1    
   116   57  180 1    
   117   58  181 1    
   118   58  182 1    
   119   58  183 1    
   120   59   60 am   BACKBONE|DICT|INTERRES
   121   59  184 1    
   122   60   61 2    
   123   60   62 1    
   124   62   63 1    
   125   62   64 1    
   126   62  185 1    
   127   63  186 1    
   128   63  187 1    
   129   63  188 1    
   130   64   65 am   BACKBONE|DICT|INTERRES
   131   64  189 1    
   132   65   66 2    
   133   67   68 2    
   134   67   69 am   BACKBONE|DICT|INTERRES
   135   69   70 1    
   136   69  190 1    
   137   70   71 1    
   138   70   72 1    
   139   70  191 1    
   140   71  192 1    
   141   71  193 1    
   142   71  194 1    
   143   72   73 2    
   144   72   74 am   BACKBONE|DICT|INTERRES
   145   74   75 1    
   146   74  195 1    
   147   75   76 1    
   148   75   77 1    
   149   75  196 1    
   150   76  197 1    
   151   76  198 1    
   152   76  199 1    
   153   77   78 2    
   154   77   79 am   BACKBONE|DICT|INTERRES
   155   79   80 1    
   156   79  200 1    
   157   80   81 1    
   158   80   82 1    
   159   80  201 1    
   160   81  202 1    
   161   81  203 1    
   162   81  204 1    
   163   82   83 2    
   164   82   84 am   BACKBONE|DICT|INTERRES
   165   84   85 1    
   166   84  205 1    
   167   85   86 1    
   168   85   87 1    
   169   85  206 1    
   170   86  207 1    
   171   86  208 1    
   172   86  209 1    
   173   87   88 2    
   174   87   89 am   BACKBONE|DICT|INTERRES
   175   89   90 1    
   176   89  210 1    
   177   90   91 1    
   178   90   92 1    
   179   90  211 1    
   180   91  212 1    
   181   91  213 1    
   182   91  214 1    
   183   92   93 2    
   184   92   94 am   BACKBONE|DICT|INTERRES
   185   94   95 1    
   186   94  215 1    
   187   95   96 1    
   188   95   97 1    
   189   95  216 1    
   190   96  217 1    
   191   96  218 1    
   192   96  219 1    
   193   97   98 2    
   194   97   99 am   BACKBONE|DICT|INTERRES
   195   99  100 1    
   196   99  220 1    
   197  100  101 1    
   198  100  102 1    
   199  100  221 1    
   200  101  222 1    
   201  101  223 1    
   202  101  224 1    
   203  102  103 2    
   204  102  104 am   BACKBONE|DICT|INTERRES
   205  104  105 1    
   206  104  225 1    
   207  105  106 1    
   208  105  107 1    
   209  105  226 1    
   210  106  227 1    
   211  106  228 1    
   212  106  229 1    
   213  107  108 2    
   214  107  109 am   BACKBONE|DICT|INTERRES
   215  109  110 1    
   216  109  230 1    
   217  110  111 1    
   218  110  112 1    
   219  110  231 1    
   220  111  232 1    
   221  111  233 1    
   222  111  234 1    
   223  112  113 2    
   224  112  114 am   BACKBONE|DICT|INTERRES
   225  114  115 1    
   226  114  235 1    
   227  115  116 1    
   228  115  117 1    
   229  115  236 1    
   230  116  237 1    
   231  116  238 1    
   232  116  239 1    
   233  117  118 2    
   234  117  119 am   BACKBONE|DICT|INTERRES
   235  119  120 1    
   236  119  240 1    
   237  120  121 1    
   238  120  124 1    
   239  120  241 1    
   240  121  122 am   BACKBONE|DICT|INTERRES
   241  121  123 2    
   242  122  242 1    
   243  122  243 1    
   244  124  125 1    
   245  124  244 1    
   246  124  245 1    
   247  125  126 1    
   248  126  246 1    
   249  126  247 1    
@<TRIPOS>SUBSTRUCTURE
     1 UNK         1 GROUP             0       ****    0 ROOT    
