@<TRIPOS>MOLECULE
3R540
247   249    1
SMALL
USER_CHARGES


@<TRIPOS>ATOM
      1 CA         -3.4964  -19.1212  -43.2536 C.3       0 UNK        -0.1800 
      2 C          -4.0875  -17.9460  -44.0187 C.2       0 UNK         0.5000 
      3 O          -5.2827  -17.6719  -43.9094 O.2       0 UNK        -0.5000 
      4 N          -3.2502  -17.2711  -44.8123 N.am      1 UNK        -0.5000 
      5 CA         -3.5937  -16.0943  -45.6149 C.3       1 UNK         0.1400 
      6 C6         -2.4745  -15.7556  -46.6314 C.3       23 UNK        -0.0398 
      7 S7         -2.1854  -17.1112  -47.8164 S.3       23 UNK        -0.2404 
      8 C8         -0.5314  -16.6850  -48.4542 C.3       23 UNK        -0.0205 
      9 C9          0.0281  -17.7417  -49.4028 C.ar      23 UNK        -0.0193 
     10 C10        -0.7509  -18.2423  -50.4515 C.ar      23 UNK        -0.1150 
     11 C11        -0.2352  -19.1752  -51.3548 C.ar      23 UNK        -0.0193 
     12 C12         1.0894  -19.6048  -51.1997 C.ar      23 UNK        -0.1150 
     13 C13         1.8898  -19.1058  -50.1677 C.ar      23 UNK        -0.0193 
     14 C14         1.3507  -18.1783  -49.2692 C.ar      23 UNK        -0.1150 
     15 C15         3.3556  -19.5218  -50.0809 C.3       23 UNK        -0.0205 
     16 S16         3.8265  -20.2188  -48.4663 S.3       23 UNK        -0.2404 
     17 C17         2.7231  -21.6628  -48.3404 C.3       23 UNK        -0.0398 
     18 CA          3.3671  -22.8801  -47.6263 C.3       11 UNK         0.1400 
     19 N           3.8406  -22.5593  -46.2713 N.am      11 UNK        -0.5000 
     20 C           4.5840  -23.3666  -45.4992 C.2       10 UNK         0.5000 
     21 O           5.0589  -24.4344  -45.8874 O.2       10 UNK        -0.5000 
     22 CA          4.7870  -22.9388  -44.0330 C.3       10 UNK         0.1400 
     23 CB          6.0196  -22.0339  -43.8814 C.3       10 UNK        -0.1800 
     24 N           3.6042  -22.2667  -43.4885 N.am      10 UNK        -0.5000 
     25 C           2.4811  -22.8960  -43.1123 C.2       9 UNK         0.5000 
     26 O           2.3474  -24.1193  -43.1319 O.2       9 UNK        -0.5000 
     27 CA          1.2920  -22.0183  -42.6734 C.3       9 UNK         0.1400 
     28 CB          1.3801  -21.6943  -41.1748 C.3       9 UNK        -0.1800 
     29 N           1.1902  -20.7711  -43.4285 N.am      9 UNK        -0.5000 
     30 C           0.9238  -20.6872  -44.7388 C.2       8 UNK         0.5000 
     31 O           0.6567  -21.6566  -45.4492 O.2       8 UNK        -0.5000 
     32 CA          1.0134  -19.2849  -45.3680 C.3       8 UNK         0.1400 
     33 CB         -0.3149  -18.5497  -45.1780 C.3       8 UNK        -0.1800 
     34 N           2.0962  -18.4627  -44.8208 N.am      8 UNK        -0.5000 
     35 C           3.3933  -18.8014  -44.8083 C.2       7 UNK         0.5000 
     36 O           3.8253  -19.8626  -45.2489 O.2       7 UNK        -0.5000 
     37 CA          4.3593  -17.8268  -44.1206 C.3       7 UNK         0.1400 
     38 CB          4.6987  -16.6441  -45.0401 C.3       7 UNK        -0.1800 
     39 N           3.7969  -17.3471  -42.8593 N.am      7 UNK        -0.5000 
     40 C           3.7292  -18.0883  -41.7433 C.2       6 UNK         0.5000 
     41 O           4.2169  -19.2142  -41.6409 O.2       6 UNK        -0.5000 
     42 CA          2.9603  -17.4856  -40.5519 C.3       6 UNK         0.1400 
     43 CB          3.8955  -16.6343  -39.6803 C.3       6 UNK        -0.1800 
     44 N           1.8143  -16.6737  -40.9659 N.am      6 UNK        -0.5000 
     45 C           0.7130  -17.1594  -41.5564 C.2       5 UNK         0.5000 
     46 O           0.5293  -18.3565  -41.7755 O.2       5 UNK        -0.5000 
     47 CA         -0.3374  -16.1290  -42.0193 C.3       5 UNK         0.1400 
     48 CB         -1.3501  -15.8603  -40.8969 C.3       5 UNK        -0.1800 
     49 N           0.2385  -14.8567  -42.4704 N.am      5 UNK        -0.5000 
     50 C           1.1078  -14.7206  -43.4827 C.2       4 UNK         0.5000 
     51 O           1.5372  -15.6738  -44.1351 O.2       4 UNK        -0.5000 
     52 CA          1.5806  -13.2823  -43.7886 C.3       4 UNK         0.1400 
     53 CB          2.4372  -13.1869  -45.0689 C.3       4 UNK        -0.1800 
     54 N           0.4744  -12.3165  -43.8212 N.am      4 UNK        -0.5000 
     55 C          -0.5666  -12.3276  -44.6648 C.2       3 UNK         0.5000 
     56 O          -0.7138  -13.1443  -45.5778 O.2       3 UNK        -0.5000 
     57 CA         -1.6280  -11.2389  -44.4590 C.3       3 UNK         0.1400 
     58 CB         -1.3353  -10.0058  -45.3279 C.3       3 UNK        -0.1800 
     59 N          -2.9042  -11.8190  -44.8498 N.am      3 UNK        -0.5000 
     60 C          -4.0413  -11.7592  -44.1520 C.2       2 UNK         0.5000 
     61 O          -4.2154  -11.0191  -43.1829 O.2       2 UNK        -0.5000 
     62 CA         -5.1685  -12.7159  -44.5941 C.3       2 UNK         0.1400 
     63 CB         -6.1648  -11.9878  -45.5094 C.3       2 UNK        -0.1800 
     64 N          -4.6999  -13.9314  -45.2742 N.am      2 UNK        -0.5000 
     65 C          -3.9190  -14.8746  -44.7251 C.2       1 UNK         0.5000 
     66 O          -3.4539  -14.7970  -43.5856 O.2       1 UNK        -0.5000 
     67 C           2.3530  -24.0463  -47.6253 C.2       11 UNK         0.5000 
     68 O           2.2087  -24.7207  -48.6454 O.2       11 UNK        -0.5000 
     69 N           1.6545  -24.2266  -46.4932 N.am      12 UNK        -0.5000 
     70 CA          0.5034  -25.1038  -46.2719 C.3       12 UNK         0.1400 
     71 CB          0.8944  -26.5895  -46.4135 C.3       12 UNK        -0.1800 
     72 C          -0.6940  -24.6906  -47.1519 C.2       12 UNK         0.5000 
     73 O          -1.3703  -25.5465  -47.7257 O.2       12 UNK        -0.5000 
     74 N          -0.9108  -23.3719  -47.2615 N.am      13 UNK        -0.5000 
     75 CA         -1.9728  -22.7693  -48.0614 C.3       13 UNK         0.1400 
     76 CB         -1.7009  -21.2642  -48.2128 C.3       13 UNK        -0.1800 
     77 C          -3.3582  -23.0200  -47.4386 C.2       13 UNK         0.5000 
     78 O          -3.5117  -22.9222  -46.2173 O.2       13 UNK        -0.5000 
     79 N          -4.3468  -23.3199  -48.2879 N.am      14 UNK        -0.5000 
     80 CA         -5.7474  -23.5485  -47.9310 C.3       14 UNK         0.1400 
     81 CB         -6.4177  -24.3458  -49.0643 C.3       14 UNK        -0.1800 
     82 C          -6.4680  -22.2180  -47.6324 C.2       14 UNK         0.5000 
     83 O          -7.3298  -21.7901  -48.4025 O.2       14 UNK        -0.5000 
     84 N          -6.0577  -21.5737  -46.5320 N.am      15 UNK        -0.5000 
     85 CA         -6.3765  -20.1993  -46.1389 C.3       15 UNK         0.1400 
     86 CB         -7.8825  -20.0289  -45.8376 C.3       15 UNK        -0.1800 
     87 C          -5.8104  -19.1975  -47.1685 C.2       15 UNK         0.5000 
     88 O          -4.7188  -19.4296  -47.6916 O.2       15 UNK        -0.5000 
     89 N          -6.5439  -18.1156  -47.4610 N.am      16 UNK        -0.5000 
     90 CA         -6.1984  -17.0977  -48.4579 C.3       16 UNK         0.1400 
     91 CB         -6.9546  -15.8002  -48.1178 C.3       16 UNK        -0.1800 
     92 C          -6.4558  -17.5847  -49.9014 C.2       16 UNK         0.5000 
     93 O          -7.2277  -16.9705  -50.6407 O.2       16 UNK        -0.5000 
     94 N          -5.8233  -18.7050  -50.2632 N.am      17 UNK        -0.5000 
     95 CA         -5.8947  -19.3374  -51.5763 C.3       17 UNK         0.1400 
     96 CB         -5.3611  -20.7705  -51.4513 C.3       17 UNK        -0.1800 
     97 C          -5.1072  -18.5503  -52.6407 C.2       17 UNK         0.5000 
     98 O          -4.1340  -17.8658  -52.3139 O.2       17 UNK        -0.5000 
     99 N          -5.5373  -18.6785  -53.9015 N.am      18 UNK        -0.5000 
    100 CA        -4.8916  -18.0721  -55.0653 C.3       18 UNK         0.1400 
    101 CB        -5.8552  -18.1439  -56.2603 C.3       18 UNK        -0.1800 
    102 C         -3.5668  -18.7734  -55.4117 C.2       18 UNK         0.5000 
    103 O         -3.4494  -19.9849  -55.2247 O.2       18 UNK        -0.5000 
    104 N         -2.6177  -18.0100  -55.9698 N.am      19 UNK        -0.5000 
    105 CA        -1.2721  -18.4592  -56.3518 C.3       19 UNK         0.1400 
    106 CB        -0.4668  -17.2451  -56.8394 C.3       19 UNK        -0.1800 
    107 C         -1.2339  -19.5866  -57.4043 C.2       19 UNK         0.5000 
    108 O         -0.2339  -20.2998  -57.4926 O.2       19 UNK        -0.5000 
    109 N         -2.3149  -19.7273  -58.1821 N.am      20 UNK        -0.5000 
    110 CA        -2.4874  -20.7681  -59.1934 C.3       20 UNK         0.1400 
    111 CB        -3.6537  -20.3718  -60.1123 C.3       20 UNK        -0.1800 
    112 C         -2.7245  -22.1741  -58.6055 C.2       20 UNK         0.5000 
    113 O         -2.4461  -23.1581  -59.2926 O.2       20 UNK        -0.5000 
    114 N         -3.2415  -22.2577  -57.3719 N.am      21 UNK        -0.5000 
    115 CA        -3.6138  -23.5046  -56.7084 C.3       21 UNK         0.1400 
    116 CB        -4.8908  -24.0946  -57.3452 C.3       21 UNK        -0.1800 
    117 C         -3.7854  -23.2298  -55.2089 C.2       21 UNK         0.5000 
    118 O         -4.9120  -23.0488  -54.7421 O.2       21 UNK        -0.5000 
    119 N         -2.6590  -23.1630  -54.4882 N.am      22 UNK        -0.5000 
    120 CA        -2.6207  -22.8397  -53.0505 C.3       22 UNK         0.1400 
    121 C         -3.2288  -23.9227  -52.1141 C.2       22 UNK         0.5000 
    122 N         -3.3872  -25.1676  -52.5459 N.am      22 UNK        -0.7600 
    123 O         -3.5720  -23.6209  -50.9765 O.2       22 UNK        -0.5000 
    124 C124       -1.2050  -22.4368  -52.5633 C.3       23 UNK        -0.0398 
    125 S125       -0.5255  -21.0325  -53.5044 S.3       23 UNK        -0.2404 
    126 C126       -1.1304  -19.6224  -52.5114 C.3       23 UNK        -0.0205 
    127 H127       -2.7626  -18.7723  -42.5263 H         1 UNK         0.0600 
    128 H128       -3.0066  -19.8168  -43.9359 H         1 UNK         0.0600 
    129 H129       -4.2749  -19.6653  -42.7182 H         1 UNK         0.0600 
    130 H130       -2.2865  -17.5609  -44.8719 H         1 UNK         0.3000 
    131 H131       -4.5005  -16.3386  -46.1690 H         1 UNK         0.0600 
    132 H132       -2.7201  -14.8600  -47.2045 H         1 UNK         0.0800 
    133 H133       -1.5426  -15.5410  -46.1064 H         1 UNK         0.0800 
    134 H134       -0.5891  -15.7334  -48.9839 H         1 UNK         0.0800 
    135 H135        0.1485  -16.5322  -47.6150 H         1 UNK         0.0800 
    136 H136       -1.7656  -17.8892  -50.5770 H         1 UNK         0.1150 
    137 H137        1.5215  -20.3028  -51.9010 H         1 UNK         0.1150 
    138 H138        1.9727  -17.7807  -48.4793 H         1 UNK         0.1150 
    139 H139        3.6026  -20.2466  -50.8582 H         1 UNK         0.0800 
    140 H140        3.9761  -18.6460  -50.2747 H         1 UNK         0.0800 
    141 H141        1.8151  -21.3447  -47.8273 H         1 UNK         0.0800 
    142 H142        2.4134  -21.9459  -49.3484 H         1 UNK         0.0800 
    143 H143        4.2317  -23.2007  -48.2110 H         1 UNK         0.0600 
    144 H144        3.5880  -21.6442  -45.9071 H         1 UNK         0.3000 
    145 H145        4.9665  -23.8424  -43.4463 H         1 UNK         0.0600 
    146 H146        6.1626  -21.7326  -42.8434 H         1 UNK         0.0600 
    147 H147        5.9419  -21.1296  -44.4841 H         1 UNK         0.0600 
    148 H148        6.9234  -22.5566  -44.1966 H         1 UNK         0.0600 
    149 H149        3.6201  -21.2550  -43.4934 H         1 UNK         0.3000 
    150 H150        0.3771  -22.5889  -42.8462 H         1 UNK         0.0600 
    151 H151        1.4304  -22.6067  -40.5793 H         1 UNK         0.0600 
    152 H152        0.5058  -21.1350  -40.8409 H         1 UNK         0.0600 
    153 H153        2.2647  -21.1002  -40.9431 H         1 UNK         0.0600 
    154 H154        1.3189  -19.9105  -42.9073 H         1 UNK         0.3000 
    155 H155        1.1984  -19.3999  -46.4375 H         1 UNK         0.0600 
    156 H156       -1.1040  -19.0315  -45.7551 H         1 UNK         0.0600 
    157 H157       -0.2417  -17.5140  -45.5049 H         1 UNK         0.0600 
    158 H158       -0.6257  -18.5500  -44.1345 H         1 UNK         0.0600 
    159 H159        1.8381  -17.5480  -44.4613 H         1 UNK         0.3000 
    160 H160        5.2873  -18.3622  -43.9075 H         1 UNK         0.0600 
    161 H161        3.8067  -16.1095  -45.3649 H         1 UNK         0.0600 
    162 H162        5.2106  -16.9912  -45.9385 H         1 UNK         0.0600 
    163 H163        5.3579  -15.9319  -44.5439 H         1 UNK         0.0600 
    164 H164        3.3130  -16.4611  -42.8884 H         1 UNK         0.3000 
    165 H165        2.5875  -18.3142  -39.9458 H         1 UNK         0.0600 
    166 H166        3.3805  -16.2651  -38.7932 H         1 UNK         0.0600 
    167 H167        4.7500  -17.2199  -39.3382 H         1 UNK         0.0600 
    168 H168        4.2846  -15.7740  -40.2263 H         1 UNK         0.0600 
    169 H169        1.8815  -15.6776  -40.8180 H         1 UNK         0.3000 
    170 H170       -0.8770  -16.5590  -42.8644 H         1 UNK         0.0600 
    171 H171       -1.8265  -16.7863  -40.5721 H         1 UNK         0.0600 
    172 H172       -0.8755  -15.4100  -40.0243 H         1 UNK         0.0600 
    173 H173       -2.1424  -15.1905  -41.2308 H         1 UNK         0.0600 
    174 H174       -0.0782  -14.0257  -41.9930 H         1 UNK         0.3000 
    175 H175        2.2164  -12.9895  -42.9520 H         1 UNK         0.0600 
    176 H176        1.9064  -13.5623  -45.9444 H         1 UNK         0.0600 
    177 H177        2.7321  -12.1574  -45.2711 H         1 UNK         0.0600 
    178 H178        3.3525  -13.7700  -44.9677 H         1 UNK         0.0600 
    179 H179        0.5065  -11.5978  -43.1112 H         1 UNK         0.3000 
    180 H180       -1.6426  -10.9520  -43.4053 H         1 UNK         0.0600 
    181 H181       -0.3793   -9.5558  -45.0579 H         1 UNK         0.0600 
    182 H182       -2.1034   -9.2431  -45.1982 H         1 UNK         0.0600 
    183 H183       -1.2923  -10.2610  -46.3876 H         1 UNK         0.0600 
    184 H184       -2.8304  -12.5013  -45.5926 H         1 UNK         0.3000 
    185 H185       -5.6988  -13.0280  -43.6920 H         1 UNK         0.0600 
    186 H186       -6.5594  -11.0937  -45.0247 H         1 UNK         0.0600 
    187 H187       -5.6978  -11.6751  -46.4441 H         1 UNK         0.0600 
    188 H188       -7.0155  -12.6243  -45.7541 H         1 UNK         0.0600 
    189 H189       -5.0325  -14.0585  -46.2185 H         1 UNK         0.3000 
    190 H190        1.8329  -23.5683  -45.7460 H         1 UNK         0.3000 
    191 H191        0.1933  -24.9421  -45.2385 H         1 UNK         0.0600 
    192 H192        0.0713  -27.2380  -46.1118 H         1 UNK         0.0600 
    193 H193        1.7480  -26.8328  -45.7806 H         1 UNK         0.0600 
    194 H194        1.1527  -26.8482  -47.4405 H         1 UNK         0.0600 
    195 H195       -0.3460  -22.7394  -46.7017 H         1 UNK         0.3000 
    196 H196       -1.9347  -23.2238  -49.0518 H         1 UNK         0.0600 
    197 H197       -1.7316  -20.7535  -47.2504 H         1 UNK         0.0600 
    198 H198       -0.7256  -21.0764  -48.6626 H         1 UNK         0.0600 
    199 H199       -2.4487  -20.7947  -48.8535 H         1 UNK         0.0600 
    200 H200       -4.1264  -23.3806  -49.2818 H         1 UNK         0.3000 
    201 H201       -5.7869  -24.1580  -47.0257 H         1 UNK         0.0600 
    202 H202       -7.4649  -24.5472  -48.8357 H         1 UNK         0.0600 
    203 H203       -5.9260  -25.3074  -49.2121 H         1 UNK         0.0600 
    204 H204       -6.3834  -23.8063  -50.0118 H         1 UNK         0.0600 
    205 H205       -5.2693  -21.9891  -46.0448 H         1 UNK         0.3000 
    206 H206       -5.8341  -20.0266  -45.2101 H         1 UNK         0.0600 
    207 H207       -8.2329  -20.8021  -45.1539 H         1 UNK         0.0600 
    208 H208       -8.0803  -19.0693  -45.3587 H         1 UNK         0.0600 
    209 H209       -8.4931  -20.0832  -46.7395 H         1 UNK         0.0600 
    210 H210       -7.4451  -18.0159  -47.0175 H         1 UNK         0.3000 
    211 H211       -5.1307  -16.8847  -48.3885 H         1 UNK         0.0600 
    212 H212       -8.0345  -15.9334  -48.1920 H         1 UNK         0.0600 
    213 H213       -6.6747  -14.9948  -48.7981 H         1 UNK         0.0600 
    214 H214       -6.7303  -15.4632  -47.1060 H         1 UNK         0.0600 
    215 H215       -5.2085  -19.1340  -49.5786 H         1 UNK         0.3000 
    216 H216       -6.9432  -19.3819  -51.8783 H         1 UNK         0.0600 
    217 H217       -5.9406  -21.3468  -50.7309 H         1 UNK         0.0600 
    218 H218       -4.3203  -20.7840  -51.1256 H         1 UNK         0.0600 
    219 H219       -5.4238  -21.2952  -52.4053 H         1 UNK         0.0600 
    220 H220       -6.3095  -19.2990  -54.0949 H         1 UNK         0.3000 
    221 H221       -4.6887  -17.0228  -54.8403 H         1 UNK         0.0600 
    222 H222       -6.7921  -17.6305  -56.0432 H         1 UNK         0.0600 
    223 H223       -5.4236  -17.6686  -57.1421 H         1 UNK         0.0600 
    224 H224       -6.0911  -19.1754  -56.5261 H         1 UNK         0.0600 
    225 H225       -2.8096  -17.0288  -56.1126 H         1 UNK         0.3000 
    226 H226       -0.7840  -18.8461  -55.4579 H         1 UNK         0.0600 
    227 H227       -0.3941  -16.4820  -56.0642 H         1 UNK         0.0600 
    228 H228        0.5516  -17.5316  -57.1055 H         1 UNK         0.0600 
    229 H229       -0.9205  -16.7895  -57.7204 H         1 UNK         0.0600 
    230 H230       -3.0872  -19.0932  -58.0439 H         1 UNK         0.3000 
    231 H231       -1.5785  -20.8133  -59.7972 H         1 UNK         0.0600 
    232 H232       -3.7979  -21.1105  -60.9020 H         1 UNK         0.0600 
    233 H233       -3.4672  -19.4132  -60.5968 H         1 UNK         0.0600 
    234 H234       -4.5917  -20.2939  -59.5609 H         1 UNK         0.0600 
    235 H235       -3.3870  -21.4128  -56.8274 H         1 UNK         0.3000 
    236 H236       -2.8041  -24.2283  -56.8233 H         1 UNK         0.0600 
    237 H237       -5.7125  -23.3775  -57.3363 H         1 UNK         0.0600 
    238 H238       -4.7220  -24.3948  -58.3791 H         1 UNK         0.0600 
    239 H239       -5.2219  -24.9820  -56.8044 H         1 UNK         0.0600 
    240 H240       -1.7668  -23.2773  -54.9461 H         1 UNK         0.3000 
    241 H241       -3.2501  -21.9587  -52.9277 H         1 UNK         0.0600 
    242 H242       -3.1160  -25.4280  -53.4800 H         1 UNK         0.3800 
    243 H243       -3.7888  -25.8558  -51.9295 H         1 UNK         0.3800 
    244 H244       -0.5172  -23.2782  -52.6600 H         1 UNK         0.0800 
    245 H245       -1.2150  -22.1729  -51.5037 H         1 UNK         0.0800 
    246 H246       -2.1262  -19.8562  -52.1327 H         1 UNK         0.0800 
    247 H247       -1.2601  -18.7683  -53.1757 H         1 UNK         0.0800 
@<TRIPOS>BOND
     1    1    2 1    
     2    1  127 1    
     3    1  128 1    
     4    1  129 1    
     5    2    3 2    
     6    2    4 am   BACKBONE|DICT|INTERRES
     7    4    5 1    
     8    4  130 1    
     9    5    6 1    
    10    5   65 1    
    11    5  131 1    
    12    6    7 1    
    13    6  132 1    
    14    6  133 1    
    15    7    8 1    
    16    8    9 1    
    17    8  134 1    
    18    8  135 1    
    19    9   10 ar   
    20    9   14 ar   
    21   10   11 ar   
    22   10  136 1    
    23   11   12 ar   
    24   11  126 1    
    25   12   13 ar   
    26   12  137 1    
    27   13   14 ar   
    28   13   15 1    
    29   14  138 1    
    30   15   16 1    
    31   15  139 1    
    32   15  140 1    
    33   16   17 1    
    34   17   18 1    
    35   17  141 1    
    36   17  142 1    
    37   18   19 1    
    38   18   67 1    
    39   18  143 1    
    40   19   20 am   BACKBONE|DICT|INTERRES
    41   19  144 1    
    42   20   21 2    
    43   20   22 1    
    44   22   23 1    
    45   22   24 1    
    46   22  145 1    
    47   23  146 1    
    48   23  147 1    
    49   23  148 1    
    50   24   25 am   BACKBONE|DICT|INTERRES
    51   24  149 1    
    52   25   26 2    
    53   25   27 1    
    54   27   28 1    
    55   27   29 1    
    56   27  150 1    
    57   28  151 1    
    58   28  152 1    
    59   28  153 1    
    60   29   30 am   BACKBONE|DICT|INTERRES
    61   29  154 1    
    62   30   31 2    
    63   30   32 1    
    64   32   33 1    
    65   32   34 1    
    66   32  155 1    
    67   33  156 1    
    68   33  157 1    
    69   33  158 1    
    70   34   35 am   BACKBONE|DICT|INTERRES
    71   34  159 1    
    72   35   36 2    
    73   35   37 1    
    74   37   38 1    
    75   37   39 1    
    76   37  160 1    
    77   38  161 1    
    78   38  162 1    
    79   38  163 1    
    80   39   40 am   BACKBONE|DICT|INTERRES
    81   39  164 1    
    82   40   41 2    
    83   40   42 1    
    84   42   43 1    
    85   42   44 1    
    86   42  165 1    
    87   43  166 1    
    88   43  167 1    
    89   43  168 1    
    90   44   45 am   BACKBONE|DICT|INTERRES
    91   44  169 1    
    92   45   46 2    
    93   45   47 1    
    94   47   48 1    
    95   47   49 1    
    96   47  170 1    
    97   48  171 1    
    98   48  172 1    
    99   48  173 1    
   100   49   50 am   BACKBONE|DICT|INTERRES
   101   49  174 1    
   102   50   51 2    
   103   50   52 1    
   104   52   53 1    
   105   52   54 1    
   106   52  175 1    
   107   53  176 1    
   108   53  177 1    
   109   53  178 1    
   110   54   55 am   BACKBONE|DICT|INTERRES
   111   54  179 1    
   112   55   56 2    
   113   55   57 1    
   114   57   58 1    
   115   57   59 1    
   116   57  180 1    
   117   58  181 1    
   118   58  182 1    
   119   58  183 1    
   120   59   60 am   BACKBONE|DICT|INTERRES
   121   59  184 1    
   122   60   61 2    
   123   60   62 1    
   124   62   63 1    
   125   62   64 1    
   126   62  185 1    
   127   63  186 1    
   128   63  187 1    
   129   63  188 1    
   130   64   65 am   BACKBONE|DICT|INTERRES
   131   64  189 1    
   132   65   66 2    
   133   67   68 2    
   134   67   69 am   BACKBONE|DICT|INTERRES
   135   69   70 1    
   136   69  190 1    
   137   70   71 1    
   138   70   72 1    
   139   70  191 1    
   140   71  192 1    
   141   71  193 1    
   142   71  194 1    
   143   72   73 2    
   144   72   74 am   BACKBONE|DICT|INTERRES
   145   74   75 1    
   146   74  195 1    
   147   75   76 1    
   148   75   77 1    
   149   75  196 1    
   150   76  197 1    
   151   76  198 1    
   152   76  199 1    
   153   77   78 2    
   154   77   79 am   BACKBONE|DICT|INTERRES
   155   79   80 1    
   156   79  200 1    
   157   80   81 1    
   158   80   82 1    
   159   80  201 1    
   160   81  202 1    
   161   81  203 1    
   162   81  204 1    
   163   82   83 2    
   164   82   84 am   BACKBONE|DICT|INTERRES
   165   84   85 1    
   166   84  205 1    
   167   85   86 1    
   168   85   87 1    
   169   85  206 1    
   170   86  207 1    
   171   86  208 1    
   172   86  209 1    
   173   87   88 2    
   174   87   89 am   BACKBONE|DICT|INTERRES
   175   89   90 1    
   176   89  210 1    
   177   90   91 1    
   178   90   92 1    
   179   90  211 1    
   180   91  212 1    
   181   91  213 1    
   182   91  214 1    
   183   92   93 2    
   184   92   94 am   BACKBONE|DICT|INTERRES
   185   94   95 1    
   186   94  215 1    
   187   95   96 1    
   188   95   97 1    
   189   95  216 1    
   190   96  217 1    
   191   96  218 1    
   192   96  219 1    
   193   97   98 2    
   194   97   99 am   BACKBONE|DICT|INTERRES
   195   99  100 1    
   196   99  220 1    
   197  100  101 1    
   198  100  102 1    
   199  100  221 1    
   200  101  222 1    
   201  101  223 1    
   202  101  224 1    
   203  102  103 2    
   204  102  104 am   BACKBONE|DICT|INTERRES
   205  104  105 1    
   206  104  225 1    
   207  105  106 1    
   208  105  107 1    
   209  105  226 1    
   210  106  227 1    
   211  106  228 1    
   212  106  229 1    
   213  107  108 2    
   214  107  109 am   BACKBONE|DICT|INTERRES
   215  109  110 1    
   216  109  230 1    
   217  110  111 1    
   218  110  112 1    
   219  110  231 1    
   220  111  232 1    
   221  111  233 1    
   222  111  234 1    
   223  112  113 2    
   224  112  114 am   BACKBONE|DICT|INTERRES
   225  114  115 1    
   226  114  235 1    
   227  115  116 1    
   228  115  117 1    
   229  115  236 1    
   230  116  237 1    
   231  116  238 1    
   232  116  239 1    
   233  117  118 2    
   234  117  119 am   BACKBONE|DICT|INTERRES
   235  119  120 1    
   236  119  240 1    
   237  120  121 1    
   238  120  124 1    
   239  120  241 1    
   240  121  122 am   BACKBONE|DICT|INTERRES
   241  121  123 2    
   242  122  242 1    
   243  122  243 1    
   244  124  125 1    
   245  124  244 1    
   246  124  245 1    
   247  125  126 1    
   248  126  246 1    
   249  126  247 1    
@<TRIPOS>SUBSTRUCTURE
     1 UNK         1 GROUP             0       ****    0 ROOT    
