@<TRIPOS>MOLECULE
3R540
247   249    1
SMALL
USER_CHARGES


@<TRIPOS>ATOM
      1 CA         -5.4201  -11.3975  -45.7217 C.3       0 UNK        -0.1800 
      2 C          -4.1344  -12.1432  -46.0462 C.2       0 UNK         0.5000 
      3 O          -3.0934  -11.5136  -46.2342 O.2       0 UNK        -0.5000 
      4 N          -4.1957  -13.4823  -46.0973 N.am      1 UNK        -0.5000 
      5 CA         -3.0670  -14.3726  -46.4046 C.3       1 UNK         0.1400 
      6 C6         -3.5231  -15.8551  -46.4997 C.3       23 UNK        -0.0398 
      7 S7         -2.5469  -17.0530  -47.4946 S.3       23 UNK        -0.2404 
      8 C8         -0.9739  -16.2582  -47.9588 C.3       23 UNK        -0.0205 
      9 C9         -0.2901  -17.0135  -49.0854 C.ar      23 UNK        -0.0193 
     10 C10        -0.3352  -16.5233  -50.3925 C.ar      23 UNK        -0.1150 
     11 C11         0.2965  -17.2084  -51.4327 C.ar      23 UNK        -0.0193 
     12 C12         0.9855  -18.3909  -51.1477 C.ar      23 UNK        -0.1150 
     13 C13         1.0256  -18.9113  -49.8497 C.ar      23 UNK        -0.0193 
     14 C14         0.3965  -18.1992  -48.8196 C.ar      23 UNK        -0.1150 
     15 C15         1.7620  -20.2359  -49.6257 C.3       23 UNK        -0.0205 
     16 S16         1.6879  -20.9321  -47.9365 S.3       23 UNK        -0.2404 
     17 C17        -0.0738  -21.3895  -47.7856 C.3       23 UNK        -0.0398 
     18 CA         -0.2769  -22.8134  -47.2224 C.3       11 UNK         0.1400 
     19 N           0.3201  -22.9854  -45.8951 N.am      11 UNK        -0.5000 
     20 C           0.4200  -24.1545  -45.2484 C.2       10 UNK         0.5000 
     21 O           0.0527  -25.2303  -45.7186 O.2       10 UNK        -0.5000 
     22 CA          0.9749  -24.1050  -43.8165 C.3       10 UNK         0.1400 
     23 CB          2.5111  -24.0975  -43.8214 C.3       10 UNK        -0.1800 
     24 N           0.4752  -22.9380  -43.0910 N.am      10 UNK        -0.5000 
     25 C          -0.7756  -22.8189  -42.6258 C.2       9 UNK         0.5000 
     26 O          -1.6285  -23.7013  -42.7273 O.2       9 UNK        -0.5000 
     27 CA         -1.1452  -21.4732  -41.9721 C.3       9 UNK         0.1400 
     28 CB         -0.6801  -21.4350  -40.5089 C.3       9 UNK        -0.1800 
     29 N          -0.5977  -20.3169  -42.6855 N.am      9 UNK        -0.5000 
     30 C          -0.9500  -19.9674  -43.9300 C.2       8 UNK         0.5000 
     31 O          -1.7784  -20.5789  -44.6005 O.2       8 UNK        -0.5000 
     32 CA         -0.2408  -18.7531  -44.5532 C.3       8 UNK         0.1400 
     33 CB         -0.9296  -17.4637  -44.0948 C.3       8 UNK        -0.1800 
     34 N           1.2001  -18.6421  -44.3012 N.am      8 UNK        -0.5000 
     35 C           2.1172  -19.6207  -44.3689 C.2       7 UNK         0.5000 
     36 O           1.8376  -20.8033  -44.5626 O.2       7 UNK        -0.5000 
     37 CA          3.6022  -19.2338  -44.2073 C.3       7 UNK         0.1400 
     38 CB          4.3892  -19.5986  -45.4768 C.3       7 UNK        -0.1800 
     39 N           3.8262  -17.8166  -43.9184 N.am      7 UNK        -0.5000 
     40 C           3.6078  -17.2063  -42.7456 C.2       6 UNK         0.5000 
     41 O           3.2036  -17.7891  -41.7395 O.2       6 UNK        -0.5000 
     42 CA          3.8674  -15.6851  -42.6966 C.3       6 UNK         0.1400 
     43 CB          5.2014  -15.3899  -41.9939 C.3       6 UNK        -0.1800 
     44 N           3.8752  -15.0482  -44.0196 N.am      6 UNK        -0.5000 
     45 C           2.7925  -14.9026  -44.7943 C.2       5 UNK         0.5000 
     46 O           1.6723  -15.2960  -44.4717 O.2       5 UNK        -0.5000 
     47 CA          3.0167  -14.2881  -46.1807 C.3       5 UNK         0.1400 
     48 CB          3.0754  -15.3886  -47.2561 C.3       5 UNK        -0.1800 
     49 N           1.9422  -13.3501  -46.4889 N.am      5 UNK        -0.5000 
     50 C           2.0671  -12.2910  -47.2988 C.2       4 UNK         0.5000 
     51 O           3.1123  -11.9982  -47.8819 O.2       4 UNK        -0.5000 
     52 CA          0.8303  -11.3938  -47.4869 C.3       4 UNK         0.1400 
     53 CB         -0.1212  -11.9805  -48.5415 C.3       4 UNK        -0.1800 
     54 N           0.1013  -11.1723  -46.2397 N.am      4 UNK        -0.5000 
     55 C           0.4986  -10.3493  -45.2594 C.2       3 UNK         0.5000 
     56 O           1.5207   -9.6643  -45.3147 O.2       3 UNK        -0.5000 
     57 CA         -0.3930  -10.2731  -44.0060 C.3       3 UNK         0.1400 
     58 CB         -1.4497   -9.1676  -44.1554 C.3       3 UNK        -0.1800 
     59 N          -1.0584  -11.5465  -43.7336 N.am      3 UNK        -0.5000 
     60 C          -0.4808  -12.5698  -43.0885 C.2       2 UNK         0.5000 
     61 O           0.6317  -12.5028  -42.5646 O.2       2 UNK        -0.5000 
     62 CA         -1.2698  -13.8936  -43.0166 C.3       2 UNK         0.1400 
     63 CB         -2.0086  -14.0101  -41.6752 C.3       2 UNK        -0.1800 
     64 N          -2.2318  -14.0875  -44.1068 N.am      2 UNK        -0.5000 
     65 C          -1.9070  -14.1840  -45.4044 C.2       1 UNK         0.5000 
     66 O          -0.7611  -14.0556  -45.8265 O.2       1 UNK        -0.5000 
     67 C          -1.7713  -23.1982  -47.2227 C.2       11 UNK         0.5000 
     68 O          -2.2116  -23.9068  -48.1263 O.2       11 UNK        -0.5000 
     69 N          -2.5155  -22.7746  -46.1911 N.am      12 UNK        -0.5000 
     70 CA         -3.9152  -23.1367  -45.9684 C.3       12 UNK         0.1400 
     71 CB         -4.4952  -22.2955  -44.8225 C.3       12 UNK        -0.1800 
     72 C          -4.1073  -24.6383  -45.6976 C.2       12 UNK         0.5000 
     73 O          -5.0274  -25.2329  -46.2583 O.2       12 UNK        -0.5000 
     74 N          -3.2167  -25.2381  -44.8931 N.am      13 UNK        -0.5000 
     75 CA         -3.1945  -26.6785  -44.6154 C.3       13 UNK         0.1400 
     76 CB         -2.1787  -26.9758  -43.5025 C.3       13 UNK        -0.1800 
     77 C          -2.9009  -27.5285  -45.8682 C.2       13 UNK         0.5000 
     78 O          -3.4836  -28.6014  -46.0274 O.2       13 UNK        -0.5000 
     79 N          -2.0374  -27.0125  -46.7527 N.am      14 UNK        -0.5000 
     80 CA         -1.7244  -27.5849  -48.0635 C.3       14 UNK         0.1400 
     81 CB         -0.3777  -27.0132  -48.5370 C.3       14 UNK        -0.1800 
     82 C          -2.8165  -27.3357  -49.1268 C.2       14 UNK         0.5000 
     83 O          -2.7261  -27.9069  -50.2142 O.2       14 UNK        -0.5000 
     84 N          -3.8061  -26.4848  -48.8108 N.am      15 UNK        -0.5000 
     85 CA         -4.8823  -25.9955  -49.6801 C.3       15 UNK         0.1400 
     86 CB         -5.8370  -27.1400  -50.0790 C.3       15 UNK        -0.1800 
     87 C          -4.3485  -25.1937  -50.8871 C.2       15 UNK         0.5000 
     88 O          -4.8728  -25.3102  -51.9960 O.2       15 UNK        -0.5000 
     89 N          -3.3055  -24.3936  -50.6402 N.am      16 UNK        -0.5000 
     90 CA         -2.5738  -23.6065  -51.6265 C.3       16 UNK         0.1400 
     91 CB         -1.2899  -24.3598  -52.0195 C.3       16 UNK        -0.1800 
     92 C          -2.2989  -22.1932  -51.0863 C.2       16 UNK         0.5000 
     93 O          -1.2103  -21.6562  -51.2812 O.2       16 UNK        -0.5000 
     94 N          -3.2984  -21.6169  -50.4091 N.am      17 UNK        -0.5000 
     95 CA         -3.3128  -20.2413  -49.9098 C.3       17 UNK         0.1400 
     96 CB         -4.4548  -20.1302  -48.8836 C.3       17 UNK        -0.1800 
     97 C          -3.4572  -19.1928  -51.0363 C.2       17 UNK         0.5000 
     98 O          -3.5229  -19.5477  -52.2188 O.2       17 UNK        -0.5000 
     99 N          -3.5277  -17.9169  -50.6277 N.am      18 UNK        -0.5000 
    100 CA        -3.7093  -16.7226  -51.4562 C.3       18 UNK         0.1400 
    101 CB        -3.9428  -15.5047  -50.5448 C.3       18 UNK        -0.1800 
    102 C         -4.8558  -16.8602  -52.4729 C.2       18 UNK         0.5000 
    103 O         -6.0215  -16.9126  -52.0770 O.2       18 UNK        -0.5000 
    104 N         -4.4816  -16.9528  -53.7557 N.am      19 UNK        -0.5000 
    105 CA        -5.3366  -17.1344  -54.9346 C.3       19 UNK         0.1400 
    106 CB        -6.3277  -15.9621  -55.0902 C.3       19 UNK        -0.1800 
    107 C         -6.0423  -18.5063  -55.0257 C.2       19 UNK         0.5000 
    108 O         -6.7881  -18.7255  -55.9816 O.2       19 UNK        -0.5000 
    109 N         -5.7824  -19.4212  -54.0797 N.am      20 UNK        -0.5000 
    110 CA        -6.2463  -20.8084  -54.1329 C.3       20 UNK         0.1400 
    111 CB        -6.3017  -21.4013  -52.7165 C.3       20 UNK        -0.1800 
    112 C         -5.3355  -21.6467  -55.0447 C.2       20 UNK         0.5000 
    113 O         -5.8381  -22.4745  -55.8050 O.2       20 UNK        -0.5000 
    114 N         -4.0241  -21.3757  -54.9836 N.am      21 UNK        -0.5000 
    115 CA        -3.0068  -21.9132  -55.8875 C.3       21 UNK         0.1400 
    116 CB        -2.7915  -23.4264  -55.6802 C.3       21 UNK        -0.1800 
    117 C         -1.6750  -21.1665  -55.7284 C.2       21 UNK         0.5000 
    118 O         -0.9934  -20.9446  -56.7300 O.2       21 UNK        -0.5000 
    119 N         -1.3265  -20.8039  -54.4844 N.am      22 UNK        -0.5000 
    120 CA        -0.0135  -20.2725  -54.0773 C.3       22 UNK         0.1400 
    121 C          1.1620  -21.2829  -54.2884 C.2       22 UNK         0.5000 
    122 N          2.4117  -20.8675  -54.1196 N.am      22 UNK        -0.7600 
    123 O          0.9636  -22.4649  -54.5617 O.2       22 UNK        -0.5000 
    124 C124        0.2712  -18.8497  -54.6410 C.3       23 UNK        -0.0398 
    125 S125       -0.8558  -17.5862  -53.9549 S.3       23 UNK        -0.2404 
    126 C126        0.2549  -16.6466  -52.8497 C.3       23 UNK        -0.0205 
    127 H127       -5.6787  -10.7250  -46.5394 H         1 UNK         0.0600 
    128 H128       -5.2894  -10.8023  -44.8180 H         1 UNK         0.0600 
    129 H129       -6.2561  -12.0791  -45.5634 H         1 UNK         0.0600 
    130 H130       -5.0828  -13.9349  -45.9275 H         1 UNK         0.3000 
    131 H131       -2.7202  -14.0526  -47.3871 H         1 UNK         0.0600 
    132 H132       -3.6611  -16.2772  -45.5032 H         1 UNK         0.0800 
    133 H133       -4.5174  -15.8823  -46.9478 H         1 UNK         0.0800 
    134 H134       -1.1318  -15.2293  -48.2727 H         1 UNK         0.0800 
    135 H135       -0.3111  -16.2316  -47.0937 H         1 UNK         0.0800 
    136 H136       -0.8562  -15.6002  -50.6005 H         1 UNK         0.1150 
    137 H137        1.4948  -18.9146  -51.9416 H         1 UNK         0.1150 
    138 H138        0.4296  -18.5539  -47.8022 H         1 UNK         0.1150 
    139 H139        1.3777  -20.9800  -50.3256 H         1 UNK         0.0800 
    140 H140        2.8123  -20.0890  -49.8801 H         1 UNK         0.0800 
    141 H141       -0.5323  -21.3127  -48.7701 H         1 UNK         0.0800 
    142 H142       -0.5742  -20.6524  -47.1573 H         1 UNK         0.0800 
    143 H143        0.2295  -23.5096  -47.8946 H         1 UNK         0.0600 
    144 H144        0.6989  -22.1533  -45.4521 H         1 UNK         0.3000 
    145 H145        0.6437  -25.0053  -43.2949 H         1 UNK         0.0600 
    146 H146        2.9084  -24.0904  -42.8063 H         1 UNK         0.0600 
    147 H147        2.9010  -24.9873  -44.3172 H         1 UNK         0.0600 
    148 H148        2.9132  -23.2299  -44.3451 H         1 UNK         0.0600 
    149 H149        1.0795  -22.1260  -43.0770 H         1 UNK         0.3000 
    150 H150       -2.2341  -21.3898  -41.9847 H         1 UNK         0.0600 
    151 H151       -1.0867  -22.2779  -39.9482 H         1 UNK         0.0600 
    152 H152       -1.0150  -20.5241  -40.0124 H         1 UNK         0.0600 
    153 H153        0.4067  -21.4811  -40.4294 H         1 UNK         0.0600 
    154 H154        0.1064  -19.7714  -42.2104 H         1 UNK         0.3000 
    155 H155       -0.3668  -18.8308  -45.6331 H         1 UNK         0.0600 
    156 H156       -0.7418  -17.2562  -43.0409 H         1 UNK         0.0600 
    157 H157       -0.5730  -16.6153  -44.6741 H         1 UNK         0.0600 
    158 H158       -2.0096  -17.5198  -44.2338 H         1 UNK         0.0600 
    159 H159        1.5385  -17.7023  -44.1434 H         1 UNK         0.3000 
    160 H160        3.9989  -19.8225  -43.3778 H         1 UNK         0.0600 
    161 H161        5.4519  -19.3862  -45.3592 H         1 UNK         0.0600 
    162 H162        4.0281  -19.0462  -46.3455 H         1 UNK         0.0600 
    163 H163        4.2964  -20.6614  -45.7055 H         1 UNK         0.0600 
    164 H164        4.1575  -17.2520  -44.6859 H         1 UNK         0.3000 
    165 H165        3.0638  -15.2362  -42.1084 H         1 UNK         0.0600 
    166 H166        5.3612  -14.3170  -41.8849 H         1 UNK         0.0600 
    167 H167        5.2203  -15.8226  -40.9927 H         1 UNK         0.0600 
    168 H168        6.0471  -15.8024  -42.5456 H         1 UNK         0.0600 
    169 H169        4.7687  -14.7131  -44.3509 H         1 UNK         0.3000 
    170 H170        3.9683  -13.7524  -46.1673 H         1 UNK         0.0600 
    171 H171        3.2636  -14.9690  -48.2443 H         1 UNK         0.0600 
    172 H172        2.1422  -15.9506  -47.3058 H         1 UNK         0.0600 
    173 H173        3.8756  -16.0996  -47.0481 H         1 UNK         0.0600 
    174 H174        1.0420  -13.5552  -46.0562 H         1 UNK         0.3000 
    175 H175        1.1761  -10.4258  -47.8559 H         1 UNK         0.0600 
    176 H176       -0.9731  -11.3223  -48.7136 H         1 UNK         0.0600 
    177 H177       -0.5072  -12.9530  -48.2408 H         1 UNK         0.0600 
    178 H178        0.3888  -12.1121  -49.4965 H         1 UNK         0.0600 
    179 H179       -0.7462  -11.7099  -46.1109 H         1 UNK         0.3000 
    180 H180        0.2441  -10.0121  -43.1581 H         1 UNK         0.0600 
    181 H181       -2.1115   -9.3498  -45.0023 H         1 UNK         0.0600 
    182 H182       -0.9769   -8.1975  -44.3137 H         1 UNK         0.0600 
    183 H183       -2.0653   -9.0865  -43.2595 H         1 UNK         0.0600 
    184 H184       -1.9618  -11.6875  -44.1643 H         1 UNK         0.3000 
    185 H185       -0.5389  -14.7018  -43.0704 H         1 UNK         0.0600 
    186 H186       -2.7780  -13.2440  -41.5721 H         1 UNK         0.0600 
    187 H187       -2.4860  -14.9847  -41.5714 H         1 UNK         0.0600 
    188 H188       -1.3185  -13.8977  -40.8378 H         1 UNK         0.0600 
    189 H189       -3.2040  -14.1553  -43.8442 H         1 UNK         0.3000 
    190 H190       -2.1055  -22.1367  -45.5121 H         1 UNK         0.3000 
    191 H191       -4.4702  -22.8977  -46.8773 H         1 UNK         0.0600 
    192 H192       -4.4586  -21.2320  -45.0593 H         1 UNK         0.0600 
    193 H193       -5.5392  -22.5513  -44.6374 H         1 UNK         0.0600 
    194 H194       -3.9472  -22.4500  -43.8924 H         1 UNK         0.0600 
    195 H195       -2.5094  -24.6749  -44.4349 H         1 UNK         0.3000 
    196 H196       -4.1847  -26.9607  -44.2518 H         1 UNK         0.0600 
    197 H197       -2.1731  -28.0376  -43.2531 H         1 UNK         0.0600 
    198 H198       -2.4210  -26.4293  -42.5909 H         1 UNK         0.0600 
    199 H199       -1.1655  -26.7034  -43.7970 H         1 UNK         0.0600 
    200 H200       -1.5431  -26.1608  -46.5048 H         1 UNK         0.3000 
    201 H201       -1.6161  -28.6658  -47.9541 H         1 UNK         0.0600 
    202 H202        0.4148  -27.2236  -47.8186 H         1 UNK         0.0600 
    203 H203       -0.4263  -25.9326  -48.6740 H         1 UNK         0.0600 
    204 H204       -0.0770  -27.4510  -49.4896 H         1 UNK         0.0600 
    205 H205       -3.7842  -26.0707  -47.8876 H         1 UNK         0.3000 
    206 H206       -5.4553  -25.2876  -49.0799 H         1 UNK         0.0600 
    207 H207       -6.1967  -27.6759  -49.2006 H         1 UNK         0.0600 
    208 H208       -6.7116  -26.7531  -50.6030 H         1 UNK         0.0600 
    209 H209       -5.3548  -27.8615  -50.7390 H         1 UNK         0.0600 
    210 H210       -2.9470  -24.3313  -49.6864 H         1 UNK         0.3000 
    211 H211       -3.1879  -23.4709  -52.5178 H         1 UNK         0.0600 
    212 H212       -0.6314  -24.4985  -51.1611 H         1 UNK         0.0600 
    213 H213       -0.7302  -23.8163  -52.7815 H         1 UNK         0.0600 
    214 H214       -1.5206  -25.3442  -52.4270 H         1 UNK         0.0600 
    215 H215       -4.1544  -22.1391  -50.3012 H         1 UNK         0.3000 
    216 H216       -2.3681  -20.0402  -49.4024 H         1 UNK         0.0600 
    217 H217       -4.5007  -19.1416  -48.4274 H         1 UNK         0.0600 
    218 H218       -4.3189  -20.8424  -48.0706 H         1 UNK         0.0600 
    219 H219       -5.4256  -20.3232  -49.3419 H         1 UNK         0.0600 
    220 H220       -3.4472  -17.7378  -49.6364 H         1 UNK         0.3000 
    221 H221       -2.7790  -16.5576  -51.9993 H         1 UNK         0.0600 
    222 H222       -4.8123  -15.6446  -49.9013 H         1 UNK         0.0600 
    223 H223       -3.0844  -15.3109  -49.9045 H         1 UNK         0.0600 
    224 H224       -4.1122  -14.6025  -51.1338 H         1 UNK         0.0600 
    225 H225       -3.4889  -16.9570  -53.9508 H         1 UNK         0.3000 
    226 H226       -4.6596  -17.0993  -55.7892 H         1 UNK         0.0600 
    227 H227       -5.8138  -15.0018  -55.0464 H         1 UNK         0.0600 
    228 H228       -6.8411  -16.0092  -56.0512 H         1 UNK         0.0600 
    229 H229       -7.0936  -15.9700  -54.3144 H         1 UNK         0.0600 
    230 H230       -5.1294  -19.1886  -53.3385 H         1 UNK         0.3000 
    231 H231       -7.2580  -20.8313  -54.5439 H         1 UNK         0.0600 
    232 H232       -5.3095  -21.5002  -52.2811 H         1 UNK         0.0600 
    233 H233       -6.7475  -22.3966  -52.7314 H         1 UNK         0.0600 
    234 H234       -6.9029  -20.7826  -52.0501 H         1 UNK         0.0600 
    235 H235       -3.7223  -20.6381  -54.3596 H         1 UNK         0.3000 
    236 H236       -3.3513  -21.7493  -56.9108 H         1 UNK         0.0600 
    237 H237       -3.7016  -23.9996  -55.8527 H         1 UNK         0.0600 
    238 H238       -2.0407  -23.8064  -56.3741 H         1 UNK         0.0600 
    239 H239       -2.4396  -23.6496  -54.6750 H         1 UNK         0.0600 
    240 H240       -1.9317  -21.0381  -53.7118 H         1 UNK         0.3000 
    241 H241       -0.0861  -20.1812  -52.9964 H         1 UNK         0.0600 
    242 H242        2.6410  -19.9166  -53.8826 H         1 UNK         0.3800 
    243 H243        3.1575  -21.5347  -54.2428 H         1 UNK         0.3800 
    244 H244        1.2942  -18.5366  -54.4386 H         1 UNK         0.0800 
    245 H245        0.1815  -18.8390  -55.7273 H         1 UNK         0.0800 
    246 H246       -0.0949  -15.6134  -52.8270 H         1 UNK         0.0800 
    247 H247        1.2640  -16.6013  -53.2605 H         1 UNK         0.0800 
@<TRIPOS>BOND
     1    1    2 1    
     2    1  127 1    
     3    1  128 1    
     4    1  129 1    
     5    2    3 2    
     6    2    4 am   BACKBONE|DICT|INTERRES
     7    4    5 1    
     8    4  130 1    
     9    5    6 1    
    10    5   65 1    
    11    5  131 1    
    12    6    7 1    
    13    6  132 1    
    14    6  133 1    
    15    7    8 1    
    16    8    9 1    
    17    8  134 1    
    18    8  135 1    
    19    9   10 ar   
    20    9   14 ar   
    21   10   11 ar   
    22   10  136 1    
    23   11   12 ar   
    24   11  126 1    
    25   12   13 ar   
    26   12  137 1    
    27   13   14 ar   
    28   13   15 1    
    29   14  138 1    
    30   15   16 1    
    31   15  139 1    
    32   15  140 1    
    33   16   17 1    
    34   17   18 1    
    35   17  141 1    
    36   17  142 1    
    37   18   19 1    
    38   18   67 1    
    39   18  143 1    
    40   19   20 am   BACKBONE|DICT|INTERRES
    41   19  144 1    
    42   20   21 2    
    43   20   22 1    
    44   22   23 1    
    45   22   24 1    
    46   22  145 1    
    47   23  146 1    
    48   23  147 1    
    49   23  148 1    
    50   24   25 am   BACKBONE|DICT|INTERRES
    51   24  149 1    
    52   25   26 2    
    53   25   27 1    
    54   27   28 1    
    55   27   29 1    
    56   27  150 1    
    57   28  151 1    
    58   28  152 1    
    59   28  153 1    
    60   29   30 am   BACKBONE|DICT|INTERRES
    61   29  154 1    
    62   30   31 2    
    63   30   32 1    
    64   32   33 1    
    65   32   34 1    
    66   32  155 1    
    67   33  156 1    
    68   33  157 1    
    69   33  158 1    
    70   34   35 am   BACKBONE|DICT|INTERRES
    71   34  159 1    
    72   35   36 2    
    73   35   37 1    
    74   37   38 1    
    75   37   39 1    
    76   37  160 1    
    77   38  161 1    
    78   38  162 1    
    79   38  163 1    
    80   39   40 am   BACKBONE|DICT|INTERRES
    81   39  164 1    
    82   40   41 2    
    83   40   42 1    
    84   42   43 1    
    85   42   44 1    
    86   42  165 1    
    87   43  166 1    
    88   43  167 1    
    89   43  168 1    
    90   44   45 am   BACKBONE|DICT|INTERRES
    91   44  169 1    
    92   45   46 2    
    93   45   47 1    
    94   47   48 1    
    95   47   49 1    
    96   47  170 1    
    97   48  171 1    
    98   48  172 1    
    99   48  173 1    
   100   49   50 am   BACKBONE|DICT|INTERRES
   101   49  174 1    
   102   50   51 2    
   103   50   52 1    
   104   52   53 1    
   105   52   54 1    
   106   52  175 1    
   107   53  176 1    
   108   53  177 1    
   109   53  178 1    
   110   54   55 am   BACKBONE|DICT|INTERRES
   111   54  179 1    
   112   55   56 2    
   113   55   57 1    
   114   57   58 1    
   115   57   59 1    
   116   57  180 1    
   117   58  181 1    
   118   58  182 1    
   119   58  183 1    
   120   59   60 am   BACKBONE|DICT|INTERRES
   121   59  184 1    
   122   60   61 2    
   123   60   62 1    
   124   62   63 1    
   125   62   64 1    
   126   62  185 1    
   127   63  186 1    
   128   63  187 1    
   129   63  188 1    
   130   64   65 am   BACKBONE|DICT|INTERRES
   131   64  189 1    
   132   65   66 2    
   133   67   68 2    
   134   67   69 am   BACKBONE|DICT|INTERRES
   135   69   70 1    
   136   69  190 1    
   137   70   71 1    
   138   70   72 1    
   139   70  191 1    
   140   71  192 1    
   141   71  193 1    
   142   71  194 1    
   143   72   73 2    
   144   72   74 am   BACKBONE|DICT|INTERRES
   145   74   75 1    
   146   74  195 1    
   147   75   76 1    
   148   75   77 1    
   149   75  196 1    
   150   76  197 1    
   151   76  198 1    
   152   76  199 1    
   153   77   78 2    
   154   77   79 am   BACKBONE|DICT|INTERRES
   155   79   80 1    
   156   79  200 1    
   157   80   81 1    
   158   80   82 1    
   159   80  201 1    
   160   81  202 1    
   161   81  203 1    
   162   81  204 1    
   163   82   83 2    
   164   82   84 am   BACKBONE|DICT|INTERRES
   165   84   85 1    
   166   84  205 1    
   167   85   86 1    
   168   85   87 1    
   169   85  206 1    
   170   86  207 1    
   171   86  208 1    
   172   86  209 1    
   173   87   88 2    
   174   87   89 am   BACKBONE|DICT|INTERRES
   175   89   90 1    
   176   89  210 1    
   177   90   91 1    
   178   90   92 1    
   179   90  211 1    
   180   91  212 1    
   181   91  213 1    
   182   91  214 1    
   183   92   93 2    
   184   92   94 am   BACKBONE|DICT|INTERRES
   185   94   95 1    
   186   94  215 1    
   187   95   96 1    
   188   95   97 1    
   189   95  216 1    
   190   96  217 1    
   191   96  218 1    
   192   96  219 1    
   193   97   98 2    
   194   97   99 am   BACKBONE|DICT|INTERRES
   195   99  100 1    
   196   99  220 1    
   197  100  101 1    
   198  100  102 1    
   199  100  221 1    
   200  101  222 1    
   201  101  223 1    
   202  101  224 1    
   203  102  103 2    
   204  102  104 am   BACKBONE|DICT|INTERRES
   205  104  105 1    
   206  104  225 1    
   207  105  106 1    
   208  105  107 1    
   209  105  226 1    
   210  106  227 1    
   211  106  228 1    
   212  106  229 1    
   213  107  108 2    
   214  107  109 am   BACKBONE|DICT|INTERRES
   215  109  110 1    
   216  109  230 1    
   217  110  111 1    
   218  110  112 1    
   219  110  231 1    
   220  111  232 1    
   221  111  233 1    
   222  111  234 1    
   223  112  113 2    
   224  112  114 am   BACKBONE|DICT|INTERRES
   225  114  115 1    
   226  114  235 1    
   227  115  116 1    
   228  115  117 1    
   229  115  236 1    
   230  116  237 1    
   231  116  238 1    
   232  116  239 1    
   233  117  118 2    
   234  117  119 am   BACKBONE|DICT|INTERRES
   235  119  120 1    
   236  119  240 1    
   237  120  121 1    
   238  120  124 1    
   239  120  241 1    
   240  121  122 am   BACKBONE|DICT|INTERRES
   241  121  123 2    
   242  122  242 1    
   243  122  243 1    
   244  124  125 1    
   245  124  244 1    
   246  124  245 1    
   247  125  126 1    
   248  126  246 1    
   249  126  247 1    
@<TRIPOS>SUBSTRUCTURE
     1 UNK         1 GROUP             0       ****    0 ROOT    
