@<TRIPOS>MOLECULE
3R540
247   249    1
SMALL
USER_CHARGES


@<TRIPOS>ATOM
      1 CA          1.0412  -13.5455  -50.1212 C.3       0 UNK        -0.1800 
      2 C           2.2612  -13.5894  -49.2115 C.2       0 UNK         0.5000 
      3 O           3.1988  -12.8170  -49.4105 O.2       0 UNK        -0.5000 
      4 N           2.2580  -14.4928  -48.2246 N.am      1 UNK        -0.5000 
      5 CA          3.3955  -14.7521  -47.3271 C.3       1 UNK         0.1400 
      6 C6          3.5361  -16.2571  -46.9935 C.3       23 UNK        -0.0398 
      7 S7          3.6834  -17.3091  -48.4766 S.3       23 UNK        -0.2404 
      8 C8          2.0083  -18.0160  -48.5173 C.3       23 UNK        -0.0205 
      9 C9          1.8013  -18.9489  -49.6983 C.ar      23 UNK        -0.0193 
     10 C10         0.8224  -18.6608  -50.6518 C.ar      23 UNK        -0.1150 
     11 C11         0.5904  -19.5346  -51.7170 C.ar      23 UNK        -0.0193 
     12 C12         1.3266  -20.7177  -51.8102 C.ar      23 UNK        -0.1150 
     13 C13         2.2996  -21.0256  -50.8553 C.ar      23 UNK        -0.0193 
     14 C14         2.5482  -20.1246  -49.8147 C.ar      23 UNK        -0.1150 
     15 C15         3.0483  -22.3512  -50.9343 C.3       23 UNK        -0.0205 
     16 S16         2.9190  -23.3511  -49.4101 S.3       23 UNK        -0.2404 
     17 C17         1.1677  -23.1252  -48.9364 C.3       23 UNK        -0.0398 
     18 CA          0.6818  -24.1120  -47.8485 C.3       11 UNK         0.1400 
     19 N           1.6085  -24.1728  -46.7155 N.am      11 UNK        -0.5000 
     20 C           1.4940  -24.9391  -45.6232 C.2       10 UNK         0.5000 
     21 O           0.5927  -25.7593  -45.4590 O.2       10 UNK        -0.5000 
     22 CA          2.5251  -24.7042  -44.5003 C.3       10 UNK         0.1400 
     23 CB          3.6015  -25.7989  -44.5259 C.3       10 UNK        -0.1800 
     24 N           3.1741  -23.3880  -44.5619 N.am      10 UNK        -0.5000 
     25 C           2.5407  -22.2113  -44.4575 C.2       9 UNK         0.5000 
     26 O           1.3240  -22.1021  -44.2799 O.2       9 UNK        -0.5000 
     27 CA          3.4006  -20.9601  -44.7008 C.3       9 UNK         0.1400 
     28 CB          3.4516  -20.6533  -46.2047 C.3       9 UNK        -0.1800 
     29 N           2.8649  -19.7960  -44.0017 N.am      9 UNK        -0.5000 
     30 C           2.9761  -19.5740  -42.6888 C.2       8 UNK         0.5000 
     31 O           3.6000  -20.3125  -41.9251 O.2       8 UNK        -0.5000 
     32 CA          2.2762  -18.3231  -42.1223 C.3       8 UNK         0.1400 
     33 CB          3.1130  -17.0522  -42.3707 C.3       8 UNK        -0.1800 
     34 N           0.8823  -18.1447  -42.5548 N.am      8 UNK        -0.5000 
     35 C           0.4099  -17.8395  -43.7708 C.2       7 UNK         0.5000 
     36 O           1.1151  -17.7072  -44.7739 O.2       7 UNK        -0.5000 
     37 CA         -1.1106  -17.6531  -43.8761 C.3       7 UNK         0.1400 
     38 CB         -1.6098  -16.5005  -42.9838 C.3       7 UNK        -0.1800 
     39 N          -1.4661  -17.3843  -45.2646 N.am      7 UNK        -0.5000 
     40 C          -2.6614  -17.6027  -45.8165 C.2       6 UNK         0.5000 
     41 O          -3.6234  -18.0583  -45.1954 O.2       6 UNK        -0.5000 
     42 CA         -2.8032  -17.2178  -47.3007 C.3       6 UNK         0.1400 
     43 CB         -4.1404  -17.6855  -47.8997 C.3       6 UNK        -0.1800 
     44 N          -2.7041  -15.7709  -47.4664 N.am      6 UNK        -0.5000 
     45 C          -1.5728  -15.0670  -47.5711 C.2       5 UNK         0.5000 
     46 O          -0.4448  -15.5623  -47.5287 O.2       5 UNK        -0.5000 
     47 CA         -1.7231  -13.5430  -47.7123 C.3       5 UNK         0.1400 
     48 CB         -2.5774  -13.1340  -48.9276 C.3       5 UNK        -0.1800 
     49 N          -2.1783  -12.8955  -46.4802 N.am      5 UNK        -0.5000 
     50 C          -3.3574  -13.0052  -45.8490 C.2       4 UNK         0.5000 
     51 O          -4.2964  -13.6813  -46.2717 O.2       4 UNK        -0.5000 
     52 CA         -3.5194  -12.2487  -44.5111 C.3       4 UNK         0.1400 
     53 CB         -3.8073  -13.2291  -43.3627 C.3       4 UNK        -0.1800 
     54 N          -2.3435  -11.4507  -44.1523 N.am      4 UNK        -0.5000 
     55 C          -2.0899  -10.2076  -44.5841 C.2       3 UNK         0.5000 
     56 O          -2.8675   -9.5524  -45.2782 O.2       3 UNK        -0.5000 
     57 CA         -0.7160   -9.6119  -44.2060 C.3       3 UNK         0.1400 
     58 CB         -0.8277   -8.7780  -42.9206 C.3       3 UNK        -0.1800 
     59 N           0.3437  -10.6164  -44.0370 N.am      3 UNK        -0.5000 
     60 C           0.7760  -11.4389  -45.0024 C.2       2 UNK         0.5000 
     61 O           0.3222  -11.4318  -46.1495 O.2       2 UNK        -0.5000 
     62 CA          1.8504  -12.4674  -44.6168 C.3       2 UNK         0.1400 
     63 CB          1.3595  -13.4075  -43.4988 C.3       2 UNK        -0.1800 
     64 N           2.1745  -13.2577  -45.7987 N.am      2 UNK        -0.5000 
     65 C           3.3071  -13.9304  -46.0225 C.2       1 UNK         0.5000 
     66 O           4.2581  -13.9332  -45.2394 O.2       1 UNK        -0.5000 
     67 C          -0.7536  -23.7290  -47.4252 C.2       11 UNK         0.5000 
     68 O          -1.7066  -24.1565  -48.0771 O.2       11 UNK        -0.5000 
     69 N          -0.8895  -22.9326  -46.3536 N.am      12 UNK        -0.5000 
     70 CA         -2.1768  -22.5459  -45.7781 C.3       12 UNK         0.1400 
     71 CB         -1.9870  -21.3049  -44.8942 C.3       12 UNK        -0.1800 
     72 C          -2.8214  -23.6988  -44.9904 C.2       12 UNK         0.5000 
     73 O          -4.0278  -23.9104  -45.1077 O.2       12 UNK        -0.5000 
     74 N          -2.0022  -24.4515  -44.2421 N.am      13 UNK        -0.5000 
     75 CA         -2.4181  -25.6396  -43.4915 C.3       13 UNK         0.1400 
     76 CB         -1.3159  -26.0267  -42.4933 C.3       13 UNK        -0.1800 
     77 C          -2.7635  -26.8218  -44.4163 C.2       13 UNK         0.5000 
     78 O          -3.7192  -27.5500  -44.1480 O.2       13 UNK        -0.5000 
     79 N          -2.0026  -26.9612  -45.5102 N.am      14 UNK        -0.5000 
     80 CA         -2.2249  -27.9328  -46.5832 C.3       14 UNK         0.1400 
     81 CB         -0.9416  -28.0321  -47.4232 C.3       14 UNK        -0.1800 
     82 C          -3.4269  -27.5907  -47.4890 C.2       14 UNK         0.5000 
     83 O          -3.8415  -28.4404  -48.2778 O.2       14 UNK        -0.5000 
     84 N          -3.9437  -26.3572  -47.3772 N.am      15 UNK        -0.5000 
     85 CA         -5.0369  -25.7649  -48.1552 C.3       15 UNK         0.1400 
     86 CB         -6.3621  -26.5216  -47.9305 C.3       15 UNK        -0.1800 
     87 C          -4.6968  -25.5725  -49.6488 C.2       15 UNK         0.5000 
     88 O          -5.5993  -25.4909  -50.4822 O.2       15 UNK        -0.5000 
     89 N          -3.4011  -25.4466  -49.9606 N.am      16 UNK        -0.5000 
     90 CA         -2.8954  -25.0781  -51.2814 C.3       16 UNK         0.1400 
     91 CB         -1.4201  -25.4903  -51.3969 C.3       16 UNK        -0.1800 
     92 C          -3.0710  -23.5702  -51.5278 C.2       16 UNK         0.5000 
     93 O          -3.4955  -23.1718  -52.6119 O.2       16 UNK        -0.5000 
     94 N          -2.8122  -22.7632  -50.4875 N.am      17 UNK        -0.5000 
     95 CA         -3.0130  -21.3109  -50.4961 C.3       17 UNK         0.1400 
     96 CB         -2.1461  -20.6691  -49.4012 C.3       17 UNK        -0.1800 
     97 C          -4.4947  -20.8996  -50.3527 C.2       17 UNK         0.5000 
     98 O          -4.8073  -19.7161  -50.4634 O.2       17 UNK        -0.5000 
     99 N          -5.3904  -21.8678  -50.1130 N.am      18 UNK        -0.5000 
    100 CA        -6.8379  -21.6543  -50.0898 C.3       18 UNK         0.1400 
    101 CB        -7.5035  -22.7678  -49.2669 C.3       18 UNK        -0.1800 
    102 C         -7.4442  -21.5855  -51.5064 C.2       18 UNK         0.5000 
    103 O         -8.5070  -20.9863  -51.6730 O.2       18 UNK        -0.5000 
    104 N         -6.7741  -22.1942  -52.4982 N.am      19 UNK        -0.5000 
    105 CA        -7.1976  -22.1985  -53.9014 C.3       19 UNK         0.1400 
    106 CB        -6.4531  -23.3124  -54.6532 C.3       19 UNK        -0.1800 
    107 C         -6.9748  -20.8361  -54.5844 C.2       19 UNK         0.5000 
    108 O         -7.8168  -20.3974  -55.3688 O.2       19 UNK        -0.5000 
    109 N         -5.8570  -20.1868  -54.2489 N.am      20 UNK        -0.5000 
    110 CA        -5.4806  -18.8373  -54.6467 C.3       20 UNK         0.1400 
    111 CB        -4.8670  -18.8386  -56.0573 C.3       20 UNK        -0.1800 
    112 C         -4.4752  -18.3503  -53.5996 C.2       20 UNK         0.5000 
    113 O         -3.6030  -19.1278  -53.2125 O.2       20 UNK        -0.5000 
    114 N         -4.6230  -17.1012  -53.1430 N.am      21 UNK        -0.5000 
    115 CA        -3.8935  -16.5602  -51.9909 C.3       21 UNK         0.1400 
    116 CB        -4.6978  -15.3916  -51.4020 C.3       21 UNK        -0.1800 
    117 C         -2.4423  -16.1324  -52.2821 C.2       21 UNK         0.5000 
    118 O         -1.6966  -15.8832  -51.3352 O.2       21 UNK        -0.5000 
    119 N         -2.0665  -16.0554  -53.5663 N.am      22 UNK        -0.5000 
    120 CA        -0.7262  -15.6826  -54.0637 C.3       22 UNK         0.1400 
    121 C         -0.3278  -14.1920  -53.8220 C.2       22 UNK         0.5000 
    122 N         -1.2450  -13.3094  -53.4450 N.am      22 UNK        -0.7600 
    123 O          0.8243  -13.8146  -54.0176 O.2       22 UNK        -0.5000 
    124 C124        0.3948  -16.6696  -53.6205 C.3       23 UNK        -0.0398 
    125 S125        0.1307  -18.3776  -54.2147 S.3       23 UNK        -0.2404 
    126 C126       -0.4962  -19.2324  -52.7335 C.3       23 UNK        -0.0205 
    127 H127        1.3534  -13.5786  -51.1648 H         1 UNK         0.0600 
    128 H128        0.4825  -12.6232  -49.9639 H         1 UNK         0.0600 
    129 H129        0.3744  -14.3906  -49.9492 H         1 UNK         0.0600 
    130 H130        1.4367  -15.0715  -48.0759 H         1 UNK         0.3000 
    131 H131        4.3193  -14.4460  -47.8226 H         1 UNK         0.0600 
    132 H132        4.4240  -16.4307  -46.3829 H         1 UNK         0.0800 
    133 H133        2.6913  -16.5921  -46.3929 H         1 UNK         0.0800 
    134 H134        1.2858  -17.2016  -48.5535 H         1 UNK         0.0800 
    135 H135        1.8108  -18.5550  -47.5910 H         1 UNK         0.0800 
    136 H136        0.2277  -17.7630  -50.5553 H         1 UNK         0.1150 
    137 H137        1.1270  -21.4059  -52.6196 H         1 UNK         0.1150 
    138 H138        3.2998  -20.3567  -49.0739 H         1 UNK         0.1150 
    139 H139        2.6789  -22.9504  -51.7679 H         1 UNK         0.0800 
    140 H140        4.1008  -22.1537  -51.1408 H         1 UNK         0.0800 
    141 H141        0.5513  -23.2109  -49.8329 H         1 UNK         0.0800 
    142 H142        1.0523  -22.0993  -48.5824 H         1 UNK         0.0800 
    143 H143        0.6409  -25.1112  -48.2854 H         1 UNK         0.0600 
    144 H144        2.4036  -23.5546  -46.7733 H         1 UNK         0.3000 
    145 H145        1.9899  -24.7692  -43.5508 H         1 UNK         0.0600 
    146 H146        4.2903  -25.6955  -43.6873 H         1 UNK         0.0600 
    147 H147        3.1520  -26.7904  -44.4545 H         1 UNK         0.0600 
    148 H148        4.1847  -25.7685  -45.4472 H         1 UNK         0.0600 
    149 H149        4.1710  -23.3920  -44.7247 H         1 UNK         0.3000 
    150 H150        4.4158  -21.1461  -44.3440 H         1 UNK         0.0600 
    151 H151        2.4502  -20.5517  -46.6237 H         1 UNK         0.0600 
    152 H152        3.9541  -21.4516  -46.7522 H         1 UNK         0.0600 
    153 H153        3.9974  -19.7309  -46.4047 H         1 UNK         0.0600 
    154 H154        2.2965  -19.1470  -44.5385 H         1 UNK         0.3000 
    155 H155        2.2258  -18.4647  -41.0415 H         1 UNK         0.0600 
    156 H156        3.2196  -16.8280  -43.4325 H         1 UNK         0.0600 
    157 H157        4.1180  -17.1635  -41.9619 H         1 UNK         0.0600 
    158 H158        2.6617  -16.1853  -41.8886 H         1 UNK         0.0600 
    159 H159        0.2050  -18.2688  -41.8153 H         1 UNK         0.3000 
    160 H160       -1.5782  -18.5874  -43.5590 H         1 UNK         0.0600 
    161 H161       -1.1583  -15.5519  -43.2716 H         1 UNK         0.0600 
    162 H162       -1.3746  -16.6726  -41.9332 H         1 UNK         0.0600 
    163 H163       -2.6920  -16.3892  -43.0521 H         1 UNK         0.0600 
    164 H164       -0.7069  -17.0273  -45.8363 H         1 UNK         0.3000 
    165 H165       -1.9952  -17.7022  -47.8531 H         1 UNK         0.0600 
    166 H166       -4.2063  -17.4342  -48.9567 H         1 UNK         0.0600 
    167 H167       -4.2503  -18.7673  -47.8157 H         1 UNK         0.0600 
    168 H168       -4.9926  -17.2269  -47.3968 H         1 UNK         0.0600 
    169 H169       -3.5660  -15.2446  -47.3730 H         1 UNK         0.3000 
    170 H170       -0.7207  -13.1545  -47.8882 H         1 UNK         0.0600 
    171 H171       -2.2004  -13.5966  -49.8404 H         1 UNK         0.0600 
    172 H172       -3.6216  -13.4250  -48.8191 H         1 UNK         0.0600 
    173 H173       -2.5486  -12.0549  -49.0774 H         1 UNK         0.0600 
    174 H174       -1.4800  -12.2920  -46.0608 H         1 UNK         0.3000 
    175 H175       -4.3834  -11.5894  -44.6173 H         1 UNK         0.0600 
    176 H176       -4.6841  -13.8423  -43.5752 H         1 UNK         0.0600 
    177 H177       -2.9683  -13.9026  -43.1921 H         1 UNK         0.0600 
    178 H178       -4.0040  -12.6971  -42.4317 H         1 UNK         0.0600 
    179 H179       -1.6509  -11.9036  -43.5745 H         1 UNK         0.3000 
    180 H180       -0.4158   -8.9473  -45.0187 H         1 UNK         0.0600 
    181 H181       -1.0978   -9.3949  -42.0626 H         1 UNK         0.0600 
    182 H182       -1.5900   -8.0043  -43.0216 H         1 UNK         0.0600 
    183 H183        0.1129   -8.2765  -42.6921 H         1 UNK         0.0600 
    184 H184        0.7610  -10.6757  -43.1191 H         1 UNK         0.3000 
    185 H185        2.7368  -11.9231  -44.2851 H         1 UNK         0.0600 
    186 H186        1.1342  -12.8611  -42.5827 H         1 UNK         0.0600 
    187 H187        0.4578  -13.9412  -43.7986 H         1 UNK         0.0600 
    188 H188        2.1158  -14.1511  -43.2481 H         1 UNK         0.0600 
    189 H189        1.4733  -13.2260  -46.5272 H         1 UNK         0.3000 
    190 H190       -0.0624  -22.6295  -45.8518 H         1 UNK         0.3000 
    191 H191       -2.8593  -22.2824  -46.5877 H         1 UNK         0.0600 
    192 H192       -1.5363  -20.4884  -45.4582 H         1 UNK         0.0600 
    193 H193       -2.9440  -20.9475  -44.5118 H         1 UNK         0.0600 
    194 H194       -1.3459  -21.5111  -44.0364 H         1 UNK         0.0600 
    195 H195       -1.0165  -24.2339  -44.2354 H         1 UNK         0.3000 
    196 H196       -3.3162  -25.3870  -42.9238 H         1 UNK         0.0600 
    197 H197       -1.6196  -26.8853  -41.8932 H         1 UNK         0.0600 
    198 H198       -1.1023  -25.2088  -41.8050 H         1 UNK         0.0600 
    199 H199       -0.3863  -26.2928  -42.9970 H         1 UNK         0.0600 
    200 H200       -1.1781  -26.3720  -45.5984 H         1 UNK         0.3000 
    201 H201       -2.4186  -28.9077  -46.1314 H         1 UNK         0.0600 
    202 H202       -1.0377  -28.7925  -48.1993 H         1 UNK         0.0600 
    203 H203       -0.0848  -28.3040  -46.8063 H         1 UNK         0.0600 
    204 H204       -0.7131  -27.0872  -47.9165 H         1 UNK         0.0600 
    205 H205       -3.5179  -25.7406  -46.6989 H         1 UNK         0.3000 
    206 H206       -5.1685  -24.7592  -47.7533 H         1 UNK         0.0600 
    207 H207       -6.5736  -26.6375  -46.8675 H         1 UNK         0.0600 
    208 H208       -7.2010  -25.9804  -48.3693 H         1 UNK         0.0600 
    209 H209       -6.3452  -27.5143  -48.3807 H         1 UNK         0.0600 
    210 H210       -2.7308  -25.4330  -49.1997 H         1 UNK         0.3000 
    211 H211       -3.4620  -25.6164  -52.0444 H         1 UNK         0.0600 
    212 H212       -0.8042  -25.0131  -50.6355 H         1 UNK         0.0600 
    213 H213       -1.0126  -25.2158  -52.3707 H         1 UNK         0.0600 
    214 H214       -1.3057  -26.5690  -51.2883 H         1 UNK         0.0600 
    215 H215       -2.4883  -23.1792  -49.6204 H         1 UNK         0.3000 
    216 H216       -2.6678  -20.9271  -51.4571 H         1 UNK         0.0600 
    217 H217       -2.1760  -19.5817  -49.4765 H         1 UNK         0.0600 
    218 H218       -1.1020  -20.9671  -49.4955 H         1 UNK         0.0600 
    219 H219       -2.4879  -20.9387  -48.4034 H         1 UNK         0.0600 
    220 H220       -5.0649  -22.8190  -50.0379 H         1 UNK         0.3000 
    221 H221       -7.0455  -20.7037  -49.5933 H         1 UNK         0.0600 
    222 H222       -7.4106  -23.7395  -49.7509 H         1 UNK         0.0600 
    223 H223       -7.0677  -22.8417  -48.2704 H         1 UNK         0.0600 
    224 H224       -8.5688  -22.5707  -49.1412 H         1 UNK         0.0600 
    225 H225       -5.9017  -22.6587  -52.2877 H         1 UNK         0.3000 
    226 H226       -8.2662  -22.4214  -53.9389 H         1 UNK         0.0600 
    227 H227       -6.7796  -23.3663  -55.6926 H         1 UNK         0.0600 
    228 H228       -5.3751  -23.1470  -54.6564 H         1 UNK         0.0600 
    229 H229       -6.6411  -24.2869  -54.2020 H         1 UNK         0.0600 
    230 H230       -5.2182  -20.6082  -53.5858 H         1 UNK         0.3000 
    231 H231       -6.3637  -18.1953  -54.6281 H         1 UNK         0.0600 
    232 H232       -3.9848  -19.4781  -56.1100 H         1 UNK         0.0600 
    233 H233       -4.5633  -17.8332  -56.3509 H         1 UNK         0.0600 
    234 H234       -5.5815  -19.1924  -56.8005 H         1 UNK         0.0600 
    235 H235       -5.3552  -16.5194  -53.5242 H         1 UNK         0.3000 
    236 H236       -3.8356  -17.3417  -51.2321 H         1 UNK         0.0600 
    237 H237       -5.7075  -15.7030  -51.1339 H         1 UNK         0.0600 
    238 H238       -4.2279  -15.0181  -50.4927 H         1 UNK         0.0600 
    239 H239       -4.7744  -14.5590  -52.1022 H         1 UNK         0.0600 
    240 H240       -2.7510  -16.2809  -54.2725 H         1 UNK         0.3000 
    241 H241       -0.7999  -15.7587  -55.1489 H         1 UNK         0.0600 
    242 H242       -0.9794  -12.3470  -53.3091 H         1 UNK         0.3800 
    243 H243       -2.1984  -13.5942  -53.2936 H         1 UNK         0.3800 
    244 H244        1.3571  -16.3555  -54.0273 H         1 UNK         0.0800 
    245 H245        0.5195  -16.6529  -52.5396 H         1 UNK         0.0800 
    246 H246       -1.2805  -18.6439  -52.2632 H         1 UNK         0.0800 
    247 H247       -0.9699  -20.1630  -53.0490 H         1 UNK         0.0800 
@<TRIPOS>BOND
     1    1    2 1    
     2    1  127 1    
     3    1  128 1    
     4    1  129 1    
     5    2    3 2    
     6    2    4 am   BACKBONE|DICT|INTERRES
     7    4    5 1    
     8    4  130 1    
     9    5    6 1    
    10    5   65 1    
    11    5  131 1    
    12    6    7 1    
    13    6  132 1    
    14    6  133 1    
    15    7    8 1    
    16    8    9 1    
    17    8  134 1    
    18    8  135 1    
    19    9   10 ar   
    20    9   14 ar   
    21   10   11 ar   
    22   10  136 1    
    23   11   12 ar   
    24   11  126 1    
    25   12   13 ar   
    26   12  137 1    
    27   13   14 ar   
    28   13   15 1    
    29   14  138 1    
    30   15   16 1    
    31   15  139 1    
    32   15  140 1    
    33   16   17 1    
    34   17   18 1    
    35   17  141 1    
    36   17  142 1    
    37   18   19 1    
    38   18   67 1    
    39   18  143 1    
    40   19   20 am   BACKBONE|DICT|INTERRES
    41   19  144 1    
    42   20   21 2    
    43   20   22 1    
    44   22   23 1    
    45   22   24 1    
    46   22  145 1    
    47   23  146 1    
    48   23  147 1    
    49   23  148 1    
    50   24   25 am   BACKBONE|DICT|INTERRES
    51   24  149 1    
    52   25   26 2    
    53   25   27 1    
    54   27   28 1    
    55   27   29 1    
    56   27  150 1    
    57   28  151 1    
    58   28  152 1    
    59   28  153 1    
    60   29   30 am   BACKBONE|DICT|INTERRES
    61   29  154 1    
    62   30   31 2    
    63   30   32 1    
    64   32   33 1    
    65   32   34 1    
    66   32  155 1    
    67   33  156 1    
    68   33  157 1    
    69   33  158 1    
    70   34   35 am   BACKBONE|DICT|INTERRES
    71   34  159 1    
    72   35   36 2    
    73   35   37 1    
    74   37   38 1    
    75   37   39 1    
    76   37  160 1    
    77   38  161 1    
    78   38  162 1    
    79   38  163 1    
    80   39   40 am   BACKBONE|DICT|INTERRES
    81   39  164 1    
    82   40   41 2    
    83   40   42 1    
    84   42   43 1    
    85   42   44 1    
    86   42  165 1    
    87   43  166 1    
    88   43  167 1    
    89   43  168 1    
    90   44   45 am   BACKBONE|DICT|INTERRES
    91   44  169 1    
    92   45   46 2    
    93   45   47 1    
    94   47   48 1    
    95   47   49 1    
    96   47  170 1    
    97   48  171 1    
    98   48  172 1    
    99   48  173 1    
   100   49   50 am   BACKBONE|DICT|INTERRES
   101   49  174 1    
   102   50   51 2    
   103   50   52 1    
   104   52   53 1    
   105   52   54 1    
   106   52  175 1    
   107   53  176 1    
   108   53  177 1    
   109   53  178 1    
   110   54   55 am   BACKBONE|DICT|INTERRES
   111   54  179 1    
   112   55   56 2    
   113   55   57 1    
   114   57   58 1    
   115   57   59 1    
   116   57  180 1    
   117   58  181 1    
   118   58  182 1    
   119   58  183 1    
   120   59   60 am   BACKBONE|DICT|INTERRES
   121   59  184 1    
   122   60   61 2    
   123   60   62 1    
   124   62   63 1    
   125   62   64 1    
   126   62  185 1    
   127   63  186 1    
   128   63  187 1    
   129   63  188 1    
   130   64   65 am   BACKBONE|DICT|INTERRES
   131   64  189 1    
   132   65   66 2    
   133   67   68 2    
   134   67   69 am   BACKBONE|DICT|INTERRES
   135   69   70 1    
   136   69  190 1    
   137   70   71 1    
   138   70   72 1    
   139   70  191 1    
   140   71  192 1    
   141   71  193 1    
   142   71  194 1    
   143   72   73 2    
   144   72   74 am   BACKBONE|DICT|INTERRES
   145   74   75 1    
   146   74  195 1    
   147   75   76 1    
   148   75   77 1    
   149   75  196 1    
   150   76  197 1    
   151   76  198 1    
   152   76  199 1    
   153   77   78 2    
   154   77   79 am   BACKBONE|DICT|INTERRES
   155   79   80 1    
   156   79  200 1    
   157   80   81 1    
   158   80   82 1    
   159   80  201 1    
   160   81  202 1    
   161   81  203 1    
   162   81  204 1    
   163   82   83 2    
   164   82   84 am   BACKBONE|DICT|INTERRES
   165   84   85 1    
   166   84  205 1    
   167   85   86 1    
   168   85   87 1    
   169   85  206 1    
   170   86  207 1    
   171   86  208 1    
   172   86  209 1    
   173   87   88 2    
   174   87   89 am   BACKBONE|DICT|INTERRES
   175   89   90 1    
   176   89  210 1    
   177   90   91 1    
   178   90   92 1    
   179   90  211 1    
   180   91  212 1    
   181   91  213 1    
   182   91  214 1    
   183   92   93 2    
   184   92   94 am   BACKBONE|DICT|INTERRES
   185   94   95 1    
   186   94  215 1    
   187   95   96 1    
   188   95   97 1    
   189   95  216 1    
   190   96  217 1    
   191   96  218 1    
   192   96  219 1    
   193   97   98 2    
   194   97   99 am   BACKBONE|DICT|INTERRES
   195   99  100 1    
   196   99  220 1    
   197  100  101 1    
   198  100  102 1    
   199  100  221 1    
   200  101  222 1    
   201  101  223 1    
   202  101  224 1    
   203  102  103 2    
   204  102  104 am   BACKBONE|DICT|INTERRES
   205  104  105 1    
   206  104  225 1    
   207  105  106 1    
   208  105  107 1    
   209  105  226 1    
   210  106  227 1    
   211  106  228 1    
   212  106  229 1    
   213  107  108 2    
   214  107  109 am   BACKBONE|DICT|INTERRES
   215  109  110 1    
   216  109  230 1    
   217  110  111 1    
   218  110  112 1    
   219  110  231 1    
   220  111  232 1    
   221  111  233 1    
   222  111  234 1    
   223  112  113 2    
   224  112  114 am   BACKBONE|DICT|INTERRES
   225  114  115 1    
   226  114  235 1    
   227  115  116 1    
   228  115  117 1    
   229  115  236 1    
   230  116  237 1    
   231  116  238 1    
   232  116  239 1    
   233  117  118 2    
   234  117  119 am   BACKBONE|DICT|INTERRES
   235  119  120 1    
   236  119  240 1    
   237  120  121 1    
   238  120  124 1    
   239  120  241 1    
   240  121  122 am   BACKBONE|DICT|INTERRES
   241  121  123 2    
   242  122  242 1    
   243  122  243 1    
   244  124  125 1    
   245  124  244 1    
   246  124  245 1    
   247  125  126 1    
   248  126  246 1    
   249  126  247 1    
@<TRIPOS>SUBSTRUCTURE
     1 UNK         1 GROUP             0       ****    0 ROOT    
