@<TRIPOS>MOLECULE
3R540
247   249    1
SMALL
USER_CHARGES


@<TRIPOS>ATOM
      1 CA         -1.3494  -15.5887  -42.0933 C.3       0 UNK        -0.1800 
      2 C          -1.9058  -14.4249  -42.8972 C.2       0 UNK         0.5000 
      3 O          -1.8261  -13.2806  -42.4526 O.2       0 UNK        -0.5000 
      4 N          -2.4737  -14.7216  -44.0733 N.am      1 UNK        -0.5000 
      5 CA         -3.1510  -13.7697  -44.9631 C.3       1 UNK         0.1400 
      6 C6         -3.9160  -14.4759  -46.1144 C.3       23 UNK        -0.0398 
      7 S7         -3.0075  -15.8266  -46.9537 S.3       23 UNK        -0.2404 
      8 C8         -2.2548  -14.9707  -48.3736 C.3       23 UNK        -0.0205 
      9 C9         -2.0191  -15.9229  -49.5354 C.ar      23 UNK        -0.0193 
     10 C10        -2.8004  -15.8299  -50.6904 C.ar      23 UNK        -0.1150 
     11 C11        -2.5961  -16.6927  -51.7720 C.ar      23 UNK        -0.0193 
     12 C12        -1.5920  -17.6671  -51.6757 C.ar      23 UNK        -0.1150 
     13 C13        -0.8019  -17.7701  -50.5268 C.ar      23 UNK        -0.0193 
     14 C14        -1.0138  -16.8900  -49.4631 C.ar      23 UNK        -0.1150 
     15 C15         0.2870  -18.8279  -50.4468 C.3       23 UNK        -0.0205 
     16 S16        -0.3706  -20.4277  -49.8842 S.3       23 UNK        -0.2404 
     17 C17        -0.3498  -20.2151  -48.0777 C.3       23 UNK        -0.0398 
     18 CA         -0.9798  -21.4283  -47.3500 C.3       11 UNK         0.1400 
     19 N          -0.3848  -21.6465  -46.0300 N.am      11 UNK        -0.5000 
     20 C          -0.5465  -22.7515  -45.2888 C.2       10 UNK         0.5000 
     21 O          -1.1729  -23.7414  -45.6640 O.2       10 UNK        -0.5000 
     22 CA          0.0553  -22.7224  -43.8717 C.3       10 UNK         0.1400 
     23 CB          1.5245  -23.1683  -43.8962 C.3       10 UNK        -0.1800 
     24 N          -0.0443  -21.3951  -43.2616 N.am      10 UNK        -0.5000 
     25 C          -1.2013  -20.8391  -42.8686 C.2       9 UNK         0.5000 
     26 O          -2.2847  -21.4189  -42.9200 O.2       9 UNK        -0.5000 
     27 CA         -1.1559  -19.3720  -42.3992 C.3       9 UNK         0.1400 
     28 CB         -0.8933  -19.2930  -40.8884 C.3       9 UNK        -0.1800 
     29 N          -0.1474  -18.5806  -43.1037 N.am      9 UNK        -0.5000 
     30 C          -0.1211  -18.3644  -44.4260 C.2       8 UNK         0.5000 
     31 O          -1.0223  -18.7161  -45.1853 O.2       8 UNK        -0.5000 
     32 CA          1.1380  -17.6949  -45.0104 C.3       8 UNK         0.1400 
     33 CB          0.8106  -16.2846  -45.5130 C.3       8 UNK        -0.1800 
     34 N           2.2810  -17.6439  -44.0880 N.am      8 UNK        -0.5000 
     35 C           2.9344  -18.7245  -43.6284 C.2       7 UNK         0.5000 
     36 O           2.5993  -19.8773  -43.9093 O.2       7 UNK        -0.5000 
     37 CA          4.1073  -18.4828  -42.6551 C.3       7 UNK         0.1400 
     38 CB          5.1003  -19.6627  -42.6044 C.3       7 UNK        -0.1800 
     39 N           4.8024  -17.2124  -42.8790 N.am      7 UNK        -0.5000 
     40 C           5.5078  -16.8398  -43.9593 C.2       6 UNK         0.5000 
     41 O           5.6974  -17.5660  -44.9356 O.2       6 UNK        -0.5000 
     42 CA          6.0895  -15.4099  -43.9636 C.3       6 UNK         0.1400 
     43 CB          5.6372  -14.6383  -45.2156 C.3       6 UNK        -0.1800 
     44 N           5.6882  -14.6498  -42.7780 N.am      6 UNK        -0.5000 
     45 C           6.4216  -14.4962  -41.6671 C.2       5 UNK         0.5000 
     46 O           7.5668  -14.9299  -41.5391 O.2       5 UNK        -0.5000 
     47 CA          5.7611  -13.7468  -40.4900 C.3       5 UNK         0.1400 
     48 CB          6.2209  -12.2811  -40.4641 C.3       5 UNK        -0.1800 
     49 N           4.2957  -13.7811  -40.5169 N.am      5 UNK        -0.5000 
     50 C           3.5456  -14.8789  -40.3437 C.2       4 UNK         0.5000 
     51 O           4.0102  -15.9943  -40.1101 O.2       4 UNK        -0.5000 
     52 CA          2.0262  -14.7160  -40.5491 C.3       4 UNK         0.1400 
     53 CB          1.3390  -14.3186  -39.2350 C.3       4 UNK        -0.1800 
     54 N           1.6776  -13.7449  -41.5939 N.am      4 UNK        -0.5000 
     55 C           2.0563  -13.8398  -42.8745 C.2       3 UNK         0.5000 
     56 O           2.7399  -14.7721  -43.3100 O.2       3 UNK        -0.5000 
     57 CA          1.6232  -12.7038  -43.8140 C.3       3 UNK         0.1400 
     58 CB          2.3151  -11.3817  -43.4407 C.3       3 UNK        -0.1800 
     59 N           2.0002  -13.0709  -45.1773 N.am      3 UNK        -0.5000 
     60 C           1.3724  -12.8161  -46.3305 C.2       2 UNK         0.5000 
     61 O           1.8144  -13.2406  -47.3970 O.2       2 UNK        -0.5000 
     62 CA          0.0346  -12.0560  -46.3181 C.3       2 UNK         0.1400 
     63 CB         -0.3282  -11.4905  -47.7100 C.3       2 UNK        -0.1800 
     64 N          -0.9969  -12.9765  -45.8431 N.am      2 UNK        -0.5000 
     65 C          -2.2402  -12.6377  -45.4852 C.2       1 UNK         0.5000 
     66 O          -2.6765  -11.4866  -45.5302 O.2       1 UNK        -0.5000 
     67 C          -2.5125  -21.3027  -47.2499 C.2       11 UNK         0.5000 
     68 O          -3.2296  -21.9419  -48.0192 O.2       11 UNK        -0.5000 
     69 N          -2.9835  -20.5284  -46.2618 N.am      12 UNK        -0.5000 
     70 CA         -4.3977  -20.3645  -45.9298 C.3       12 UNK         0.1400 
     71 CB         -4.5504  -19.2801  -44.8532 C.3       12 UNK        -0.1800 
     72 C          -5.0608  -21.6842  -45.4904 C.2       12 UNK         0.5000 
     73 O          -6.1678  -21.9788  -45.9399 O.2       12 UNK        -0.5000 
     74 N          -4.3571  -22.4829  -44.6735 N.am      13 UNK        -0.5000 
     75 CA         -4.7783  -23.8217  -44.2472 C.3       13 UNK         0.1400 
     76 CB         -3.8293  -24.3378  -43.1555 C.3       13 UNK        -0.1800 
     77 C          -4.8679  -24.8309  -45.4095 C.2       13 UNK         0.5000 
     78 O          -5.7574  -25.6822  -45.4064 O.2       13 UNK        -0.5000 
     79 N          -3.9764  -24.6926  -46.4004 N.am      14 UNK        -0.5000 
     80 CA         -3.9865  -25.4472  -47.6571 C.3       14 UNK         0.1400 
     81 CB         -2.5751  -25.4123  -48.2669 C.3       14 UNK        -0.1800 
     82 C          -5.0340  -24.9367  -48.6720 C.2       14 UNK         0.5000 
     83 O          -5.1885  -25.5461  -49.7302 O.2       14 UNK        -0.5000 
     84 N          -5.7238  -23.8344  -48.3428 N.am      15 UNK        -0.5000 
     85 CA         -6.7280  -23.1298  -49.1422 C.3       15 UNK         0.1400 
     86 CB         -7.9743  -24.0069  -49.3850 C.3       15 UNK        -0.1800 
     87 C          -6.1563  -22.4642  -50.4125 C.2       15 UNK         0.5000 
     88 O          -6.8853  -22.2826  -51.3894 O.2       15 UNK        -0.5000 
     89 N          -4.8779  -22.0599  -50.3407 N.am      16 UNK        -0.5000 
     90 CA         -4.1430  -21.1748  -51.2474 C.3       16 UNK         0.1400 
     91 CB         -4.5465  -19.7172  -50.9514 C.3       16 UNK        -0.1800 
     92 C          -4.2607  -21.5486  -52.7389 C.2       16 UNK         0.5000 
     93 O          -3.5203  -22.4106  -53.2160 O.2       16 UNK        -0.5000 
     94 N          -5.1976  -20.9078  -53.4501 N.am      17 UNK        -0.5000 
     95 CA         -5.5042  -21.1420  -54.8607 C.3       17 UNK         0.1400 
     96 CB         -6.5464  -20.1153  -55.3262 C.3       17 UNK        -0.1800 
     97 C          -5.9825  -22.5758  -55.1602 C.2       17 UNK         0.5000 
     98 O          -5.7367  -23.0687  -56.2606 O.2       17 UNK        -0.5000 
     99 N          -6.5986  -23.2459  -54.1745 N.am      18 UNK        -0.5000 
    100 CA        -6.9981  -24.6543  -54.2591 C.3       18 UNK         0.1400 
    101 CB        -7.9263  -24.9898  -53.0855 C.3       18 UNK        -0.1800 
    102 C         -5.7958  -25.6203  -54.2815 C.2       18 UNK         0.5000 
    103 O         -5.9036  -26.7069  -54.8501 O.2       18 UNK        -0.5000 
    104 N         -4.6677  -25.1950  -53.6963 N.am      19 UNK        -0.5000 
    105 CA        -3.3784  -25.8869  -53.7420 C.3       19 UNK         0.1400 
    106 CB        -2.6590  -25.6748  -52.3987 C.3       19 UNK        -0.1800 
    107 C         -2.5053  -25.4048  -54.9203 C.2       19 UNK         0.5000 
    108 O         -1.3672  -25.8575  -55.0485 O.2       19 UNK        -0.5000 
    109 N         -3.0407  -24.4893  -55.7447 N.am      20 UNK        -0.5000 
    110 CA        -2.4077  -23.8173  -56.8833 C.3       20 UNK         0.1400 
    111 CB        -2.0585  -24.8260  -57.9973 C.3       20 UNK        -0.1800 
    112 C         -1.2147  -22.9233  -56.4831 C.2       20 UNK         0.5000 
    113 O         -0.3270  -22.6856  -57.3037 O.2       20 UNK        -0.5000 
    114 N         -1.2166  -22.4209  -55.2393 N.am      21 UNK        -0.5000 
    115 CA        -0.1388  -21.5996  -54.6811 C.3       21 UNK         0.1400 
    116 CB        -0.2449  -21.6212  -53.1520 C.3       21 UNK        -0.1800 
    117 C         -0.1349  -20.1476  -55.1994 C.2       21 UNK         0.5000 
    118 O          0.8885  -19.4705  -55.0950 O.2       21 UNK        -0.5000 
    119 N         -1.2695  -19.6980  -55.7431 N.am      22 UNK        -0.5000 
    120 CA        -1.4877  -18.3496  -56.2876 C.3       22 UNK         0.1400 
    121 C         -2.4030  -18.3418  -57.5473 C.2       22 UNK         0.5000 
    122 N         -2.5901  -19.4654  -58.2311 N.am      22 UNK        -0.7600 
    123 O         -2.9354  -17.3040  -57.9314 O.2       22 UNK        -0.5000 
    124 C124       -1.9096  -17.3343  -55.1907 C.3       23 UNK        -0.0398 
    125 S125       -3.4065  -17.8333  -54.2700 S.3       23 UNK        -0.2404 
    126 C126       -3.4957  -16.5226  -53.0010 C.3       23 UNK        -0.0205 
    127 H127       -1.9402  -16.4891  -42.2568 H         1 UNK         0.0600 
    128 H128       -1.3720  -15.3636  -41.0272 H         1 UNK         0.0600 
    129 H129       -0.3187  -15.7900  -42.3793 H         1 UNK         0.0600 
    130 H130       -2.4974  -15.6819  -44.3873 H         1 UNK         0.3000 
    131 H131       -3.9057  -13.2733  -44.3488 H         1 UNK         0.0600 
    132 H132       -4.8152  -14.9310  -45.6969 H         1 UNK         0.0800 
    133 H133       -4.2851  -13.7569  -46.8480 H         1 UNK         0.0800 
    134 H134       -1.3004  -14.5402  -48.0721 H         1 UNK         0.0800 
    135 H135       -2.8854  -14.1386  -48.6893 H         1 UNK         0.0800 
    136 H136       -3.5762  -15.0792  -50.7491 H         1 UNK         0.1150 
    137 H137       -1.4166  -18.3611  -52.4838 H         1 UNK         0.1150 
    138 H138       -0.4044  -16.9622  -48.5737 H         1 UNK         0.1150 
    139 H139        0.7355  -18.9600  -51.4326 H         1 UNK         0.0800 
    140 H140        1.0948  -18.5032  -49.7893 H         1 UNK         0.0800 
    141 H141       -0.8414  -19.2788  -47.8082 H         1 UNK         0.0800 
    142 H142        0.6953  -20.1024  -47.7861 H         1 UNK         0.0800 
    143 H143       -0.7660  -22.3283  -47.9315 H         1 UNK         0.0600 
    144 H144        0.1052  -20.8658  -45.6203 H         1 UNK         0.3000 
    145 H145       -0.5038  -23.4280  -43.2538 H         1 UNK         0.0600 
    146 H146        1.6181  -24.1766  -44.3016 H         1 UNK         0.0600 
    147 H147        1.9503  -23.1800  -42.8928 H         1 UNK         0.0600 
    148 H148        2.1371  -22.5093  -44.5125 H         1 UNK         0.0600 
    149 H149        0.8077  -20.8469  -43.2285 H         1 UNK         0.3000 
    150 H150       -2.1326  -18.9294  -42.6026 H         1 UNK         0.0600 
    151 H151        0.0830  -19.7033  -40.6271 H         1 UNK         0.0600 
    152 H152       -1.6452  -19.8548  -40.3325 H         1 UNK         0.0600 
    153 H153       -0.9309  -18.2632  -40.5330 H         1 UNK         0.0600 
    154 H154        0.6404  -18.2645  -42.5596 H         1 UNK         0.3000 
    155 H155        1.4402  -18.2927  -45.8726 H         1 UNK         0.0600 
    156 H156        1.6776  -15.8358  -45.9970 H         1 UNK         0.0600 
    157 H157        0.4951  -15.6320  -44.7008 H         1 UNK         0.0600 
    158 H158        0.0055  -16.3068  -46.2478 H         1 UNK         0.0600 
    159 H159        2.5991  -16.7208  -43.8086 H         1 UNK         0.3000 
    160 H160        3.6548  -18.4006  -41.6661 H         1 UNK         0.0600 
    161 H161        5.5400  -19.8668  -43.5809 H         1 UNK         0.0600 
    162 H162        4.6051  -20.5766  -42.2742 H         1 UNK         0.0600 
    163 H163        5.9121  -19.4649  -41.9044 H         1 UNK         0.0600 
    164 H164        4.7077  -16.5403  -42.1282 H         1 UNK         0.3000 
    165 H165        7.1769  -15.5014  -43.9980 H         1 UNK         0.0600 
    166 H166        6.0129  -13.6151  -45.2076 H         1 UNK         0.0600 
    167 H167        6.0120  -15.1128  -46.1232 H         1 UNK         0.0600 
    168 H168        4.5513  -14.5983  -45.2954 H         1 UNK         0.0600 
    169 H169        4.7352  -14.3095  -42.7832 H         1 UNK         0.3000 
    170 H170        6.0937  -14.2275  -39.5676 H         1 UNK         0.0600 
    171 H171        5.8250  -11.7582  -39.5932 H         1 UNK         0.0600 
    172 H172        5.8983  -11.7424  -41.3560 H         1 UNK         0.0600 
    173 H173        7.3086  -12.2131  -40.4149 H         1 UNK         0.0600 
    174 H174        3.8271  -12.9084  -40.7105 H         1 UNK         0.3000 
    175 H175        1.6356  -15.6883  -40.8561 H         1 UNK         0.0600 
    176 H176        1.5581  -15.0393  -38.4460 H         1 UNK         0.0600 
    177 H177        1.6703  -13.3394  -38.8872 H         1 UNK         0.0600 
    178 H178        0.2556  -14.2848  -39.3504 H         1 UNK         0.0600 
    179 H179        1.1082  -12.9617  -41.3057 H         1 UNK         0.3000 
    180 H180        0.5440  -12.5933  -43.7157 H         1 UNK         0.0600 
    181 H181        3.4017  -11.4754  -43.4689 H         1 UNK         0.0600 
    182 H182        2.0382  -11.0570  -42.4371 H         1 UNK         0.0600 
    183 H183        2.0347  -10.5804  -44.1242 H         1 UNK         0.0600 
    184 H184        2.8132  -13.6702  -45.2046 H         1 UNK         0.3000 
    185 H185        0.1193  -11.2177  -45.6247 H         1 UNK         0.0600 
    186 H186       -1.2231  -10.8701  -47.6736 H         1 UNK         0.0600 
    187 H187        0.4765  -10.8631  -48.0952 H         1 UNK         0.0600 
    188 H188       -0.5024  -12.2827  -48.4384 H         1 UNK         0.0600 
    189 H189       -0.7175  -13.9434  -45.7611 H         1 UNK         0.3000 
    190 H190       -2.3197  -19.9898  -45.7117 H         1 UNK         0.3000 
    191 H191       -4.9075  -20.0203  -46.8322 H         1 UNK         0.0600 
    192 H192       -4.1037  -18.3388  -45.1749 H         1 UNK         0.0600 
    193 H193       -5.6028  -19.0868  -44.6425 H         1 UNK         0.0600 
    194 H194       -4.0773  -19.5726  -43.9163 H         1 UNK         0.0600 
    195 H195       -3.4820  -22.1402  -44.2881 H         1 UNK         0.3000 
    196 H196       -5.7761  -23.7320  -43.8127 H         1 UNK         0.0600 
    197 H197       -4.1372  -25.3232  -42.8036 H         1 UNK         0.0600 
    198 H198       -3.8223  -23.6726  -42.2920 H         1 UNK         0.0600 
    199 H199       -2.8060  -24.4246  -43.5206 H         1 UNK         0.0600 
    200 H200       -3.2421  -24.0015  -46.2996 H         1 UNK         0.3000 
    201 H201       -4.2320  -26.4876  -47.4356 H         1 UNK         0.0600 
    202 H202       -2.5200  -26.0284  -49.1648 H         1 UNK         0.0600 
    203 H203       -1.8331  -25.7958  -47.5664 H         1 UNK         0.0600 
    204 H204       -2.2802  -24.4007  -48.5457 H         1 UNK         0.0600 
    205 H205       -5.5131  -23.4005  -47.4527 H         1 UNK         0.3000 
    206 H206       -7.0558  -22.2938  -48.5234 H         1 UNK         0.0600 
    207 H207       -8.4348  -24.2915  -48.4390 H         1 UNK         0.0600 
    208 H208       -8.7313  -23.4744  -49.9617 H         1 UNK         0.0600 
    209 H209       -7.7368  -24.9243  -49.9203 H         1 UNK         0.0600 
    210 H210       -4.3753  -22.2694  -49.4810 H         1 UNK         0.3000 
    211 H211       -3.0877  -21.2812  -50.9937 H         1 UNK         0.0600 
    212 H212       -5.6239  -19.5629  -51.0151 H         1 UNK         0.0600 
    213 H213       -4.0737  -19.0334  -51.6516 H         1 UNK         0.0600 
    214 H214       -4.2273  -19.4220  -49.9513 H         1 UNK         0.0600 
    215 H215       -5.7822  -20.2404  -52.9690 H         1 UNK         0.3000 
    216 H216       -4.5862  -20.9775  -55.4285 H         1 UNK         0.0600 
    217 H217       -6.7777  -20.2456  -56.3842 H         1 UNK         0.0600 
    218 H218       -6.1807  -19.0962  -55.1987 H         1 UNK         0.0600 
    219 H219       -7.4800  -20.2104  -54.7704 H         1 UNK         0.0600 
    220 H220       -6.7432  -22.7840  -53.2798 H         1 UNK         0.3000 
    221 H221       -7.5567  -24.7932  -55.1871 H         1 UNK         0.0600 
    222 H222       -7.3899  -24.9354  -52.1396 H         1 UNK         0.0600 
    223 H223       -8.7731  -24.3051  -53.0354 H         1 UNK         0.0600 
    224 H224       -8.3250  -26.0007  -53.1784 H         1 UNK         0.0600 
    225 H225       -4.6519  -24.2721  -53.2797 H         1 UNK         0.3000 
    226 H226       -3.5378  -26.9589  -53.8734 H         1 UNK         0.0600 
    227 H227       -1.7101  -26.2114  -52.3705 H         1 UNK         0.0600 
    228 H228       -2.4455  -24.6222  -52.2119 H         1 UNK         0.0600 
    229 H229       -3.2623  -26.0458  -51.5710 H         1 UNK         0.0600 
    230 H230       -3.9914  -24.1973  -55.5588 H         1 UNK         0.3000 
    231 H231       -3.1612  -23.1395  -57.2862 H         1 UNK         0.0600 
    232 H232       -1.2482  -25.4932  -57.7026 H         1 UNK         0.0600 
    233 H233       -1.7425  -24.3121  -58.9059 H         1 UNK         0.0600 
    234 H234       -2.9211  -25.4393  -58.2578 H         1 UNK         0.0600 
    235 H235       -1.9873  -22.6400  -54.6163 H         1 UNK         0.3000 
    236 H236        0.8157  -22.0517  -54.9590 H         1 UNK         0.0600 
    237 H237       -1.1362  -21.0982  -52.8044 H         1 UNK         0.0600 
    238 H238       -0.2811  -22.6405  -52.7669 H         1 UNK         0.0600 
    239 H239        0.6194  -21.1341  -52.7001 H         1 UNK         0.0600 
    240 H240       -2.0706  -20.3105  -55.7606 H         1 UNK         0.3000 
    241 H241       -0.5320  -17.9984  -56.6806 H         1 UNK         0.0600 
    242 H242       -3.1765  -19.4462  -59.0511 H         1 UNK         0.3800 
    243 H243       -2.0797  -20.3024  -58.0026 H         1 UNK         0.3800 
    244 H244       -2.0726  -16.3449  -55.6208 H         1 UNK         0.0800 
    245 H245       -1.0885  -17.2103  -54.4847 H         1 UNK         0.0800 
    246 H246       -4.5314  -16.4744  -52.6614 H         1 UNK         0.0800 
    247 H247       -3.2833  -15.5594  -53.4670 H         1 UNK         0.0800 
@<TRIPOS>BOND
     1    1    2 1    
     2    1  127 1    
     3    1  128 1    
     4    1  129 1    
     5    2    3 2    
     6    2    4 am   BACKBONE|DICT|INTERRES
     7    4    5 1    
     8    4  130 1    
     9    5    6 1    
    10    5   65 1    
    11    5  131 1    
    12    6    7 1    
    13    6  132 1    
    14    6  133 1    
    15    7    8 1    
    16    8    9 1    
    17    8  134 1    
    18    8  135 1    
    19    9   10 ar   
    20    9   14 ar   
    21   10   11 ar   
    22   10  136 1    
    23   11   12 ar   
    24   11  126 1    
    25   12   13 ar   
    26   12  137 1    
    27   13   14 ar   
    28   13   15 1    
    29   14  138 1    
    30   15   16 1    
    31   15  139 1    
    32   15  140 1    
    33   16   17 1    
    34   17   18 1    
    35   17  141 1    
    36   17  142 1    
    37   18   19 1    
    38   18   67 1    
    39   18  143 1    
    40   19   20 am   BACKBONE|DICT|INTERRES
    41   19  144 1    
    42   20   21 2    
    43   20   22 1    
    44   22   23 1    
    45   22   24 1    
    46   22  145 1    
    47   23  146 1    
    48   23  147 1    
    49   23  148 1    
    50   24   25 am   BACKBONE|DICT|INTERRES
    51   24  149 1    
    52   25   26 2    
    53   25   27 1    
    54   27   28 1    
    55   27   29 1    
    56   27  150 1    
    57   28  151 1    
    58   28  152 1    
    59   28  153 1    
    60   29   30 am   BACKBONE|DICT|INTERRES
    61   29  154 1    
    62   30   31 2    
    63   30   32 1    
    64   32   33 1    
    65   32   34 1    
    66   32  155 1    
    67   33  156 1    
    68   33  157 1    
    69   33  158 1    
    70   34   35 am   BACKBONE|DICT|INTERRES
    71   34  159 1    
    72   35   36 2    
    73   35   37 1    
    74   37   38 1    
    75   37   39 1    
    76   37  160 1    
    77   38  161 1    
    78   38  162 1    
    79   38  163 1    
    80   39   40 am   BACKBONE|DICT|INTERRES
    81   39  164 1    
    82   40   41 2    
    83   40   42 1    
    84   42   43 1    
    85   42   44 1    
    86   42  165 1    
    87   43  166 1    
    88   43  167 1    
    89   43  168 1    
    90   44   45 am   BACKBONE|DICT|INTERRES
    91   44  169 1    
    92   45   46 2    
    93   45   47 1    
    94   47   48 1    
    95   47   49 1    
    96   47  170 1    
    97   48  171 1    
    98   48  172 1    
    99   48  173 1    
   100   49   50 am   BACKBONE|DICT|INTERRES
   101   49  174 1    
   102   50   51 2    
   103   50   52 1    
   104   52   53 1    
   105   52   54 1    
   106   52  175 1    
   107   53  176 1    
   108   53  177 1    
   109   53  178 1    
   110   54   55 am   BACKBONE|DICT|INTERRES
   111   54  179 1    
   112   55   56 2    
   113   55   57 1    
   114   57   58 1    
   115   57   59 1    
   116   57  180 1    
   117   58  181 1    
   118   58  182 1    
   119   58  183 1    
   120   59   60 am   BACKBONE|DICT|INTERRES
   121   59  184 1    
   122   60   61 2    
   123   60   62 1    
   124   62   63 1    
   125   62   64 1    
   126   62  185 1    
   127   63  186 1    
   128   63  187 1    
   129   63  188 1    
   130   64   65 am   BACKBONE|DICT|INTERRES
   131   64  189 1    
   132   65   66 2    
   133   67   68 2    
   134   67   69 am   BACKBONE|DICT|INTERRES
   135   69   70 1    
   136   69  190 1    
   137   70   71 1    
   138   70   72 1    
   139   70  191 1    
   140   71  192 1    
   141   71  193 1    
   142   71  194 1    
   143   72   73 2    
   144   72   74 am   BACKBONE|DICT|INTERRES
   145   74   75 1    
   146   74  195 1    
   147   75   76 1    
   148   75   77 1    
   149   75  196 1    
   150   76  197 1    
   151   76  198 1    
   152   76  199 1    
   153   77   78 2    
   154   77   79 am   BACKBONE|DICT|INTERRES
   155   79   80 1    
   156   79  200 1    
   157   80   81 1    
   158   80   82 1    
   159   80  201 1    
   160   81  202 1    
   161   81  203 1    
   162   81  204 1    
   163   82   83 2    
   164   82   84 am   BACKBONE|DICT|INTERRES
   165   84   85 1    
   166   84  205 1    
   167   85   86 1    
   168   85   87 1    
   169   85  206 1    
   170   86  207 1    
   171   86  208 1    
   172   86  209 1    
   173   87   88 2    
   174   87   89 am   BACKBONE|DICT|INTERRES
   175   89   90 1    
   176   89  210 1    
   177   90   91 1    
   178   90   92 1    
   179   90  211 1    
   180   91  212 1    
   181   91  213 1    
   182   91  214 1    
   183   92   93 2    
   184   92   94 am   BACKBONE|DICT|INTERRES
   185   94   95 1    
   186   94  215 1    
   187   95   96 1    
   188   95   97 1    
   189   95  216 1    
   190   96  217 1    
   191   96  218 1    
   192   96  219 1    
   193   97   98 2    
   194   97   99 am   BACKBONE|DICT|INTERRES
   195   99  100 1    
   196   99  220 1    
   197  100  101 1    
   198  100  102 1    
   199  100  221 1    
   200  101  222 1    
   201  101  223 1    
   202  101  224 1    
   203  102  103 2    
   204  102  104 am   BACKBONE|DICT|INTERRES
   205  104  105 1    
   206  104  225 1    
   207  105  106 1    
   208  105  107 1    
   209  105  226 1    
   210  106  227 1    
   211  106  228 1    
   212  106  229 1    
   213  107  108 2    
   214  107  109 am   BACKBONE|DICT|INTERRES
   215  109  110 1    
   216  109  230 1    
   217  110  111 1    
   218  110  112 1    
   219  110  231 1    
   220  111  232 1    
   221  111  233 1    
   222  111  234 1    
   223  112  113 2    
   224  112  114 am   BACKBONE|DICT|INTERRES
   225  114  115 1    
   226  114  235 1    
   227  115  116 1    
   228  115  117 1    
   229  115  236 1    
   230  116  237 1    
   231  116  238 1    
   232  116  239 1    
   233  117  118 2    
   234  117  119 am   BACKBONE|DICT|INTERRES
   235  119  120 1    
   236  119  240 1    
   237  120  121 1    
   238  120  124 1    
   239  120  241 1    
   240  121  122 am   BACKBONE|DICT|INTERRES
   241  121  123 2    
   242  122  242 1    
   243  122  243 1    
   244  124  125 1    
   245  124  244 1    
   246  124  245 1    
   247  125  126 1    
   248  126  246 1    
   249  126  247 1    
@<TRIPOS>SUBSTRUCTURE
     1 UNK         1 GROUP             0       ****    0 ROOT    
