@<TRIPOS>MOLECULE
3R540
247   249    1
SMALL
USER_CHARGES


@<TRIPOS>ATOM
      1 CA          2.5474  -15.2870  -52.5168 C.3       0 UNK        -0.1800 
      2 C           1.8667  -15.1699  -51.1608 C.2       0 UNK         0.5000 
      3 O           2.2584  -15.8578  -50.2179 O.2       0 UNK        -0.5000 
      4 N           0.8703  -14.2788  -51.0517 N.am      1 UNK        -0.5000 
      5 CA          0.0410  -14.0449  -49.8580 C.3       1 UNK         0.1400 
      6 C6         -1.0846  -13.0166  -50.1271 C.3       23 UNK        -0.0398 
      7 S7         -2.2781  -13.5723  -51.3943 S.3       23 UNK        -0.2404 
      8 C8         -3.8690  -13.4358  -50.5073 C.3       23 UNK        -0.0205 
      9 C9         -4.3052  -14.7413  -49.8511 C.ar      23 UNK        -0.0193 
     10 C10        -5.5381  -15.3114  -50.1874 C.ar      23 UNK        -0.1150 
     11 C11        -5.9636  -16.4990  -49.5853 C.ar      23 UNK        -0.0193 
     12 C12        -5.1377  -17.1268  -48.6490 C.ar      23 UNK        -0.1150 
     13 C13        -3.9002  -16.5747  -48.3078 C.ar      23 UNK        -0.0193 
     14 C14        -3.5018  -15.3696  -48.8935 C.ar      23 UNK        -0.1150 
     15 C15        -3.0076  -17.2737  -47.2937 C.3       23 UNK        -0.0205 
     16 S16        -1.3845  -17.7284  -47.9910 S.3       23 UNK        -0.2404 
     17 C17        -0.7206  -18.7227  -46.6109 C.3       23 UNK        -0.0398 
     18 CA         -0.5284  -20.2433  -46.8576 C.3       11 UNK         0.1400 
     19 N          -0.2762  -20.9201  -45.5850 N.am      11 UNK        -0.5000 
     20 C           0.0463  -22.2100  -45.4395 C.2       10 UNK         0.5000 
     21 O           0.2429  -22.9799  -46.3764 O.2       10 UNK        -0.5000 
     22 CA          0.0876  -22.7424  -43.9990 C.3       10 UNK         0.1400 
     23 CB          1.4167  -22.3853  -43.3187 C.3       10 UNK        -0.1800 
     24 N          -1.0431  -22.2496  -43.2100 N.am      10 UNK        -0.5000 
     25 C          -2.3177  -22.5986  -43.4426 C.2       9 UNK         0.5000 
     26 O          -2.6543  -23.3971  -44.3160 O.2       9 UNK        -0.5000 
     27 CA         -3.4000  -21.9128  -42.5905 C.3       9 UNK         0.1400 
     28 CB         -3.5685  -22.6366  -41.2467 C.3       9 UNK        -0.1800 
     29 N          -3.1161  -20.4982  -42.3496 N.am      9 UNK        -0.5000 
     30 C          -3.0973  -19.5527  -43.3001 C.2       8 UNK         0.5000 
     31 O          -3.3496  -19.7653  -44.4849 O.2       8 UNK        -0.5000 
     32 CA         -2.6575  -18.1449  -42.8603 C.3       8 UNK         0.1400 
     33 CB         -3.8496  -17.3420  -42.3221 C.3       8 UNK        -0.1800 
     34 N          -1.5921  -18.1786  -41.8546 N.am      8 UNK        -0.5000 
     35 C          -0.3673  -18.6745  -42.0706 C.2       7 UNK         0.5000 
     36 O           0.0018  -19.1353  -43.1540 O.2       7 UNK        -0.5000 
     37 CA          0.5805  -18.7088  -40.8684 C.3       7 UNK         0.1400 
     38 CB          0.6151  -20.1232  -40.2563 C.3       7 UNK        -0.1800 
     39 N           1.9039  -18.2749  -41.3028 N.am      7 UNK        -0.5000 
     40 C           2.9376  -18.0029  -40.4959 C.2       6 UNK         0.5000 
     41 O           2.9352  -18.1911  -39.2788 O.2       6 UNK        -0.5000 
     42 CA          4.1554  -17.3360  -41.1545 C.3       6 UNK         0.1400 
     43 CB          4.8589  -18.2776  -42.1465 C.3       6 UNK        -0.1800 
     44 N           3.7333  -16.1072  -41.8261 N.am      6 UNK        -0.5000 
     45 C           3.5002  -14.9501  -41.1853 C.2       5 UNK         0.5000 
     46 O           3.7724  -14.7622  -39.9988 O.2       5 UNK        -0.5000 
     47 CA          2.8365  -13.8110  -41.9851 C.3       5 UNK         0.1400 
     48 CB          3.8981  -12.8344  -42.5122 C.3       5 UNK        -0.1800 
     49 N           2.0226  -14.2940  -43.1009 N.am      5 UNK        -0.5000 
     50 C           0.8648  -14.9609  -42.9657 C.2       4 UNK         0.5000 
     51 O           0.3139  -15.1555  -41.8822 O.2       4 UNK        -0.5000 
     52 CA          0.2259  -15.5401  -44.2449 C.3       4 UNK         0.1400 
     53 CB         -0.9368  -14.6531  -44.7104 C.3       4 UNK        -0.1800 
     54 N           1.1717  -15.7267  -45.3471 N.am      4 UNK        -0.5000 
     55 C           2.2420  -16.5375  -45.3077 C.2       3 UNK         0.5000 
     56 O           2.5070  -17.2528  -44.3412 O.2       3 UNK        -0.5000 
     57 CA          3.2054  -16.5141  -46.5134 C.3       3 UNK         0.1400 
     58 CB          2.9244  -17.7068  -47.4380 C.3       3 UNK        -0.1800 
     59 N           3.1476  -15.2773  -47.2980 N.am      3 UNK        -0.5000 
     60 C           3.3833  -14.0440  -46.8210 C.2       2 UNK         0.5000 
     61 O           3.7757  -13.8260  -45.6748 O.2       2 UNK        -0.5000 
     62 CA          3.0628  -12.8488  -47.7441 C.3       2 UNK         0.1400 
     63 CB          4.3471  -12.3166  -48.3967 C.3       2 UNK        -0.1800 
     64 N           2.0854  -13.1483  -48.7945 N.am      2 UNK        -0.5000 
     65 C           0.8439  -13.6225  -48.6067 C.2       1 UNK         0.5000 
     66 O           0.3414  -13.7740  -47.4939 O.2       1 UNK        -0.5000 
     67 C          -1.6829  -20.9185  -47.6392 C.2       11 UNK         0.5000 
     68 O          -1.5015  -21.2815  -48.8040 O.2       11 UNK        -0.5000 
     69 N          -2.8319  -21.0922  -46.9722 N.am      12 UNK        -0.5000 
     70 CA         -4.0627  -21.6148  -47.5587 C.3       12 UNK         0.1400 
     71 CB         -5.2439  -21.2952  -46.6300 C.3       12 UNK        -0.1800 
     72 C          -4.0278  -23.1155  -47.8923 C.2       12 UNK         0.5000 
     73 O          -4.4538  -23.4878  -48.9859 O.2       12 UNK        -0.5000 
     74 N          -3.5803  -23.9511  -46.9457 N.am      13 UNK        -0.5000 
     75 CA         -3.7241  -25.4052  -47.0308 C.3       13 UNK         0.1400 
     76 CB         -4.2789  -25.9448  -45.7018 C.3       13 UNK        -0.1800 
     77 C          -2.4138  -26.1164  -47.3921 C.2       13 UNK         0.5000 
     78 O          -2.4298  -26.9835  -48.2667 O.2       13 UNK        -0.5000 
     79 N          -1.3166  -25.7832  -46.6969 N.am      14 UNK        -0.5000 
     80 CA         -0.0425  -26.4968  -46.8286 C.3       14 UNK         0.1400 
     81 CB          0.8339  -26.2689  -45.5862 C.3       14 UNK        -0.1800 
     82 C           0.7017  -26.1217  -48.1199 C.2       14 UNK         0.5000 
     83 O           1.0923  -27.0104  -48.8783 O.2       14 UNK        -0.5000 
     84 N           0.8722  -24.8143  -48.3489 N.am      15 UNK        -0.5000 
     85 CA          1.4688  -24.2588  -49.5585 C.3       15 UNK         0.1400 
     86 CB          1.9657  -22.8300  -49.2849 C.3       15 UNK        -0.1800 
     87 C           0.4668  -24.2859  -50.7209 C.2       15 UNK         0.5000 
     88 O           0.7863  -24.8210  -51.7829 O.2       15 UNK        -0.5000 
     89 N          -0.7195  -23.6986  -50.4957 N.am      16 UNK        -0.5000 
     90 CA         -1.8782  -23.5643  -51.3914 C.3       16 UNK         0.1400 
     91 CB         -2.4536  -24.9369  -51.7820 C.3       16 UNK        -0.1800 
     92 C          -1.6348  -22.6833  -52.6311 C.2       16 UNK         0.5000 
     93 O          -2.4761  -21.8438  -52.9514 O.2       16 UNK        -0.5000 
     94 N          -0.4758  -22.8425  -53.2795 N.am      17 UNK        -0.5000 
     95 CA          0.0131  -22.0136  -54.3815 C.3       17 UNK         0.1400 
     96 CB          1.2412  -22.6903  -55.0074 C.3       17 UNK        -0.1800 
     97 C           0.3518  -20.5756  -53.9427 C.2       17 UNK         0.5000 
     98 O           0.2963  -19.6662  -54.7692 O.2       17 UNK        -0.5000 
     99 N           0.6605  -20.3937  -52.6493 N.am      18 UNK        -0.5000 
    100 CA         0.8448  -19.0947  -52.0004 C.3       18 UNK         0.1400 
    101 CB         1.3785  -19.3141  -50.5767 C.3       18 UNK        -0.1800 
    102 C         -0.4630  -18.2830  -51.9763 C.2       18 UNK         0.5000 
    103 O         -0.4778  -17.1233  -52.3849 O.2       18 UNK        -0.5000 
    104 N         -1.5464  -18.9440  -51.5508 N.am      19 UNK        -0.5000 
    105 CA        -2.9112  -18.4210  -51.5756 C.3       19 UNK         0.1400 
    106 CB        -3.7797  -19.3536  -50.7215 C.3       19 UNK        -0.1800 
    107 C         -3.4884  -18.3082  -53.0009 C.2       19 UNK         0.5000 
    108 O         -4.3756  -17.4904  -53.2370 O.2       19 UNK        -0.5000 
    109 N         -2.9717  -19.1449  -53.9113 N.am      20 UNK        -0.5000 
    110 CA        -3.4247  -19.3873  -55.2817 C.3       20 UNK         0.1400 
    111 CB        -3.4090  -18.1021  -56.1361 C.3       20 UNK        -0.1800 
    112 C         -4.7668  -20.1469  -55.3133 C.2       20 UNK         0.5000 
    113 O         -5.6138  -19.8664  -56.1629 O.2       20 UNK        -0.5000 
    114 N         -4.9034  -21.1194  -54.3962 N.am      21 UNK        -0.5000 
    115 CA        -6.0039  -22.0771  -54.2510 C.3       21 UNK         0.1400 
    116 CB        -5.9618  -23.1044  -55.4009 C.3       21 UNK        -0.1800 
    117 C         -7.3852  -21.4051  -54.0990 C.2       21 UNK         0.5000 
    118 O         -8.2283  -21.5042  -54.9933 O.2       21 UNK        -0.5000 
    119 N         -7.5866  -20.7270  -52.9615 N.am      22 UNK        -0.5000 
    120 CA        -8.8346  -20.0185  -52.6119 C.3       22 UNK         0.1400 
    121 C        -10.0846  -20.9277  -52.4082 C.2       22 UNK         0.5000 
    122 N         -9.9382  -22.2324  -52.2110 N.am      22 UNK        -0.7600 
    123 O        -11.2101  -20.4368  -52.4294 O.2       22 UNK        -0.5000 
    124 C124       -8.6573  -19.0955  -51.3781 C.3       23 UNK        -0.0398 
    125 S125       -7.3027  -17.8935  -51.5684 S.3       23 UNK        -0.2404 
    126 C126       -7.3188  -17.0986  -49.9324 C.3       23 UNK        -0.0205 
    127 H127        2.4442  -16.3005  -52.9022 H         1 UNK         0.0600 
    128 H128        3.6099  -15.0627  -52.4240 H         1 UNK         0.0600 
    129 H129        2.1160  -14.6017  -53.2468 H         1 UNK         0.0600 
    130 H130        0.5891  -13.7617  -51.8725 H         1 UNK         0.3000 
    131 H131       -0.4218  -15.0029  -49.6120 H         1 UNK         0.0600 
    132 H132       -1.6249  -12.7959  -49.2050 H         1 UNK         0.0800 
    133 H133       -0.6597  -12.0662  -50.4546 H         1 UNK         0.0800 
    134 H134       -3.8288  -12.6451  -49.7574 H         1 UNK         0.0800 
    135 H135       -4.6193  -13.1154  -51.2317 H         1 UNK         0.0800 
    136 H136       -6.1742  -14.8323  -50.9183 H         1 UNK         0.1150 
    137 H137       -5.4576  -18.0514  -48.1894 H         1 UNK         0.1150 
    138 H138       -2.5554  -14.9346  -48.6108 H         1 UNK         0.1150 
    139 H139       -2.8684  -16.6218  -46.4319 H         1 UNK         0.0800 
    140 H140       -3.4955  -18.1758  -46.9207 H         1 UNK         0.0800 
    141 H141        0.2360  -18.2932  -46.3226 H         1 UNK         0.0800 
    142 H142       -1.3615  -18.5689  -45.7444 H         1 UNK         0.0800 
    143 H143        0.3698  -20.3612  -47.4667 H         1 UNK         0.0600 
    144 H144       -0.3767  -20.3584  -44.7458 H         1 UNK         0.3000 
    145 H145        0.0132  -23.8303  -44.0395 H         1 UNK         0.0600 
    146 H146        1.4686  -22.8014  -42.3127 H         1 UNK         0.0600 
    147 H147        2.2588  -22.7924  -43.8798 H         1 UNK         0.0600 
    148 H148        1.5640  -21.3073  -43.2502 H         1 UNK         0.0600 
    149 H149       -0.8451  -21.5538  -42.5077 H         1 UNK         0.3000 
    150 H150       -4.3437  -21.9807  -43.1361 H         1 UNK         0.0600 
    151 H151       -3.7979  -23.6922  -41.3988 H         1 UNK         0.0600 
    152 H152       -4.3869  -22.2079  -40.6682 H         1 UNK         0.0600 
    153 H153       -2.6632  -22.5811  -40.6409 H         1 UNK         0.0600 
    154 H154       -2.8974  -20.2317  -41.4013 H         1 UNK         0.3000 
    155 H155       -2.2768  -17.6274  -43.7421 H         1 UNK         0.0600 
    156 H156       -3.5592  -16.3180  -42.0857 H         1 UNK         0.0600 
    157 H157       -4.2659  -17.7910  -41.4196 H         1 UNK         0.0600 
    158 H158       -4.6493  -17.2888  -43.0622 H         1 UNK         0.0600 
    159 H159       -1.8211  -17.8092  -40.9428 H         1 UNK         0.3000 
    160 H160        0.2191  -18.0017  -40.1188 H         1 UNK         0.0600 
    161 H161        1.1123  -20.8332  -40.9151 H         1 UNK         0.0600 
    162 H162       -0.3917  -20.4968  -40.0655 H         1 UNK         0.0600 
    163 H163        1.1416  -20.1345  -39.3025 H         1 UNK         0.0600 
    164 H164        1.9873  -18.0962  -42.2988 H         1 UNK         0.3000 
    165 H165        4.8747  -17.0862  -40.3714 H         1 UNK         0.0600 
    166 H166        4.1929  -18.6229  -42.9367 H         1 UNK         0.0600 
    167 H167        5.7101  -17.7866  -42.6181 H         1 UNK         0.0600 
    168 H168        5.2372  -19.1626  -41.6338 H         1 UNK         0.0600 
    169 H169        3.4362  -16.2033  -42.7897 H         1 UNK         0.3000 
    170 H170        2.1822  -13.2647  -41.3024 H         1 UNK         0.0600 
    171 H171        4.4603  -12.3900  -41.6900 H         1 UNK         0.0600 
    172 H172        4.6150  -13.3337  -43.1649 H         1 UNK         0.0600 
    173 H173        3.4430  -12.0185  -43.0741 H         1 UNK         0.0600 
    174 H174        2.4187  -14.1800  -44.0269 H         1 UNK         0.3000 
    175 H175       -0.1752  -16.5223  -43.9994 H         1 UNK         0.0600 
    176 H176       -1.7199  -14.6063  -43.9527 H         1 UNK         0.0600 
    177 H177       -0.6070  -13.6323  -44.9073 H         1 UNK         0.0600 
    178 H178       -1.3876  -15.0370  -45.6245 H         1 UNK         0.0600 
    179 H179        1.0181  -15.1493  -46.1680 H         1 UNK         0.3000 
    180 H180        4.2194  -16.6120  -46.1210 H         1 UNK         0.0600 
    181 H181        1.9364  -17.6289  -47.8915 H         1 UNK         0.0600 
    182 H182        2.9646  -18.6501  -46.8914 H         1 UNK         0.0600 
    183 H183        3.6567  -17.7644  -48.2436 H         1 UNK         0.0600 
    184 H184        2.8295  -15.3720  -48.2573 H         1 UNK         0.3000 
    185 H185        2.6408  -12.0603  -47.1180 H         1 UNK         0.0600 
    186 H186        4.1508  -11.4165  -48.9795 H         1 UNK         0.0600 
    187 H187        5.0909  -12.0574  -47.6420 H         1 UNK         0.0600 
    188 H188        4.7964  -13.0567  -49.0603 H         1 UNK         0.0600 
    189 H189        2.4155  -13.0754  -49.7456 H         1 UNK         0.3000 
    190 H190       -2.9038  -20.7473  -46.0183 H         1 UNK         0.3000 
    191 H191       -4.2375  -21.0871  -48.4960 H         1 UNK         0.0600 
    192 H192       -6.1826  -21.6609  -47.0480 H         1 UNK         0.0600 
    193 H193       -5.3502  -20.2200  -46.4849 H         1 UNK         0.0600 
    194 H194       -5.1187  -21.7538  -45.6484 H         1 UNK         0.0600 
    195 H195       -3.2357  -23.5802  -46.0630 H         1 UNK         0.3000 
    196 H196       -4.4537  -25.6655  -47.8009 H         1 UNK         0.0600 
    197 H197       -4.4667  -27.0172  -45.7668 H         1 UNK         0.0600 
    198 H198       -5.2233  -25.4646  -45.4453 H         1 UNK         0.0600 
    199 H199       -3.5877  -25.7865  -44.8739 H         1 UNK         0.0600 
    200 H200       -1.3654  -25.0331  -46.0222 H         1 UNK         0.3000 
    201 H201       -0.2598  -27.5666  -46.8725 H         1 UNK         0.0600 
    202 H202        0.2895  -26.4931  -44.6688 H         1 UNK         0.0600 
    203 H203        1.2011  -25.2461  -45.5214 H         1 UNK         0.0600 
    204 H204        1.7086  -26.9198  -45.6112 H         1 UNK         0.0600 
    205 H205        0.5468  -24.1477  -47.6488 H         1 UNK         0.3000 
    206 H206        2.3319  -24.8666  -49.8388 H         1 UNK         0.0600 
    207 H207        2.7203  -22.8218  -48.4982 H         1 UNK         0.0600 
    208 H208        2.4197  -22.3961  -50.1764 H         1 UNK         0.0600 
    209 H209        1.1562  -22.1713  -48.9713 H         1 UNK         0.0600 
    210 H210       -0.8404  -23.2280  -49.6062 H         1 UNK         0.3000 
    211 H211       -2.6367  -23.0466  -50.8047 H         1 UNK         0.0600 
    212 H212       -1.7533  -25.5201  -52.3802 H         1 UNK         0.0600 
    213 H213       -3.3670  -24.8222  -52.3669 H         1 UNK         0.0600 
    214 H214       -2.7065  -25.5201  -50.8962 H         1 UNK         0.0600 
    215 H215        0.1413  -23.5795  -52.9445 H         1 UNK         0.3000 
    216 H216       -0.7728  -21.9542  -55.1372 H         1 UNK         0.0600 
    217 H217        2.0528  -22.7966  -54.2863 H         1 UNK         0.0600 
    218 H218        0.9946  -23.6836  -55.3829 H         1 UNK         0.0600 
    219 H219        1.6217  -22.1101  -55.8491 H         1 UNK         0.0600 
    220 H220        0.6907  -21.2067  -52.0538 H         1 UNK         0.3000 
    221 H221        1.5875  -18.5298  -52.5665 H         1 UNK         0.0600 
    222 H222        2.3552  -19.7976  -50.5883 H         1 UNK         0.0600 
    223 H223        1.4929  -18.3631  -50.0593 H         1 UNK         0.0600 
    224 H224        0.7033  -19.9272  -49.9797 H         1 UNK         0.0600 
    225 H225       -1.4388  -19.8889  -51.2122 H         1 UNK         0.3000 
    226 H226       -2.9165  -17.4246  -51.1283 H         1 UNK         0.0600 
    227 H227       -3.7321  -20.3878  -51.0624 H         1 UNK         0.0600 
    228 H228       -3.4539  -19.3248  -49.6833 H         1 UNK         0.0600 
    229 H229       -4.8247  -19.0522  -50.7418 H         1 UNK         0.0600 
    230 H230       -2.2856  -19.8048  -53.5688 H         1 UNK         0.3000 
    231 H231       -2.6898  -20.0667  -55.7156 H         1 UNK         0.0600 
    232 H232       -3.5701  -18.3355  -57.1890 H         1 UNK         0.0600 
    233 H233       -2.4493  -17.5908  -56.0599 H         1 UNK         0.0600 
    234 H234       -4.1893  -17.4018  -55.8378 H         1 UNK         0.0600 
    235 H235       -4.1202  -21.2677  -53.7650 H         1 UNK         0.3000 
    236 H236       -5.8170  -22.6219  -53.3242 H         1 UNK         0.0600 
    237 H237       -5.0019  -23.6202  -55.4317 H         1 UNK         0.0600 
    238 H238       -6.7343  -23.8637  -55.2744 H         1 UNK         0.0600 
    239 H239       -6.1201  -22.6346  -56.3723 H         1 UNK         0.0600 
    240 H240       -6.8367  -20.6594  -52.2899 H         1 UNK         0.3000 
    241 H241       -9.0731  -19.3770  -53.4626 H         1 UNK         0.0600 
    242 H242       -9.0225  -22.6508  -52.1906 H         1 UNK         0.3800 
    243 H243      -10.7552  -22.8092  -52.0842 H         1 UNK         0.3800 
    244 H244       -9.5735  -18.5344  -51.1838 H         1 UNK         0.0800 
    245 H245       -8.4669  -19.6956  -50.4865 H         1 UNK         0.0800 
    246 H246       -7.6089  -17.8254  -49.1722 H         1 UNK         0.0800 
    247 H247       -8.0821  -16.3194  -49.9185 H         1 UNK         0.0800 
@<TRIPOS>BOND
     1    1    2 1    
     2    1  127 1    
     3    1  128 1    
     4    1  129 1    
     5    2    3 2    
     6    2    4 am   BACKBONE|DICT|INTERRES
     7    4    5 1    
     8    4  130 1    
     9    5    6 1    
    10    5   65 1    
    11    5  131 1    
    12    6    7 1    
    13    6  132 1    
    14    6  133 1    
    15    7    8 1    
    16    8    9 1    
    17    8  134 1    
    18    8  135 1    
    19    9   10 ar   
    20    9   14 ar   
    21   10   11 ar   
    22   10  136 1    
    23   11   12 ar   
    24   11  126 1    
    25   12   13 ar   
    26   12  137 1    
    27   13   14 ar   
    28   13   15 1    
    29   14  138 1    
    30   15   16 1    
    31   15  139 1    
    32   15  140 1    
    33   16   17 1    
    34   17   18 1    
    35   17  141 1    
    36   17  142 1    
    37   18   19 1    
    38   18   67 1    
    39   18  143 1    
    40   19   20 am   BACKBONE|DICT|INTERRES
    41   19  144 1    
    42   20   21 2    
    43   20   22 1    
    44   22   23 1    
    45   22   24 1    
    46   22  145 1    
    47   23  146 1    
    48   23  147 1    
    49   23  148 1    
    50   24   25 am   BACKBONE|DICT|INTERRES
    51   24  149 1    
    52   25   26 2    
    53   25   27 1    
    54   27   28 1    
    55   27   29 1    
    56   27  150 1    
    57   28  151 1    
    58   28  152 1    
    59   28  153 1    
    60   29   30 am   BACKBONE|DICT|INTERRES
    61   29  154 1    
    62   30   31 2    
    63   30   32 1    
    64   32   33 1    
    65   32   34 1    
    66   32  155 1    
    67   33  156 1    
    68   33  157 1    
    69   33  158 1    
    70   34   35 am   BACKBONE|DICT|INTERRES
    71   34  159 1    
    72   35   36 2    
    73   35   37 1    
    74   37   38 1    
    75   37   39 1    
    76   37  160 1    
    77   38  161 1    
    78   38  162 1    
    79   38  163 1    
    80   39   40 am   BACKBONE|DICT|INTERRES
    81   39  164 1    
    82   40   41 2    
    83   40   42 1    
    84   42   43 1    
    85   42   44 1    
    86   42  165 1    
    87   43  166 1    
    88   43  167 1    
    89   43  168 1    
    90   44   45 am   BACKBONE|DICT|INTERRES
    91   44  169 1    
    92   45   46 2    
    93   45   47 1    
    94   47   48 1    
    95   47   49 1    
    96   47  170 1    
    97   48  171 1    
    98   48  172 1    
    99   48  173 1    
   100   49   50 am   BACKBONE|DICT|INTERRES
   101   49  174 1    
   102   50   51 2    
   103   50   52 1    
   104   52   53 1    
   105   52   54 1    
   106   52  175 1    
   107   53  176 1    
   108   53  177 1    
   109   53  178 1    
   110   54   55 am   BACKBONE|DICT|INTERRES
   111   54  179 1    
   112   55   56 2    
   113   55   57 1    
   114   57   58 1    
   115   57   59 1    
   116   57  180 1    
   117   58  181 1    
   118   58  182 1    
   119   58  183 1    
   120   59   60 am   BACKBONE|DICT|INTERRES
   121   59  184 1    
   122   60   61 2    
   123   60   62 1    
   124   62   63 1    
   125   62   64 1    
   126   62  185 1    
   127   63  186 1    
   128   63  187 1    
   129   63  188 1    
   130   64   65 am   BACKBONE|DICT|INTERRES
   131   64  189 1    
   132   65   66 2    
   133   67   68 2    
   134   67   69 am   BACKBONE|DICT|INTERRES
   135   69   70 1    
   136   69  190 1    
   137   70   71 1    
   138   70   72 1    
   139   70  191 1    
   140   71  192 1    
   141   71  193 1    
   142   71  194 1    
   143   72   73 2    
   144   72   74 am   BACKBONE|DICT|INTERRES
   145   74   75 1    
   146   74  195 1    
   147   75   76 1    
   148   75   77 1    
   149   75  196 1    
   150   76  197 1    
   151   76  198 1    
   152   76  199 1    
   153   77   78 2    
   154   77   79 am   BACKBONE|DICT|INTERRES
   155   79   80 1    
   156   79  200 1    
   157   80   81 1    
   158   80   82 1    
   159   80  201 1    
   160   81  202 1    
   161   81  203 1    
   162   81  204 1    
   163   82   83 2    
   164   82   84 am   BACKBONE|DICT|INTERRES
   165   84   85 1    
   166   84  205 1    
   167   85   86 1    
   168   85   87 1    
   169   85  206 1    
   170   86  207 1    
   171   86  208 1    
   172   86  209 1    
   173   87   88 2    
   174   87   89 am   BACKBONE|DICT|INTERRES
   175   89   90 1    
   176   89  210 1    
   177   90   91 1    
   178   90   92 1    
   179   90  211 1    
   180   91  212 1    
   181   91  213 1    
   182   91  214 1    
   183   92   93 2    
   184   92   94 am   BACKBONE|DICT|INTERRES
   185   94   95 1    
   186   94  215 1    
   187   95   96 1    
   188   95   97 1    
   189   95  216 1    
   190   96  217 1    
   191   96  218 1    
   192   96  219 1    
   193   97   98 2    
   194   97   99 am   BACKBONE|DICT|INTERRES
   195   99  100 1    
   196   99  220 1    
   197  100  101 1    
   198  100  102 1    
   199  100  221 1    
   200  101  222 1    
   201  101  223 1    
   202  101  224 1    
   203  102  103 2    
   204  102  104 am   BACKBONE|DICT|INTERRES
   205  104  105 1    
   206  104  225 1    
   207  105  106 1    
   208  105  107 1    
   209  105  226 1    
   210  106  227 1    
   211  106  228 1    
   212  106  229 1    
   213  107  108 2    
   214  107  109 am   BACKBONE|DICT|INTERRES
   215  109  110 1    
   216  109  230 1    
   217  110  111 1    
   218  110  112 1    
   219  110  231 1    
   220  111  232 1    
   221  111  233 1    
   222  111  234 1    
   223  112  113 2    
   224  112  114 am   BACKBONE|DICT|INTERRES
   225  114  115 1    
   226  114  235 1    
   227  115  116 1    
   228  115  117 1    
   229  115  236 1    
   230  116  237 1    
   231  116  238 1    
   232  116  239 1    
   233  117  118 2    
   234  117  119 am   BACKBONE|DICT|INTERRES
   235  119  120 1    
   236  119  240 1    
   237  120  121 1    
   238  120  124 1    
   239  120  241 1    
   240  121  122 am   BACKBONE|DICT|INTERRES
   241  121  123 2    
   242  122  242 1    
   243  122  243 1    
   244  124  125 1    
   245  124  244 1    
   246  124  245 1    
   247  125  126 1    
   248  126  246 1    
   249  126  247 1    
@<TRIPOS>SUBSTRUCTURE
     1 UNK         1 GROUP             0       ****    0 ROOT    
