@<TRIPOS>MOLECULE
3R540
247   249    1
SMALL
USER_CHARGES


@<TRIPOS>ATOM
      1 CA         -0.9653  -16.4276  -49.3583 C.3       0 UNK        -0.1800 
      2 C          -0.4803  -15.0800  -48.8405 C.2       0 UNK         0.5000 
      3 O           0.1743  -14.3518  -49.5855 O.2       0 UNK        -0.5000 
      4 N          -0.7714  -14.7813  -47.5629 N.am      1 UNK        -0.5000 
      5 CA         -0.3727  -13.5932  -46.7841 C.3       1 UNK         0.1400 
      6 C6         -1.3665  -12.3985  -46.8699 C.3       23 UNK        -0.0398 
      7 S7         -1.6254  -11.6488  -48.5188 S.3       23 UNK        -0.2404 
      8 C8         -3.4247  -11.8315  -48.7518 C.3       23 UNK        -0.0205 
      9 C9         -3.7923  -13.2364  -49.2011 C.ar      23 UNK        -0.0193 
     10 C10        -3.7642  -13.5656  -50.5577 C.ar      23 UNK        -0.1150 
     11 C11        -4.0601  -14.8636  -50.9820 C.ar      23 UNK        -0.0193 
     12 C12        -4.3809  -15.8414  -50.0335 C.ar      23 UNK        -0.1150 
     13 C13        -4.4165  -15.5237  -48.6703 C.ar      23 UNK        -0.0193 
     14 C14        -4.1466  -14.2116  -48.2665 C.ar      23 UNK        -0.1150 
     15 C15        -4.7290  -16.5969  -47.6333 C.3       23 UNK        -0.0205 
     16 S16        -3.4479  -16.6711  -46.3376 S.3       23 UNK        -0.2404 
     17 C17        -3.8110  -18.2620  -45.5287 C.3       23 UNK        -0.0398 
     18 CA         -2.8652  -19.3822  -46.0520 C.3       11 UNK         0.1400 
     19 N          -2.2045  -20.1252  -44.9761 N.am      11 UNK        -0.5000 
     20 C          -2.6756  -21.1226  -44.2163 C.2       10 UNK         0.5000 
     21 O          -3.7738  -21.6576  -44.3687 O.2       10 UNK        -0.5000 
     22 CA         -1.7560  -21.5900  -43.0729 C.3       10 UNK         0.1400 
     23 CB         -0.5820  -22.4248  -43.6068 C.3       10 UNK        -0.1800 
     24 N          -1.2285  -20.4723  -42.2900 N.am      10 UNK        -0.5000 
     25 C          -1.9675  -19.6593  -41.5214 C.2       9 UNK         0.5000 
     26 O          -3.1777  -19.7976  -41.3399 O.2       9 UNK        -0.5000 
     27 CA         -1.2313  -18.4861  -40.8506 C.3       9 UNK         0.1400 
     28 CB         -0.5013  -18.9550  -39.5826 C.3       9 UNK        -0.1800 
     29 N          -0.2827  -17.8364  -41.7555 N.am      9 UNK        -0.5000 
     30 C          -0.6348  -17.0890  -42.8111 C.2       8 UNK         0.5000 
     31 O          -1.7993  -16.8034  -43.0845 O.2       8 UNK        -0.5000 
     32 CA          0.4972  -16.5837  -43.7258 C.3       8 UNK         0.1400 
     33 CB          1.0680  -15.2613  -43.1995 C.3       8 UNK        -0.1800 
     34 N           1.5829  -17.5516  -43.8878 N.am      8 UNK        -0.5000 
     35 C           1.4536  -18.7369  -44.5003 C.2       7 UNK         0.5000 
     36 O           0.4163  -19.1196  -45.0389 O.2       7 UNK        -0.5000 
     37 CA          2.6702  -19.6752  -44.4617 C.3       7 UNK         0.1400 
     38 CB          3.6652  -19.3363  -45.5799 C.3       7 UNK        -0.1800 
     39 N           3.3467  -19.6388  -43.1658 N.am      7 UNK        -0.5000 
     40 C           2.8310  -20.1418  -42.0354 C.2       6 UNK         0.5000 
     41 O           1.7394  -20.7076  -41.9740 O.2       6 UNK        -0.5000 
     42 CA          3.6552  -19.9356  -40.7519 C.3       6 UNK         0.1400 
     43 CB          4.7785  -20.9784  -40.6529 C.3       6 UNK        -0.1800 
     44 N           4.2279  -18.5913  -40.6628 N.am      6 UNK        -0.5000 
     45 C           3.5036  -17.4705  -40.5368 C.2       5 UNK         0.5000 
     46 O           2.2766  -17.4570  -40.4597 O.2       5 UNK        -0.5000 
     47 CA          4.2720  -16.1374  -40.5361 C.3       5 UNK         0.1400 
     48 CB          4.7118  -15.7703  -39.1111 C.3       5 UNK        -0.1800 
     49 N           5.4381  -16.1221  -41.4226 N.am      5 UNK        -0.5000 
     50 C           5.3956  -16.3051  -42.7483 C.2       4 UNK         0.5000 
     51 O           4.3711  -16.5913  -43.3733 O.2       4 UNK        -0.5000 
     52 CA          6.7233  -16.1357  -43.5046 C.3       4 UNK         0.1400 
     53 CB          7.0596  -17.3918  -44.3240 C.3       4 UNK        -0.1800 
     54 N           6.6331  -14.9872  -44.3995 N.am      4 UNK        -0.5000 
     55 C           6.6810  -13.7048  -44.0108 C.2       3 UNK         0.5000 
     56 O           6.9549  -13.3476  -42.8643 O.2       3 UNK        -0.5000 
     57 CA          6.3497  -12.6438  -45.0812 C.3       3 UNK         0.1400 
     58 CB          7.6342  -12.1330  -45.7515 C.3       3 UNK        -0.1800 
     59 N           5.4367  -13.1488  -46.1115 N.am      3 UNK        -0.5000 
     60 C           4.1495  -13.4507  -45.8937 C.2       2 UNK         0.5000 
     61 O           3.5702  -13.2291  -44.8285 O.2       2 UNK        -0.5000 
     62 CA          3.4292  -14.1736  -47.0492 C.3       2 UNK         0.1400 
     63 CB          3.9546  -15.6133  -47.1803 C.3       2 UNK        -0.1800 
     64 N           1.9789  -14.2453  -46.8856 N.am      2 UNK        -0.5000 
     65 C           1.1241  -13.2141  -46.9208 C.2       1 UNK         0.5000 
     66 O           1.4715  -12.0405  -47.0690 O.2       1 UNK        -0.5000 
     67 C          -3.4912  -20.2952  -47.1263 C.2       11 UNK         0.5000 
     68 O          -2.7986  -20.6695  -48.0718 O.2       11 UNK        -0.5000 
     69 N          -4.7614  -20.6872  -46.9494 N.am      12 UNK        -0.5000 
     70 CA         -5.4679  -21.6372  -47.8092 C.3       12 UNK         0.1400 
     71 CB         -6.9361  -21.7337  -47.3727 C.3       12 UNK        -0.1800 
     72 C          -4.8162  -23.0318  -47.8202 C.2       12 UNK         0.5000 
     73 O          -4.7924  -23.6758  -48.8684 O.2       12 UNK        -0.5000 
     74 N          -4.2622  -23.4569  -46.6756 N.am      13 UNK        -0.5000 
     75 CA         -3.5250  -24.7137  -46.5447 C.3       13 UNK         0.1400 
     76 CB         -3.3996  -25.0916  -45.0620 C.3       13 UNK        -0.1800 
     77 C          -2.1480  -24.6615  -47.2328 C.2       13 UNK         0.5000 
     78 O          -1.7407  -25.6547  -47.8354 O.2       13 UNK        -0.5000 
     79 N          -1.4823  -23.4959  -47.1900 N.am      14 UNK        -0.5000 
     80 CA         -0.2375  -23.2305  -47.9228 C.3       14 UNK         0.1400 
     81 CB          0.4112  -21.9350  -47.4088 C.3       14 UNK        -0.1800 
     82 C          -0.4678  -23.1694  -49.4454 C.2       14 UNK         0.5000 
     83 O           0.3786  -23.6225  -50.2150 O.2       14 UNK        -0.5000 
     84 N          -1.6466  -22.6732  -49.8397 N.am      15 UNK        -0.5000 
     85 CA         -2.1800  -22.6668  -51.2004 C.3       15 UNK         0.1400 
     86 CB         -3.2356  -21.5537  -51.2936 C.3       15 UNK        -0.1800 
     87 C          -2.7568  -24.0279  -51.6550 C.2       15 UNK         0.5000 
     88 O          -3.4262  -24.0703  -52.6872 O.2       15 UNK        -0.5000 
     89 N          -2.5062  -25.1072  -50.8967 N.am      16 UNK        -0.5000 
     90 CA         -2.8865  -26.4970  -51.1723 C.3       16 UNK         0.1400 
     91 CB         -2.1487  -27.0229  -52.4220 C.3       16 UNK        -0.1800 
     92 C          -4.4140  -26.6886  -51.2458 C.2       16 UNK         0.5000 
     93 O          -4.9331  -27.1811  -52.2478 O.2       16 UNK        -0.5000 
     94 N          -5.1027  -26.2559  -50.1806 N.am      17 UNK        -0.5000 
     95 CA         -6.5624  -26.2022  -50.0297 C.3       17 UNK         0.1400 
     96 CB         -7.1914  -27.6108  -50.0738 C.3       17 UNK        -0.1800 
     97 C          -7.1994  -25.2087  -51.0227 C.2       17 UNK         0.5000 
     98 O          -8.2358  -25.4969  -51.6232 O.2       17 UNK        -0.5000 
     99 N          -6.5331  -24.0550  -51.1744 N.am      18 UNK        -0.5000 
    100 CA        -6.8611  -22.9299  -52.0546 C.3       18 UNK         0.1400 
    101 CB        -8.1731  -22.2533  -51.6072 C.3       18 UNK        -0.1800 
    102 C         -6.8430  -23.2645  -53.5638 C.2       18 UNK         0.5000 
    103 O         -7.4350  -22.5297  -54.3559 O.2       18 UNK        -0.5000 
    104 N         -6.1440  -24.3400  -53.9515 N.am      19 UNK        -0.5000 
    105 CA        -5.9415  -24.7393  -55.3454 C.3       19 UNK         0.1400 
    106 CB        -5.4455  -26.1916  -55.3892 C.3       19 UNK        -0.1800 
    107 C         -4.9561  -23.8128  -56.0818 C.2       19 UNK         0.5000 
    108 O         -5.1335  -23.5576  -57.2733 O.2       19 UNK        -0.5000 
    109 N         -3.9516  -23.3155  -55.3519 N.am      20 UNK        -0.5000 
    110 CA        -2.9194  -22.3940  -55.8172 C.3       20 UNK         0.1400 
    111 CB        -1.5464  -23.0727  -55.6598 C.3       20 UNK        -0.1800 
    112 C         -3.0205  -21.0713  -55.0363 C.2       20 UNK         0.5000 
    113 O         -2.0107  -20.5527  -54.5559 O.2       20 UNK        -0.5000 
    114 N         -4.2499  -20.5564  -54.8907 N.am      21 UNK        -0.5000 
    115 CA        -4.5817  -19.3287  -54.1639 C.3       21 UNK         0.1400 
    116 CB        -6.0805  -19.3381  -53.8180 C.3       21 UNK        -0.1800 
    117 C         -4.1637  -18.0616  -54.9351 C.2       21 UNK         0.5000 
    118 O         -5.0161  -17.3420  -55.4581 O.2       21 UNK        -0.5000 
    119 N         -2.8491  -17.8229  -54.9864 N.am      22 UNK        -0.5000 
    120 CA        -2.1869  -16.6458  -55.5775 C.3       22 UNK         0.1400 
    121 C         -2.2529  -16.5655  -57.1346 C.2       22 UNK         0.5000 
    122 N         -2.6353  -17.6235  -57.8391 N.am      22 UNK        -0.7600 
    123 O         -1.9199  -15.5393  -57.7216 O.2       22 UNK        -0.5000 
    124 C124       -2.5978  -15.3072  -54.8987 C.3       23 UNK        -0.0398 
    125 S125       -2.3222  -15.2965  -53.0914 S.3       23 UNK        -0.2404 
    126 C126       -4.0298  -15.1923  -52.4669 C.3       23 UNK        -0.0205 
    127 H127       -1.6088  -16.9370  -48.6422 H         1 UNK         0.0600 
    128 H128       -0.1146  -17.0752  -49.5693 H         1 UNK         0.0600 
    129 H129       -1.5259  -16.2944  -50.2825 H         1 UNK         0.0600 
    130 H130       -1.3486  -15.4370  -47.0537 H         1 UNK         0.3000 
    131 H131       -0.4431  -13.9353  -45.7503 H         1 UNK         0.0600 
    132 H132       -1.0465  -11.6029  -46.1952 H         1 UNK         0.0800 
    133 H133       -2.3288  -12.7216  -46.4749 H         1 UNK         0.0800 
    134 H134       -3.7532  -11.1124  -49.5037 H         1 UNK         0.0800 
    135 H135       -3.9518  -11.5676  -47.8337 H         1 UNK         0.0800 
    136 H136       -3.4942  -12.8138  -51.2862 H         1 UNK         0.1150 
    137 H137       -4.5933  -16.8507  -50.3570 H         1 UNK         0.1150 
    138 H138       -4.1780  -13.9608  -47.2161 H         1 UNK         0.1150 
    139 H139       -5.6968  -16.3869  -47.1762 H         1 UNK         0.0800 
    140 H140       -4.8107  -17.5739  -48.1120 H         1 UNK         0.0800 
    141 H141       -4.8721  -18.4929  -45.6218 H         1 UNK         0.0800 
    142 H142       -3.6545  -18.1072  -44.4605 H         1 UNK         0.0800 
    143 H143       -2.0223  -18.9044  -46.5548 H         1 UNK         0.0600 
    144 H144       -1.2555  -19.8041  -44.7926 H         1 UNK         0.3000 
    145 H145       -2.3494  -22.2226  -42.4096 H         1 UNK         0.0600 
    146 H146       -0.0403  -22.9014  -42.7897 H         1 UNK         0.0600 
    147 H147       -0.9149  -23.2142  -44.2792 H         1 UNK         0.0600 
    148 H148        0.1289  -21.8064  -44.1526 H         1 UNK         0.0600 
    149 H149       -0.2258  -20.3226  -42.3330 H         1 UNK         0.3000 
    150 H150       -1.9798  -17.7482  -40.5544 H         1 UNK         0.0600 
    151 H151       -1.1900  -19.4448  -38.8930 H         1 UNK         0.0600 
    152 H152       -0.0550  -18.1135  -39.0525 H         1 UNK         0.0600 
    153 H153        0.2941  -19.6642  -39.8130 H         1 UNK         0.0600 
    154 H154        0.7026  -17.9460  -41.5372 H         1 UNK         0.3000 
    155 H155        0.0666  -16.3996  -44.7124 H         1 UNK         0.0600 
    156 H156        1.4971  -15.3757  -42.2041 H         1 UNK         0.0600 
    157 H157        0.2938  -14.4956  -43.1394 H         1 UNK         0.0600 
    158 H158        1.8495  -14.8859  -43.8575 H         1 UNK         0.0600 
    159 H159        2.4893  -17.2947  -43.5085 H         1 UNK         0.3000 
    160 H160        2.3107  -20.6924  -44.6307 H         1 UNK         0.0600 
    161 H161        4.4889  -20.0498  -45.6042 H         1 UNK         0.0600 
    162 H162        4.0883  -18.3415  -45.4521 H         1 UNK         0.0600 
    163 H163        3.1801  -19.3649  -46.5565 H         1 UNK         0.0600 
    164 H164        4.2181  -19.1316  -43.1208 H         1 UNK         0.3000 
    165 H165        2.9847  -20.0751  -39.9011 H         1 UNK         0.0600 
    166 H166        5.3153  -20.8906  -39.7082 H         1 UNK         0.0600 
    167 H167        4.3757  -21.9910  -40.7035 H         1 UNK         0.0600 
    168 H168        5.5023  -20.8720  -41.4618 H         1 UNK         0.0600 
    169 H169        5.2325  -18.5129  -40.7207 H         1 UNK         0.3000 
    170 H170        3.5852  -15.3651  -40.8877 H         1 UNK         0.0600 
    171 H171        3.8586  -15.7526  -38.4315 H         1 UNK         0.0600 
    172 H172        5.4329  -16.4862  -38.7145 H         1 UNK         0.0600 
    173 H173        5.1687  -14.7809  -39.0816 H         1 UNK         0.0600 
    174 H174        6.3193  -15.8752  -40.9955 H         1 UNK         0.3000 
    175 H175        7.5316  -15.9696  -42.7892 H         1 UNK         0.0600 
    176 H176        6.3230  -17.5759  -45.1062 H         1 UNK         0.0600 
    177 H177        8.0348  -17.2978  -44.8021 H         1 UNK         0.0600 
    178 H178        7.0937  -18.2772  -43.6879 H         1 UNK         0.0600 
    179 H179        6.3699  -15.1840  -45.3526 H         1 UNK         0.3000 
    180 H180        5.8686  -11.8029  -44.5772 H         1 UNK         0.0600 
    181 H181        8.1553  -12.9290  -46.2849 H         1 UNK         0.0600 
    182 H182        8.3252  -11.7270  -45.0114 H         1 UNK         0.0600 
    183 H183        7.4179  -11.3361  -46.4633 H         1 UNK         0.0600 
    184 H184        5.8427  -13.3440  -47.0155 H         1 UNK         0.3000 
    185 H185        3.6369  -13.6325  -47.9745 H         1 UNK         0.0600 
    186 H186        5.0245  -15.6327  -47.3899 H         1 UNK         0.0600 
    187 H187        3.7892  -16.1770  -46.2616 H         1 UNK         0.0600 
    188 H188        3.4600  -16.1443  -47.9940 H         1 UNK         0.0600 
    189 H189        1.5959  -15.1691  -46.7581 H         1 UNK         0.3000 
    190 H190       -5.2383  -20.4117  -46.1030 H         1 UNK         0.3000 
    191 H191       -5.4459  -21.2471  -48.8277 H         1 UNK         0.0600 
    192 H192       -7.4877  -22.4264  -48.0099 H         1 UNK         0.0600 
    193 H193       -7.4323  -20.7655  -47.4415 H         1 UNK         0.0600 
    194 H194       -7.0288  -22.0873  -46.3450 H         1 UNK         0.0600 
    195 H195       -4.2976  -22.8544  -45.8582 H         1 UNK         0.3000 
    196 H196       -4.1027  -25.5000  -47.0356 H         1 UNK         0.0600 
    197 H197       -2.8245  -26.0102  -44.9381 H         1 UNK         0.0600 
    198 H198       -4.3810  -25.2613  -44.6189 H         1 UNK         0.0600 
    199 H199       -2.9072  -24.3131  -44.4824 H         1 UNK         0.0600 
    200 H200       -1.9121  -22.7094  -46.7277 H         1 UNK         0.3000 
    201 H201        0.4545  -24.0528  -47.7287 H         1 UNK         0.0600 
    202 H202       -0.2554  -21.0773  -47.4964 H         1 UNK         0.0600 
    203 H203        1.3164  -21.7024  -47.9709 H         1 UNK         0.0600 
    204 H204        0.7013  -22.0291  -46.3641 H         1 UNK         0.0600 
    205 H205       -2.2373  -22.2452  -49.1342 H         1 UNK         0.3000 
    206 H206       -1.3716  -22.4225  -51.8923 H         1 UNK         0.0600 
    207 H207       -2.7961  -20.5759  -51.0954 H         1 UNK         0.0600 
    208 H208       -3.6857  -21.5134  -52.2827 H         1 UNK         0.0600 
    209 H209       -4.0417  -21.7085  -50.5803 H         1 UNK         0.0600 
    210 H210       -1.9814  -24.9681  -50.0438 H         1 UNK         0.3000 
    211 H211       -2.5440  -27.0846  -50.3192 H         1 UNK         0.0600 
    212 H212       -1.0696  -26.9114  -52.3171 H         1 UNK         0.0600 
    213 H213       -2.4523  -26.4972  -53.3277 H         1 UNK         0.0600 
    214 H214       -2.3520  -28.0831  -52.5770 H         1 UNK         0.0600 
    215 H215       -4.5865  -25.7669  -49.4602 H         1 UNK         0.3000 
    216 H216       -6.7490  -25.7948  -49.0349 H         1 UNK         0.0600 
    217 H217       -8.2496  -27.5710  -49.8134 H         1 UNK         0.0600 
    218 H218       -6.7076  -28.2808  -49.3632 H         1 UNK         0.0600 
    219 H219       -7.1186  -28.0612  -51.0639 H         1 UNK         0.0600 
    220 H220       -5.7084  -23.9314  -50.5946 H         1 UNK         0.3000 
    221 H221       -6.0601  -22.2063  -51.9092 H         1 UNK         0.0600 
    222 H222       -9.0364  -22.8990  -51.7690 H         1 UNK         0.0600 
    223 H223       -8.1411  -21.9934  -50.5492 H         1 UNK         0.0600 
    224 H224       -8.3498  -21.3298  -52.1596 H         1 UNK         0.0600 
    225 H225       -5.6478  -24.8739  -53.2496 H         1 UNK         0.3000 
    226 H226       -6.9018  -24.6906  -55.8630 H         1 UNK         0.0600 
    227 H227       -5.3211  -26.5320  -56.4178 H         1 UNK         0.0600 
    228 H228       -4.4835  -26.3021  -54.8870 H         1 UNK         0.0600 
    229 H229       -6.1537  -26.8649  -54.9056 H         1 UNK         0.0600 
    230 H230       -3.8851  -23.5875  -54.3715 H         1 UNK         0.3000 
    231 H231       -3.0617  -22.1521  -56.8721 H         1 UNK         0.0600 
    232 H232       -1.5023  -24.0043  -56.2240 H         1 UNK         0.0600 
    233 H233       -1.3304  -23.3045  -54.6160 H         1 UNK         0.0600 
    234 H234       -0.7455  -22.4314  -56.0295 H         1 UNK         0.0600 
    235 H235       -5.0234  -21.0419  -55.3223 H         1 UNK         0.3000 
    236 H236       -4.0323  -19.3199  -53.2204 H         1 UNK         0.0600 
    237 H237       -6.3241  -20.1654  -53.1544 H         1 UNK         0.0600 
    238 H238       -6.3710  -18.4207  -53.3043 H         1 UNK         0.0600 
    239 H239       -6.7019  -19.4288  -54.7097 H         1 UNK         0.0600 
    240 H240       -2.2320  -18.5293  -54.5992 H         1 UNK         0.3000 
    241 H241       -1.1268  -16.7903  -55.3672 H         1 UNK         0.0600 
    242 H242       -2.9101  -18.4732  -57.3743 H         1 UNK         0.3800 
    243 H243       -2.6645  -17.5667  -58.8451 H         1 UNK         0.3800 
    244 H244       -2.0125  -14.4825  -55.3083 H         1 UNK         0.0800 
    245 H245       -3.6383  -15.0686  -55.1218 H         1 UNK         0.0800 
    246 H246       -4.5479  -16.1312  -52.6643 H         1 UNK         0.0800 
    247 H247       -4.5728  -14.4180  -53.0109 H         1 UNK         0.0800 
@<TRIPOS>BOND
     1    1    2 1    
     2    1  127 1    
     3    1  128 1    
     4    1  129 1    
     5    2    3 2    
     6    2    4 am   BACKBONE|DICT|INTERRES
     7    4    5 1    
     8    4  130 1    
     9    5    6 1    
    10    5   65 1    
    11    5  131 1    
    12    6    7 1    
    13    6  132 1    
    14    6  133 1    
    15    7    8 1    
    16    8    9 1    
    17    8  134 1    
    18    8  135 1    
    19    9   10 ar   
    20    9   14 ar   
    21   10   11 ar   
    22   10  136 1    
    23   11   12 ar   
    24   11  126 1    
    25   12   13 ar   
    26   12  137 1    
    27   13   14 ar   
    28   13   15 1    
    29   14  138 1    
    30   15   16 1    
    31   15  139 1    
    32   15  140 1    
    33   16   17 1    
    34   17   18 1    
    35   17  141 1    
    36   17  142 1    
    37   18   19 1    
    38   18   67 1    
    39   18  143 1    
    40   19   20 am   BACKBONE|DICT|INTERRES
    41   19  144 1    
    42   20   21 2    
    43   20   22 1    
    44   22   23 1    
    45   22   24 1    
    46   22  145 1    
    47   23  146 1    
    48   23  147 1    
    49   23  148 1    
    50   24   25 am   BACKBONE|DICT|INTERRES
    51   24  149 1    
    52   25   26 2    
    53   25   27 1    
    54   27   28 1    
    55   27   29 1    
    56   27  150 1    
    57   28  151 1    
    58   28  152 1    
    59   28  153 1    
    60   29   30 am   BACKBONE|DICT|INTERRES
    61   29  154 1    
    62   30   31 2    
    63   30   32 1    
    64   32   33 1    
    65   32   34 1    
    66   32  155 1    
    67   33  156 1    
    68   33  157 1    
    69   33  158 1    
    70   34   35 am   BACKBONE|DICT|INTERRES
    71   34  159 1    
    72   35   36 2    
    73   35   37 1    
    74   37   38 1    
    75   37   39 1    
    76   37  160 1    
    77   38  161 1    
    78   38  162 1    
    79   38  163 1    
    80   39   40 am   BACKBONE|DICT|INTERRES
    81   39  164 1    
    82   40   41 2    
    83   40   42 1    
    84   42   43 1    
    85   42   44 1    
    86   42  165 1    
    87   43  166 1    
    88   43  167 1    
    89   43  168 1    
    90   44   45 am   BACKBONE|DICT|INTERRES
    91   44  169 1    
    92   45   46 2    
    93   45   47 1    
    94   47   48 1    
    95   47   49 1    
    96   47  170 1    
    97   48  171 1    
    98   48  172 1    
    99   48  173 1    
   100   49   50 am   BACKBONE|DICT|INTERRES
   101   49  174 1    
   102   50   51 2    
   103   50   52 1    
   104   52   53 1    
   105   52   54 1    
   106   52  175 1    
   107   53  176 1    
   108   53  177 1    
   109   53  178 1    
   110   54   55 am   BACKBONE|DICT|INTERRES
   111   54  179 1    
   112   55   56 2    
   113   55   57 1    
   114   57   58 1    
   115   57   59 1    
   116   57  180 1    
   117   58  181 1    
   118   58  182 1    
   119   58  183 1    
   120   59   60 am   BACKBONE|DICT|INTERRES
   121   59  184 1    
   122   60   61 2    
   123   60   62 1    
   124   62   63 1    
   125   62   64 1    
   126   62  185 1    
   127   63  186 1    
   128   63  187 1    
   129   63  188 1    
   130   64   65 am   BACKBONE|DICT|INTERRES
   131   64  189 1    
   132   65   66 2    
   133   67   68 2    
   134   67   69 am   BACKBONE|DICT|INTERRES
   135   69   70 1    
   136   69  190 1    
   137   70   71 1    
   138   70   72 1    
   139   70  191 1    
   140   71  192 1    
   141   71  193 1    
   142   71  194 1    
   143   72   73 2    
   144   72   74 am   BACKBONE|DICT|INTERRES
   145   74   75 1    
   146   74  195 1    
   147   75   76 1    
   148   75   77 1    
   149   75  196 1    
   150   76  197 1    
   151   76  198 1    
   152   76  199 1    
   153   77   78 2    
   154   77   79 am   BACKBONE|DICT|INTERRES
   155   79   80 1    
   156   79  200 1    
   157   80   81 1    
   158   80   82 1    
   159   80  201 1    
   160   81  202 1    
   161   81  203 1    
   162   81  204 1    
   163   82   83 2    
   164   82   84 am   BACKBONE|DICT|INTERRES
   165   84   85 1    
   166   84  205 1    
   167   85   86 1    
   168   85   87 1    
   169   85  206 1    
   170   86  207 1    
   171   86  208 1    
   172   86  209 1    
   173   87   88 2    
   174   87   89 am   BACKBONE|DICT|INTERRES
   175   89   90 1    
   176   89  210 1    
   177   90   91 1    
   178   90   92 1    
   179   90  211 1    
   180   91  212 1    
   181   91  213 1    
   182   91  214 1    
   183   92   93 2    
   184   92   94 am   BACKBONE|DICT|INTERRES
   185   94   95 1    
   186   94  215 1    
   187   95   96 1    
   188   95   97 1    
   189   95  216 1    
   190   96  217 1    
   191   96  218 1    
   192   96  219 1    
   193   97   98 2    
   194   97   99 am   BACKBONE|DICT|INTERRES
   195   99  100 1    
   196   99  220 1    
   197  100  101 1    
   198  100  102 1    
   199  100  221 1    
   200  101  222 1    
   201  101  223 1    
   202  101  224 1    
   203  102  103 2    
   204  102  104 am   BACKBONE|DICT|INTERRES
   205  104  105 1    
   206  104  225 1    
   207  105  106 1    
   208  105  107 1    
   209  105  226 1    
   210  106  227 1    
   211  106  228 1    
   212  106  229 1    
   213  107  108 2    
   214  107  109 am   BACKBONE|DICT|INTERRES
   215  109  110 1    
   216  109  230 1    
   217  110  111 1    
   218  110  112 1    
   219  110  231 1    
   220  111  232 1    
   221  111  233 1    
   222  111  234 1    
   223  112  113 2    
   224  112  114 am   BACKBONE|DICT|INTERRES
   225  114  115 1    
   226  114  235 1    
   227  115  116 1    
   228  115  117 1    
   229  115  236 1    
   230  116  237 1    
   231  116  238 1    
   232  116  239 1    
   233  117  118 2    
   234  117  119 am   BACKBONE|DICT|INTERRES
   235  119  120 1    
   236  119  240 1    
   237  120  121 1    
   238  120  124 1    
   239  120  241 1    
   240  121  122 am   BACKBONE|DICT|INTERRES
   241  121  123 2    
   242  122  242 1    
   243  122  243 1    
   244  124  125 1    
   245  124  244 1    
   246  124  245 1    
   247  125  126 1    
   248  126  246 1    
   249  126  247 1    
@<TRIPOS>SUBSTRUCTURE
     1 UNK         1 GROUP             0       ****    0 ROOT    
