@<TRIPOS>MOLECULE
3R540
247   249    1
SMALL
USER_CHARGES


@<TRIPOS>ATOM
      1 CA         -1.2835  -12.3069  -48.9051 C.3       0 UNK        -0.1800 
      2 C           0.1506  -11.8935  -48.6072 C.2       0 UNK         0.5000 
      3 O           0.4288  -10.7047  -48.4512 O.2       0 UNK        -0.5000 
      4 N           1.0599  -12.8737  -48.5339 N.am      1 UNK        -0.5000 
      5 CA          2.4990  -12.6903  -48.2956 C.3       1 UNK         0.1400 
      6 C6          3.2973  -13.9930  -48.5439 C.3       23 UNK        -0.0398 
      7 S7          3.0928  -14.6575  -50.2330 S.3       23 UNK        -0.2404 
      8 C8          2.6957  -16.4049  -49.9067 C.3       23 UNK        -0.0205 
      9 C9          1.2058  -16.6956  -50.0281 C.ar      23 UNK        -0.0193 
     10 C10         0.7301  -17.4562  -51.0999 C.ar      23 UNK        -0.1150 
     11 C11        -0.6301  -17.7768  -51.2090 C.ar      23 UNK        -0.0193 
     12 C12        -1.5145  -17.2900  -50.2418 C.ar      23 UNK        -0.1150 
     13 C13        -1.0552  -16.5320  -49.1617 C.ar      23 UNK        -0.0193 
     14 C14         0.3073  -16.2405  -49.0602 C.ar      23 UNK        -0.1150 
     15 C15        -2.0268  -16.0480  -48.0919 C.3       23 UNK        -0.0205 
     16 S16        -2.8093  -17.4207  -47.1794 S.3       23 UNK        -0.2404 
     17 C17        -1.3595  -18.3742  -46.6182 C.3       23 UNK        -0.0398 
     18 CA         -1.1172  -19.6455  -47.4678 C.3       11 UNK         0.1400 
     19 N           0.3123  -19.9300  -47.5886 N.am      11 UNK        -0.5000 
     20 C           0.8815  -20.7941  -48.4389 C.2       10 UNK         0.5000 
     21 O           0.2590  -21.4393  -49.2860 O.2       10 UNK        -0.5000 
     22 CA          2.4007  -21.0080  -48.2764 C.3       10 UNK         0.1400 
     23 CB          3.1714  -20.2510  -49.3662 C.3       10 UNK        -0.1800 
     24 N           2.9133  -20.5977  -46.9638 N.am      10 UNK        -0.5000 
     25 C           2.5954  -21.1591  -45.7900 C.2       9 UNK         0.5000 
     26 O           1.8156  -22.1055  -45.6845 O.2       9 UNK        -0.5000 
     27 CA          3.1940  -20.5241  -44.5216 C.3       9 UNK         0.1400 
     28 CB          4.6794  -20.8908  -44.3472 C.3       9 UNK        -0.1800 
     29 N           2.9747  -19.0759  -44.4233 N.am      9 UNK        -0.5000 
     30 C           3.4899  -18.0798  -45.1587 C.2       8 UNK         0.5000 
     31 O           4.2496  -18.2464  -46.1134 O.2       8 UNK        -0.5000 
     32 CA          3.0618  -16.6512  -44.7728 C.3       8 UNK         0.1400 
     33 CB          1.7585  -16.2766  -45.4895 C.3       8 UNK        -0.1800 
     34 N           2.8808  -16.4794  -43.3317 N.am      8 UNK        -0.5000 
     35 C           3.8768  -16.4841  -42.4345 C.2       7 UNK         0.5000 
     36 O           5.0696  -16.5593  -42.7309 O.2       7 UNK        -0.5000 
     37 CA          3.4640  -16.4218  -40.9540 C.3       7 UNK         0.1400 
     38 CB          3.2331  -14.9701  -40.5054 C.3       7 UNK        -0.1800 
     39 N           2.2616  -17.2160  -40.6969 N.am      7 UNK        -0.5000 
     40 C           2.2450  -18.5554  -40.6247 C.2       6 UNK         0.5000 
     41 O           3.2529  -19.2576  -40.7034 O.2       6 UNK        -0.5000 
     42 CA          0.8702  -19.2285  -40.4513 C.3       6 UNK         0.1400 
     43 CB          0.5470  -19.4148  -38.9612 C.3       6 UNK        -0.1800 
     44 N          -0.2170  -18.4832  -41.0871 N.am      6 UNK        -0.5000 
     45 C          -0.3845  -18.3593  -42.4108 C.2       5 UNK         0.5000 
     46 O           0.3508  -18.8805  -43.2485 O.2       5 UNK        -0.5000 
     47 CA         -1.5425  -17.4574  -42.8742 C.3       5 UNK         0.1400 
     48 CB         -2.8465  -18.2630  -42.9837 C.3       5 UNK        -0.1800 
     49 N          -1.7557  -16.2975  -42.0062 N.am      5 UNK        -0.5000 
     50 C          -0.8622  -15.3184  -41.8192 C.2       4 UNK         0.5000 
     51 O           0.2625  -15.3071  -42.3283 O.2       4 UNK        -0.5000 
     52 CA         -1.2759  -14.1940  -40.8645 C.3       4 UNK         0.1400 
     53 CB         -0.7457  -14.4684  -39.4482 C.3       4 UNK        -0.1800 
     54 N          -0.7189  -12.9389  -41.3535 N.am      4 UNK        -0.5000 
     55 C          -1.3944  -11.7916  -41.4881 C.2       3 UNK         0.5000 
     56 O          -2.5676  -11.6465  -41.1409 O.2       3 UNK        -0.5000 
     57 CA         -0.6443  -10.5935  -42.1073 C.3       3 UNK         0.1400 
     58 CB         -0.3008   -9.5591  -41.0233 C.3       3 UNK        -0.1800 
     59 N           0.5868  -10.9540  -42.8167 N.am      3 UNK        -0.5000 
     60 C           0.6381  -11.5978  -43.9890 C.2       2 UNK         0.5000 
     61 O          -0.3568  -11.9877  -44.6068 O.2       2 UNK        -0.5000 
     62 CA          2.0437  -11.8593  -44.5473 C.3       2 UNK         0.1400 
     63 CB          2.7939  -12.9035  -43.7008 C.3       2 UNK        -0.1800 
     64 N           1.9263  -12.3284  -45.9229 N.am      2 UNK        -0.5000 
     65 C           2.8338  -12.1448  -46.8881 C.2       1 UNK         0.5000 
     66 O           3.9138  -11.5810  -46.7049 O.2       1 UNK        -0.5000 
     67 C          -1.9349  -20.8437  -46.9346 C.2       11 UNK         0.5000 
     68 O          -3.1540  -20.8558  -47.0994 O.2       11 UNK        -0.5000 
     69 N          -1.2733  -21.8531  -46.3453 N.am      12 UNK        -0.5000 
     70 CA         -1.9013  -23.1033  -45.9093 C.3       12 UNK         0.1400 
     71 CB         -0.8634  -23.9726  -45.1860 C.3       12 UNK        -0.1800 
     72 C          -2.5533  -23.8871  -47.0661 C.2       12 UNK         0.5000 
     73 O          -3.5821  -24.5278  -46.8569 O.2       12 UNK        -0.5000 
     74 N          -1.9765  -23.7844  -48.2727 N.am      13 UNK        -0.5000 
     75 CA         -2.5399  -24.3532  -49.4960 C.3       13 UNK         0.1400 
     76 CB         -1.4607  -24.3936  -50.5819 C.3       13 UNK        -0.1800 
     77 C          -3.7721  -23.5687  -49.9809 C.2       13 UNK         0.5000 
     78 O          -4.7470  -24.1799  -50.4164 O.2       13 UNK        -0.5000 
     79 N          -3.7372  -22.2335  -49.8576 N.am      14 UNK        -0.5000 
     80 CA         -4.8683  -21.3564  -50.1692 C.3       14 UNK         0.1400 
     81 CB         -4.4241  -19.8872  -50.1728 C.3       14 UNK        -0.1800 
     82 C          -6.0536  -21.5857  -49.2151 C.2       14 UNK         0.5000 
     83 O          -7.1926  -21.6652  -49.6747 O.2       14 UNK        -0.5000 
     84 N          -5.7559  -21.7725  -47.9214 N.am      15 UNK        -0.5000 
     85 CA         -6.7131  -22.1661  -46.8840 C.3       15 UNK         0.1400 
     86 CB         -6.0267  -22.0963  -45.5118 C.3       15 UNK        -0.1800 
     87 C          -7.3265  -23.5632  -47.1195 C.2       15 UNK         0.5000 
     88 O          -8.4862  -23.7829  -46.7701 O.2       15 UNK        -0.5000 
     89 N          -6.5577  -24.4633  -47.7484 N.am      16 UNK        -0.5000 
     90 CA         -6.9882  -25.7895  -48.2009 C.3       16 UNK         0.1400 
     91 CB         -5.7697  -26.7274  -48.2296 C.3       16 UNK        -0.1800 
     92 C          -7.7105  -25.7674  -49.5682 C.2       16 UNK         0.5000 
     93 O          -8.0292  -26.8350  -50.0932 O.2       16 UNK        -0.5000 
     94 N          -7.9644  -24.5686  -50.1143 N.am      17 UNK        -0.5000 
     95 CA         -8.6863  -24.2765  -51.3554 C.3       17 UNK         0.1400 
     96 CB        -10.1248  -24.8363  -51.3217 C.3       17 UNK        -0.1800 
     97 C          -7.9205  -24.6449  -52.6430 C.2       17 UNK         0.5000 
     98 O          -8.5474  -24.8199  -53.6894 O.2       17 UNK        -0.5000 
     99 N          -6.5809  -24.6964  -52.5786 N.am      18 UNK        -0.5000 
    100 CA        -5.7110  -24.8103  -53.7571 C.3       18 UNK         0.1400 
    101 CB        -4.3471  -25.3754  -53.3344 C.3       18 UNK        -0.1800 
    102 C         -5.5379  -23.4611  -54.4900 C.2       18 UNK         0.5000 
    103 O         -5.0758  -23.4457  -55.6319 O.2       18 UNK        -0.5000 
    104 N         -5.9253  -22.3606  -53.8255 N.am      19 UNK        -0.5000 
    105 CA        -5.9478  -20.9783  -54.3065 C.3       19 UNK         0.1400 
    106 CB        -7.0748  -20.7988  -55.3485 C.3       19 UNK        -0.1800 
    107 C         -4.5607  -20.5070  -54.7874 C.2       19 UNK         0.5000 
    108 O         -3.6658  -20.3423  -53.9587 O.2       19 UNK        -0.5000 
    109 N         -4.4104  -20.3017  -56.1030 N.am      20 UNK        -0.5000 
    110 CA        -3.1878  -19.8380  -56.7605 C.3       20 UNK         0.1400 
    111 CB        -3.5250  -19.4408  -58.2060 C.3       20 UNK        -0.1800 
    112 C         -2.0301  -20.8552  -56.7368 C.2       20 UNK         0.5000 
    113 O         -0.8800  -20.4553  -56.9249 O.2       20 UNK        -0.5000 
    114 N         -2.3265  -22.1399  -56.4940 N.am      21 UNK        -0.5000 
    115 CA        -1.3312  -23.1899  -56.2775 C.3       21 UNK         0.1400 
    116 CB        -1.9286  -24.5471  -56.6873 C.3       21 UNK        -0.1800 
    117 C         -0.8443  -23.1568  -54.8148 C.2       21 UNK         0.5000 
    118 O         -1.1458  -24.0636  -54.0380 O.2       21 UNK        -0.5000 
    119 N         -0.1432  -22.0726  -54.4638 N.am      22 UNK        -0.5000 
    120 CA         0.3802  -21.7774  -53.1227 C.3       22 UNK         0.1400 
    121 C          1.4225  -22.8155  -52.6153 C.2       22 UNK         0.5000 
    122 N          1.5576  -22.9770  -51.3065 N.am      22 UNK        -0.7600 
    123 O          2.1468  -23.4362  -53.3912 O.2       22 UNK        -0.5000 
    124 C124        0.9722  -20.3465  -53.0308 C.3       23 UNK        -0.0398 
    125 S125       -0.0959  -19.0341  -53.7241 S.3       23 UNK        -0.2404 
    126 C126       -1.2004  -18.6632  -52.3195 C.3       23 UNK        -0.0205 
    127 H127       -1.3403  -13.3345  -49.2645 H         1 UNK         0.0600 
    128 H128       -1.8926  -12.2227  -48.0050 H         1 UNK         0.0600 
    129 H129       -1.7114  -11.6597  -49.6707 H         1 UNK         0.0600 
    130 H130        0.7734  -13.8195  -48.7356 H         1 UNK         0.3000 
    131 H131        2.8496  -11.9428  -49.0105 H         1 UNK         0.0600 
    132 H132        3.0183  -14.7474  -47.8079 H         1 UNK         0.0800 
    133 H133        4.3651  -13.8166  -48.3993 H         1 UNK         0.0800 
    134 H134        3.2542  -17.0104  -50.6221 H         1 UNK         0.0800 
    135 H135        3.0547  -16.7117  -48.9236 H         1 UNK         0.0800 
    136 H136        1.4365  -17.8045  -51.8373 H         1 UNK         0.1150 
    137 H137       -2.5673  -17.5249  -50.3110 H         1 UNK         0.1150 
    138 H138        0.6686  -15.6634  -48.2243 H         1 UNK         0.1150 
    139 H139       -1.5253  -15.3924  -47.3782 H         1 UNK         0.0800 
    140 H140       -2.8066  -15.4483  -48.5632 H         1 UNK         0.0800 
    141 H141       -1.4763  -18.6242  -45.5651 H         1 UNK         0.0800 
    142 H142       -0.4948  -17.7146  -46.6624 H         1 UNK         0.0800 
    143 H143       -1.4718  -19.4636  -48.4838 H         1 UNK         0.0600 
    144 H144        0.9179  -19.4728  -46.9244 H         1 UNK         0.3000 
    145 H145        2.5947  -22.0758  -48.3939 H         1 UNK         0.0600 
    146 H146        4.2436  -20.4315  -49.2889 H         1 UNK         0.0600 
    147 H147        2.8632  -20.5685  -50.3619 H         1 UNK         0.0600 
    148 H148        3.0068  -19.1768  -49.2959 H         1 UNK         0.0600 
    149 H149        3.5409  -19.7977  -46.9392 H         1 UNK         0.3000 
    150 H150        2.6547  -20.9532  -43.6754 H         1 UNK         0.0600 
    151 H151        4.8101  -21.9730  -44.3159 H         1 UNK         0.0600 
    152 H152        5.0743  -20.4881  -43.4142 H         1 UNK         0.0600 
    153 H153        5.2960  -20.5128  -45.1629 H         1 UNK         0.0600 
    154 H154        2.2669  -18.8174  -43.7428 H         1 UNK         0.3000 
    155 H155        3.8461  -15.9695  -45.1089 H         1 UNK         0.0600 
    156 H156        1.5624  -15.2069  -45.4292 H         1 UNK         0.0600 
    157 H157        0.9038  -16.7950  -45.0568 H         1 UNK         0.0600 
    158 H158        1.8108  -16.5444  -46.5434 H         1 UNK         0.0600 
    159 H159        1.9319  -16.3462  -43.0002 H         1 UNK         0.3000 
    160 H160        4.2851  -16.8295  -40.3604 H         1 UNK         0.0600 
    161 H161        2.4170  -14.4983  -41.0514 H         1 UNK         0.0600 
    162 H162        4.1264  -14.3662  -40.6694 H         1 UNK         0.0600 
    163 H163        2.9980  -14.9196  -39.4422 H         1 UNK         0.0600 
    164 H164        1.3856  -16.7161  -40.6646 H         1 UNK         0.3000 
    165 H165        0.9241  -20.2155  -40.9161 H         1 UNK         0.0600 
    166 H166        0.4601  -18.4581  -38.4445 H         1 UNK         0.0600 
    167 H167       -0.3891  -19.9568  -38.8254 H         1 UNK         0.0600 
    168 H168        1.3285  -19.9884  -38.4610 H         1 UNK         0.0600 
    169 H169       -0.8719  -18.0207  -40.4741 H         1 UNK         0.3000 
    170 H170       -1.2868  -17.0767  -43.8643 H         1 UNK         0.0600 
    171 H171       -2.7123  -19.1550  -43.5971 H         1 UNK         0.0600 
    172 H172       -3.2001  -18.5920  -42.0059 H         1 UNK         0.0600 
    173 H173       -3.6366  -17.6704  -43.4454 H         1 UNK         0.0600 
    174 H174       -2.6522  -16.2402  -41.5444 H         1 UNK         0.3000 
    175 H175       -2.3666  -14.1469  -40.8363 H         1 UNK         0.0600 
    176 H176       -1.0460  -13.6794  -38.7585 H         1 UNK         0.0600 
    177 H177       -1.1371  -15.4081  -39.0567 H         1 UNK         0.0600 
    178 H178        0.3429  -14.5304  -39.4286 H         1 UNK         0.0600 
    179 H179        0.2171  -13.0023  -41.7285 H         1 UNK         0.3000 
    180 H180       -1.3226  -10.1237  -42.8228 H         1 UNK         0.0600 
    181 H181        0.3873   -9.9673  -40.2819 H         1 UNK         0.0600 
    182 H182       -1.1973   -9.2332  -40.4941 H         1 UNK         0.0600 
    183 H183        0.1585   -8.6703  -41.4563 H         1 UNK         0.0600 
    184 H184        1.4509  -10.6748  -42.3746 H         1 UNK         0.3000 
    185 H185        2.5915  -10.9146  -44.5328 H         1 UNK         0.0600 
    186 H186        3.7514  -13.1713  -44.1477 H         1 UNK         0.0600 
    187 H187        3.0006  -12.5250  -42.6996 H         1 UNK         0.0600 
    188 H188        2.2094  -13.8155  -43.5898 H         1 UNK         0.0600 
    189 H189        1.0217  -12.7184  -46.1550 H         1 UNK         0.3000 
    190 H190       -0.2685  -21.7905  -46.2294 H         1 UNK         0.3000 
    191 H191       -2.6887  -22.8487  -45.1973 H         1 UNK         0.0600 
    192 H192       -0.4428  -23.4513  -44.3258 H         1 UNK         0.0600 
    193 H193       -1.3139  -24.8957  -44.8191 H         1 UNK         0.0600 
    194 H194       -0.0397  -24.2478  -45.8460 H         1 UNK         0.0600 
    195 H195       -1.1402  -23.2247  -48.3693 H         1 UNK         0.3000 
    196 H196       -2.8492  -25.3797  -49.2895 H         1 UNK         0.0600 
    197 H197       -1.8165  -24.9188  -51.4682 H         1 UNK         0.0600 
    198 H198       -0.5659  -24.9120  -50.2373 H         1 UNK         0.0600 
    199 H199       -1.1732  -23.3897  -50.8888 H         1 UNK         0.0600 
    200 H200       -2.9222  -21.8023  -49.4489 H         1 UNK         0.3000 
    201 H201       -5.2066  -21.5993  -51.1773 H         1 UNK         0.0600 
    202 H202       -3.6561  -19.7161  -50.9249 H         1 UNK         0.0600 
    203 H203       -4.0298  -19.5732  -49.2071 H         1 UNK         0.0600 
    204 H204       -5.2601  -19.2292  -50.4126 H         1 UNK         0.0600 
    205 H205       -4.7943  -21.6258  -47.6232 H         1 UNK         0.3000 
    206 H206       -7.5296  -21.4412  -46.8946 H         1 UNK         0.0600 
    207 H207       -5.6278  -21.1000  -45.3196 H         1 UNK         0.0600 
    208 H208       -6.7305  -22.3265  -44.7111 H         1 UNK         0.0600 
    209 H209       -5.2028  -22.8061  -45.4384 H         1 UNK         0.0600 
    210 H210       -5.6019  -24.2112  -47.9635 H         1 UNK         0.3000 
    211 H211       -7.6978  -26.1914  -47.4751 H         1 UNK         0.0600 
    212 H212       -5.0406  -26.4187  -48.9778 H         1 UNK         0.0600 
    213 H213       -6.0661  -27.7500  -48.4656 H         1 UNK         0.0600 
    214 H214       -5.2680  -26.7529  -47.2621 H         1 UNK         0.0600 
    215 H215       -7.6287  -23.7493  -49.6222 H         1 UNK         0.3000 
    216 H216       -8.7759  -23.1899  -51.3817 H         1 UNK         0.0600 
    217 H217      -10.6377  -24.5524  -50.4027 H         1 UNK         0.0600 
    218 H218      -10.1411  -25.9239  -51.3947 H         1 UNK         0.0600 
    219 H219      -10.7149  -24.4478  -52.1525 H         1 UNK         0.0600 
    220 H220       -6.1123  -24.5628  -51.6851 H         1 UNK         0.3000 
    221 H221       -6.1620  -25.5158  -54.4580 H         1 UNK         0.0600 
    222 H222       -3.7415  -24.6232  -52.8300 H         1 UNK         0.0600 
    223 H223       -4.4546  -26.2298  -52.6659 H         1 UNK         0.0600 
    224 H224       -3.7812  -25.7126  -54.2021 H         1 UNK         0.0600 
    225 H225       -6.2628  -22.4990  -52.8855 H         1 UNK         0.3000 
    226 H226       -6.1960  -20.3549  -53.4461 H         1 UNK         0.0600 
    227 H227       -8.0435  -21.0501  -54.9162 H         1 UNK         0.0600 
    228 H228       -7.1369  -19.7644  -55.6891 H         1 UNK         0.0600 
    229 H229       -6.9354  -21.4332  -56.2245 H         1 UNK         0.0600 
    230 H230       -5.1971  -20.4938  -56.7058 H         1 UNK         0.3000 
    231 H231       -2.8418  -18.9469  -56.2324 H         1 UNK         0.0600 
    232 H232       -2.6442  -19.0557  -58.7218 H         1 UNK         0.0600 
    233 H233       -4.2834  -18.6582  -58.2343 H         1 UNK         0.0600 
    234 H234       -3.8959  -20.2909  -58.7800 H         1 UNK         0.0600 
    235 H235       -3.2909  -22.3918  -56.3080 H         1 UNK         0.3000 
    236 H236       -0.4641  -23.0116  -56.9171 H         1 UNK         0.0600 
    237 H237       -1.2088  -25.3522  -56.5353 H         1 UNK         0.0600 
    238 H238       -2.8191  -24.7891  -56.1096 H         1 UNK         0.0600 
    239 H239       -2.2050  -24.5520  -57.7417 H         1 UNK         0.0600 
    240 H240        0.0043  -21.3557  -55.1638 H         1 UNK         0.3000 
    241 H241       -0.4772  -21.8212  -52.4498 H         1 UNK         0.0600 
    242 H242        0.9903  -22.4581  -50.6414 H         1 UNK         0.3800 
    243 H243        2.2376  -23.6398  -50.9709 H         1 UNK         0.3800 
    244 H244        1.1927  -20.1080  -51.9903 H         1 UNK         0.0800 
    245 H245        1.9252  -20.2981  -53.5607 H         1 UNK         0.0800 
    246 H246       -2.0937  -18.1851  -52.7242 H         1 UNK         0.0800 
    247 H247       -1.5306  -19.6059  -51.8825 H         1 UNK         0.0800 
@<TRIPOS>BOND
     1    1    2 1    
     2    1  127 1    
     3    1  128 1    
     4    1  129 1    
     5    2    3 2    
     6    2    4 am   BACKBONE|DICT|INTERRES
     7    4    5 1    
     8    4  130 1    
     9    5    6 1    
    10    5   65 1    
    11    5  131 1    
    12    6    7 1    
    13    6  132 1    
    14    6  133 1    
    15    7    8 1    
    16    8    9 1    
    17    8  134 1    
    18    8  135 1    
    19    9   10 ar   
    20    9   14 ar   
    21   10   11 ar   
    22   10  136 1    
    23   11   12 ar   
    24   11  126 1    
    25   12   13 ar   
    26   12  137 1    
    27   13   14 ar   
    28   13   15 1    
    29   14  138 1    
    30   15   16 1    
    31   15  139 1    
    32   15  140 1    
    33   16   17 1    
    34   17   18 1    
    35   17  141 1    
    36   17  142 1    
    37   18   19 1    
    38   18   67 1    
    39   18  143 1    
    40   19   20 am   BACKBONE|DICT|INTERRES
    41   19  144 1    
    42   20   21 2    
    43   20   22 1    
    44   22   23 1    
    45   22   24 1    
    46   22  145 1    
    47   23  146 1    
    48   23  147 1    
    49   23  148 1    
    50   24   25 am   BACKBONE|DICT|INTERRES
    51   24  149 1    
    52   25   26 2    
    53   25   27 1    
    54   27   28 1    
    55   27   29 1    
    56   27  150 1    
    57   28  151 1    
    58   28  152 1    
    59   28  153 1    
    60   29   30 am   BACKBONE|DICT|INTERRES
    61   29  154 1    
    62   30   31 2    
    63   30   32 1    
    64   32   33 1    
    65   32   34 1    
    66   32  155 1    
    67   33  156 1    
    68   33  157 1    
    69   33  158 1    
    70   34   35 am   BACKBONE|DICT|INTERRES
    71   34  159 1    
    72   35   36 2    
    73   35   37 1    
    74   37   38 1    
    75   37   39 1    
    76   37  160 1    
    77   38  161 1    
    78   38  162 1    
    79   38  163 1    
    80   39   40 am   BACKBONE|DICT|INTERRES
    81   39  164 1    
    82   40   41 2    
    83   40   42 1    
    84   42   43 1    
    85   42   44 1    
    86   42  165 1    
    87   43  166 1    
    88   43  167 1    
    89   43  168 1    
    90   44   45 am   BACKBONE|DICT|INTERRES
    91   44  169 1    
    92   45   46 2    
    93   45   47 1    
    94   47   48 1    
    95   47   49 1    
    96   47  170 1    
    97   48  171 1    
    98   48  172 1    
    99   48  173 1    
   100   49   50 am   BACKBONE|DICT|INTERRES
   101   49  174 1    
   102   50   51 2    
   103   50   52 1    
   104   52   53 1    
   105   52   54 1    
   106   52  175 1    
   107   53  176 1    
   108   53  177 1    
   109   53  178 1    
   110   54   55 am   BACKBONE|DICT|INTERRES
   111   54  179 1    
   112   55   56 2    
   113   55   57 1    
   114   57   58 1    
   115   57   59 1    
   116   57  180 1    
   117   58  181 1    
   118   58  182 1    
   119   58  183 1    
   120   59   60 am   BACKBONE|DICT|INTERRES
   121   59  184 1    
   122   60   61 2    
   123   60   62 1    
   124   62   63 1    
   125   62   64 1    
   126   62  185 1    
   127   63  186 1    
   128   63  187 1    
   129   63  188 1    
   130   64   65 am   BACKBONE|DICT|INTERRES
   131   64  189 1    
   132   65   66 2    
   133   67   68 2    
   134   67   69 am   BACKBONE|DICT|INTERRES
   135   69   70 1    
   136   69  190 1    
   137   70   71 1    
   138   70   72 1    
   139   70  191 1    
   140   71  192 1    
   141   71  193 1    
   142   71  194 1    
   143   72   73 2    
   144   72   74 am   BACKBONE|DICT|INTERRES
   145   74   75 1    
   146   74  195 1    
   147   75   76 1    
   148   75   77 1    
   149   75  196 1    
   150   76  197 1    
   151   76  198 1    
   152   76  199 1    
   153   77   78 2    
   154   77   79 am   BACKBONE|DICT|INTERRES
   155   79   80 1    
   156   79  200 1    
   157   80   81 1    
   158   80   82 1    
   159   80  201 1    
   160   81  202 1    
   161   81  203 1    
   162   81  204 1    
   163   82   83 2    
   164   82   84 am   BACKBONE|DICT|INTERRES
   165   84   85 1    
   166   84  205 1    
   167   85   86 1    
   168   85   87 1    
   169   85  206 1    
   170   86  207 1    
   171   86  208 1    
   172   86  209 1    
   173   87   88 2    
   174   87   89 am   BACKBONE|DICT|INTERRES
   175   89   90 1    
   176   89  210 1    
   177   90   91 1    
   178   90   92 1    
   179   90  211 1    
   180   91  212 1    
   181   91  213 1    
   182   91  214 1    
   183   92   93 2    
   184   92   94 am   BACKBONE|DICT|INTERRES
   185   94   95 1    
   186   94  215 1    
   187   95   96 1    
   188   95   97 1    
   189   95  216 1    
   190   96  217 1    
   191   96  218 1    
   192   96  219 1    
   193   97   98 2    
   194   97   99 am   BACKBONE|DICT|INTERRES
   195   99  100 1    
   196   99  220 1    
   197  100  101 1    
   198  100  102 1    
   199  100  221 1    
   200  101  222 1    
   201  101  223 1    
   202  101  224 1    
   203  102  103 2    
   204  102  104 am   BACKBONE|DICT|INTERRES
   205  104  105 1    
   206  104  225 1    
   207  105  106 1    
   208  105  107 1    
   209  105  226 1    
   210  106  227 1    
   211  106  228 1    
   212  106  229 1    
   213  107  108 2    
   214  107  109 am   BACKBONE|DICT|INTERRES
   215  109  110 1    
   216  109  230 1    
   217  110  111 1    
   218  110  112 1    
   219  110  231 1    
   220  111  232 1    
   221  111  233 1    
   222  111  234 1    
   223  112  113 2    
   224  112  114 am   BACKBONE|DICT|INTERRES
   225  114  115 1    
   226  114  235 1    
   227  115  116 1    
   228  115  117 1    
   229  115  236 1    
   230  116  237 1    
   231  116  238 1    
   232  116  239 1    
   233  117  118 2    
   234  117  119 am   BACKBONE|DICT|INTERRES
   235  119  120 1    
   236  119  240 1    
   237  120  121 1    
   238  120  124 1    
   239  120  241 1    
   240  121  122 am   BACKBONE|DICT|INTERRES
   241  121  123 2    
   242  122  242 1    
   243  122  243 1    
   244  124  125 1    
   245  124  244 1    
   246  124  245 1    
   247  125  126 1    
   248  126  246 1    
   249  126  247 1    
@<TRIPOS>SUBSTRUCTURE
     1 UNK         1 GROUP             0       ****    0 ROOT    
