@<TRIPOS>MOLECULE
3R540
247   249    1
SMALL
USER_CHARGES


@<TRIPOS>ATOM
      1 CA          4.4493  -11.0407  -48.7556 C.3       0 UNK        -0.1800 
      2 C           3.2363  -11.6596  -48.0764 C.2       0 UNK         0.5000 
      3 O           3.3762  -12.2993  -47.0339 O.2       0 UNK        -0.5000 
      4 N           2.0442  -11.4643  -48.6530 N.am      1 UNK        -0.5000 
      5 CA          0.7577  -11.9834  -48.1713 C.3       1 UNK         0.1400 
      6 C6         -0.2696  -12.1214  -49.3259 C.3       23 UNK        -0.0398 
      7 S7          0.1481  -13.4977  -50.4493 S.3       23 UNK        -0.2404 
      8 C8         -0.9515  -14.7726  -49.7614 C.3       23 UNK        -0.0205 
      9 C9         -0.7584  -16.1283  -50.4197 C.ar      23 UNK        -0.0193 
     10 C10        -1.6394  -16.5638  -51.4143 C.ar      23 UNK        -0.1150 
     11 C11        -1.5191  -17.8469  -51.9561 C.ar      23 UNK        -0.0193 
     12 C12        -0.5088  -18.6936  -51.4933 C.ar      23 UNK        -0.1150 
     13 C13         0.3725  -18.2771  -50.4912 C.ar      23 UNK        -0.0193 
     14 C14         0.2588  -16.9794  -49.9792 C.ar      23 UNK        -0.1150 
     15 C15         1.3991  -19.2638  -49.9371 C.3       23 UNK        -0.0205 
     16 S16         1.5467  -19.2698  -48.1111 S.3       23 UNK        -0.2404 
     17 C17        -0.1872  -19.2677  -47.5363 C.3       23 UNK        -0.0398 
     18 CA         -0.6861  -20.6251  -46.9985 C.3       11 UNK         0.1400 
     19 N           0.1014  -21.1246  -45.8685 N.am      11 UNK        -0.5000 
     20 C          -0.0859  -22.2952  -45.2424 C.2       10 UNK         0.5000 
     21 O          -0.9157  -23.1300  -45.6102 O.2       10 UNK        -0.5000 
     22 CA          0.7173  -22.5342  -43.9467 C.3       10 UNK         0.1400 
     23 CB          1.1429  -24.0065  -43.7758 C.3       10 UNK        -0.1800 
     24 N           1.8483  -21.6149  -43.7714 N.am      10 UNK        -0.5000 
     25 C           2.9793  -21.5524  -44.4910 C.2       9 UNK         0.5000 
     26 O           3.2522  -22.3282  -45.4072 O.2       9 UNK        -0.5000 
     27 CA          3.9662  -20.4146  -44.1572 C.3       9 UNK         0.1400 
     28 CB          4.0475  -19.4185  -45.3244 C.3       9 UNK        -0.1800 
     29 N           3.6236  -19.6771  -42.9388 N.am      9 UNK        -0.5000 
     30 C           3.8438  -20.1110  -41.6912 C.2       8 UNK         0.5000 
     31 O           4.3877  -21.1837  -41.4269 O.2       8 UNK        -0.5000 
     32 CA          3.3502  -19.2058  -40.5468 C.3       8 UNK         0.1400 
     33 CB          4.3791  -18.1050  -40.2477 C.3       8 UNK        -0.1800 
     34 N           2.0425  -18.5949  -40.8033 N.am      8 UNK        -0.5000 
     35 C           0.8936  -19.2734  -40.9417 C.2       7 UNK         0.5000 
     36 O           0.8148  -20.5014  -40.9038 O.2       7 UNK        -0.5000 
     37 CA         -0.3772  -18.4445  -41.2025 C.3       7 UNK         0.1400 
     38 CB         -0.8553  -17.7399  -39.9242 C.3       7 UNK        -0.1800 
     39 N          -0.1800  -17.4630  -42.2668 N.am      7 UNK        -0.5000 
     40 C           0.0014  -17.7837  -43.5546 C.2       6 UNK         0.5000 
     41 O          -0.0885  -18.9321  -43.9887 O.2       6 UNK        -0.5000 
     42 CA          0.3718  -16.6430  -44.5185 C.3       6 UNK         0.1400 
     43 CB         -0.8912  -15.9725  -45.0788 C.3       6 UNK        -0.1800 
     44 N           1.2341  -15.6342  -43.9060 N.am      6 UNK        -0.5000 
     45 C           2.4767  -15.8634  -43.4594 C.2       5 UNK         0.5000 
     46 O           3.0404  -16.9538  -43.5312 O.2       5 UNK        -0.5000 
     47 CA          3.1868  -14.6927  -42.7629 C.3       5 UNK         0.1400 
     48 CB          3.7405  -13.6943  -43.7897 C.3       5 UNK        -0.1800 
     49 N           2.3038  -14.0038  -41.8226 N.am      5 UNK        -0.5000 
     50 C           1.8424  -14.5437  -40.6856 C.2       4 UNK         0.5000 
     51 O           2.1309  -15.6759  -40.2983 O.2       4 UNK        -0.5000 
     52 CA          0.8638  -13.6862  -39.8640 C.3       4 UNK         0.1400 
     53 CB          1.6270  -12.6952  -38.9727 C.3       4 UNK        -0.1800 
     54 N          -0.0822  -12.9538  -40.7071 N.am      4 UNK        -0.5000 
     55 C          -1.0464  -13.5333  -41.4356 C.2       3 UNK         0.5000 
     56 O          -1.2516  -14.7469  -41.4597 O.2       3 UNK        -0.5000 
     57 CA         -1.8891  -12.5993  -42.3244 C.3       3 UNK         0.1400 
     58 CB         -2.9993  -11.9249  -41.5046 C.3       3 UNK        -0.1800 
     59 N          -1.0987  -11.5738  -43.0163 N.am      3 UNK        -0.5000 
     60 C          -0.1178  -11.8421  -43.8873 C.2       2 UNK         0.5000 
     61 O           0.2771  -12.9837  -44.1339 O.2       2 UNK        -0.5000 
     62 CA          0.5569  -10.6470  -44.5824 C.3       2 UNK         0.1400 
     63 CB          1.7667  -10.1612  -43.7701 C.3       2 UNK        -0.1800 
     64 N           1.0072  -11.0591  -45.9103 N.am      2 UNK        -0.5000 
     65 C           0.2095  -11.1631  -46.9790 C.2       1 UNK         0.5000 
     66 O          -0.9158  -10.6622  -47.0294 O.2       1 UNK        -0.5000 
     67 C          -2.1749  -20.4893  -46.6290 C.2       11 UNK         0.5000 
     68 O          -3.0298  -20.7605  -47.4669 O.2       11 UNK        -0.5000 
     69 N          -2.4536  -20.1116  -45.3725 N.am      12 UNK        -0.5000 
     70 CA         -3.7976  -19.9997  -44.8038 C.3       12 UNK         0.1400 
     71 CB         -3.6852  -19.4524  -43.3727 C.3       12 UNK        -0.1800 
     72 C          -4.5918  -21.3231  -44.8202 C.2       12 UNK         0.5000 
     73 O          -5.8166  -21.2878  -44.9402 O.2       12 UNK        -0.5000 
     74 N          -3.8851  -22.4583  -44.7225 N.am      13 UNK        -0.5000 
     75 CA         -4.4534  -23.7970  -44.8671 C.3       13 UNK         0.1400 
     76 CB         -3.6416  -24.7924  -44.0231 C.3       13 UNK        -0.1800 
     77 C          -4.4836  -24.2261  -46.3439 C.2       13 UNK         0.5000 
     78 O          -5.5034  -24.7370  -46.8089 O.2       13 UNK        -0.5000 
     79 N          -3.3726  -23.9948  -47.0604 N.am      14 UNK        -0.5000 
     80 CA         -3.1825  -24.3720  -48.4648 C.3       14 UNK         0.1400 
     81 CB         -1.7188  -24.1260  -48.8563 C.3       14 UNK        -0.1800 
     82 C          -4.1348  -23.6568  -49.4445 C.2       14 UNK         0.5000 
     83 O          -4.4406  -24.2085  -50.5038 O.2       14 UNK        -0.5000 
     84 N          -4.6173  -22.4637  -49.0676 N.am      15 UNK        -0.5000 
     85 CA         -5.5848  -21.6354  -49.7929 C.3       15 UNK         0.1400 
     86 CB         -5.8630  -20.3551  -48.9907 C.3       15 UNK        -0.1800 
     87 C          -6.9092  -22.3413  -50.1437 C.2       15 UNK         0.5000 
     88 O          -7.5536  -21.9443  -51.1143 O.2       15 UNK        -0.5000 
     89 N          -7.2597  -23.4103  -49.4128 N.am      16 UNK        -0.5000 
     90 CA         -8.3748  -24.3124  -49.7192 C.3       16 UNK         0.1400 
     91 CB         -8.5001  -25.3469  -48.5910 C.3       16 UNK        -0.1800 
     92 C          -8.2459  -25.0198  -51.0874 C.2       16 UNK         0.5000 
     93 O          -9.2649  -25.3724  -51.6821 O.2       16 UNK        -0.5000 
     94 N          -7.0068  -25.1843  -51.5697 N.am      17 UNK        -0.5000 
     95 CA         -6.6606  -25.6914  -52.8983 C.3       17 UNK         0.1400 
     96 CB         -5.8082  -26.9611  -52.7252 C.3       17 UNK        -0.1800 
     97 C          -5.9146  -24.6188  -53.7208 C.2       17 UNK         0.5000 
     98 O          -5.2071  -24.9624  -54.6700 O.2       17 UNK        -0.5000 
     99 N          -6.0317  -23.3416  -53.3158 N.am      18 UNK        -0.5000 
    100 CA        -5.3409  -22.1614  -53.8582 C.3       18 UNK         0.1400 
    101 CB        -5.8733  -21.8371  -55.2676 C.3       18 UNK        -0.1800 
    102 C         -3.7996  -22.2799  -53.8262 C.2       18 UNK         0.5000 
    103 O         -3.1156  -21.6869  -54.6638 O.2       18 UNK        -0.5000 
    104 N         -3.2836  -23.1070  -52.9031 N.am      19 UNK        -0.5000 
    105 CA        -1.8936  -23.5566  -52.7650 C.3       19 UNK         0.1400 
    106 CB        -1.0081  -22.3913  -52.2854 C.3       19 UNK        -0.1800 
    107 C         -1.3186  -24.2500  -54.0218 C.2       19 UNK         0.5000 
    108 O         -0.0987  -24.3739  -54.1379 O.2       19 UNK        -0.5000 
    109 N         -2.2004  -24.6566  -54.9514 N.am      20 UNK        -0.5000 
    110 CA        -1.9150  -25.1080  -56.3170 C.3       20 UNK         0.1400 
    111 CB        -1.2464  -26.4981  -56.2976 C.3       20 UNK        -0.1800 
    112 C         -1.1254  -24.0701  -57.1523 C.2       20 UNK         0.5000 
    113 O         -0.3867  -24.4568  -58.0604 O.2       20 UNK        -0.5000 
    114 N         -1.2759  -22.7778  -56.8230 N.am      21 UNK        -0.5000 
    115 CA        -0.4735  -21.6842  -57.3722 C.3       21 UNK         0.1400 
    116 CB         0.6361  -21.3211  -56.3709 C.3       21 UNK        -0.1800 
    117 C         -1.3192  -20.4488  -57.7108 C.2       21 UNK         0.5000 
    118 O         -1.0852  -19.8306  -58.7503 O.2       21 UNK        -0.5000 
    119 N         -2.2800  -20.1051  -56.8445 N.am      22 UNK        -0.5000 
    120 CA        -3.1494  -18.9253  -56.9935 C.3       22 UNK         0.1400 
    121 C         -4.4120  -19.1722  -57.8720 C.2       22 UNK         0.5000 
    122 N         -4.6509  -20.3766  -58.3768 N.am      22 UNK        -0.7600 
    123 O         -5.1850  -18.2489  -58.1128 O.2       22 UNK        -0.5000 
    124 C124       -3.5258  -18.3123  -55.6195 C.3       23 UNK        -0.0398 
    125 S125       -2.0676  -17.7590  -54.6676 S.3       23 UNK        -0.2404 
    126 C126       -2.5109  -18.3347  -53.0017 C.3       23 UNK        -0.0205 
    127 H127        4.9393  -10.3391  -48.0805 H         1 UNK         0.0600 
    128 H128        5.1664  -11.8173  -49.0214 H         1 UNK         0.0600 
    129 H129        4.1758  -10.5044  -49.6646 H         1 UNK         0.0600 
    130 H130        1.9966  -10.9136  -49.4983 H         1 UNK         0.3000 
    131 H131        0.9270  -12.9859  -47.7710 H         1 UNK         0.0600 
    132 H132       -0.3268  -11.1971  -49.9027 H         1 UNK         0.0800 
    133 H133       -1.2777  -12.2934  -48.9443 H         1 UNK         0.0800 
    134 H134       -1.9884  -14.4498  -49.8695 H         1 UNK         0.0800 
    135 H135       -0.7712  -14.8651  -48.6890 H         1 UNK         0.0800 
    136 H136       -2.4328  -15.9126  -51.7537 H         1 UNK         0.1150 
    137 H137       -0.4237  -19.6898  -51.8987 H         1 UNK         0.1150 
    138 H138        0.9305  -16.6479  -49.1999 H         1 UNK         0.1150 
    139 H139        1.1558  -20.2792  -50.2544 H         1 UNK         0.0800 
    140 H140        2.3743  -19.0332  -50.3672 H         1 UNK         0.0800 
    141 H141       -0.8458  -18.9348  -48.3378 H         1 UNK         0.0800 
    142 H142       -0.2695  -18.5043  -46.7640 H         1 UNK         0.0800 
    143 H143       -0.6054  -21.3577  -47.8016 H         1 UNK         0.0600 
    144 H144        0.7426  -20.4656  -45.4491 H         1 UNK         0.3000 
    145 H145        0.0296  -22.3016  -43.1326 H         1 UNK         0.0600 
    146 H146        1.7068  -24.1496  -42.8541 H         1 UNK         0.0600 
    147 H147        0.2714  -24.6605  -43.7267 H         1 UNK         0.0600 
    148 H148        1.7592  -24.3521  -44.6059 H         1 UNK         0.0600 
    149 H149        1.7265  -20.9269  -43.0392 H         1 UNK         0.3000 
    150 H150        4.9515  -20.8668  -44.0271 H         1 UNK         0.0600 
    151 H151        4.3231  -19.9179  -46.2541 H         1 UNK         0.0600 
    152 H152        4.7963  -18.6492  -45.1349 H         1 UNK         0.0600 
    153 H153        3.0919  -18.9198  -45.4898 H         1 UNK         0.0600 
    154 H154        3.2299  -18.7474  -43.0713 H         1 UNK         0.3000 
    155 H155        3.2535  -19.8284  -39.6550 H         1 UNK         0.0600 
    156 H156        4.4883  -17.4184  -41.0879 H         1 UNK         0.0600 
    157 H157        5.3613  -18.5317  -40.0408 H         1 UNK         0.0600 
    158 H158        4.0882  -17.5208  -39.3746 H         1 UNK         0.0600 
    159 H159        2.0186  -17.5796  -40.8267 H         1 UNK         0.3000 
    160 H160       -1.1635  -19.1332  -41.5175 H         1 UNK         0.0600 
    161 H161       -1.7987  -17.2201  -40.0929 H         1 UNK         0.0600 
    162 H162       -0.1309  -17.0072  -39.5686 H         1 UNK         0.0600 
    163 H163       -1.0187  -18.4583  -39.1201 H         1 UNK         0.0600 
    164 H164       -0.1622  -16.4866  -41.9954 H         1 UNK         0.3000 
    165 H165        0.9267  -17.0819  -45.3496 H         1 UNK         0.0600 
    166 H166       -0.6388  -15.2301  -45.8363 H         1 UNK         0.0600 
    167 H167       -1.5527  -16.7037  -45.5451 H         1 UNK         0.0600 
    168 H168       -1.4580  -15.4693  -44.2945 H         1 UNK         0.0600 
    169 H169        0.8569  -14.6904  -43.8431 H         1 UNK         0.3000 
    170 H170        4.0292  -15.0997  -42.1994 H         1 UNK         0.0600 
    171 H171        4.4398  -14.1834  -44.4690 H         1 UNK         0.0600 
    172 H172        2.9494  -13.2590  -44.4000 H         1 UNK         0.0600 
    173 H173        4.2772  -12.8805  -43.3022 H         1 UNK         0.0600 
    174 H174        1.9722  -13.0910  -42.0942 H         1 UNK         0.3000 
    175 H175        0.2951  -14.3581  -39.2176 H         1 UNK         0.0600 
    176 H176        0.9453  -12.1369  -38.3309 H         1 UNK         0.0600 
    177 H177        2.3295  -13.2179  -38.3220 H         1 UNK         0.0600 
    178 H178        2.1978  -11.9769  -39.5625 H         1 UNK         0.0600 
    179 H179        0.0202  -11.9506  -40.7505 H         1 UNK         0.3000 
    180 H180       -2.3628  -13.2194  -43.0885 H         1 UNK         0.0600 
    181 H181       -2.5920  -11.2544  -40.7470 H         1 UNK         0.0600 
    182 H182       -3.6113  -12.6677  -40.9911 H         1 UNK         0.0600 
    183 H183       -3.6647  -11.3446  -42.1442 H         1 UNK         0.0600 
    184 H184       -1.3632  -10.6130  -42.8523 H         1 UNK         0.3000 
    185 H185       -0.1606   -9.8287  -44.6733 H         1 UNK         0.0600 
    186 H186        2.5146  -10.9445  -43.6467 H         1 UNK         0.0600 
    187 H187        2.2501   -9.3136  -44.2563 H         1 UNK         0.0600 
    188 H188        1.4646   -9.8348  -42.7742 H         1 UNK         0.0600 
    189 H189        1.9082  -11.5244  -45.9615 H         1 UNK         0.3000 
    190 H190       -1.6762  -19.8772  -44.7625 H         1 UNK         0.3000 
    191 H191       -4.3516  -19.2773  -45.4067 H         1 UNK         0.0600 
    192 H192       -3.1191  -20.1272  -42.7297 H         1 UNK         0.0600 
    193 H193       -4.6713  -19.3216  -42.9253 H         1 UNK         0.0600 
    194 H194       -3.1908  -18.4807  -43.3581 H         1 UNK         0.0600 
    195 H195       -2.8777  -22.3990  -44.6705 H         1 UNK         0.3000 
    196 H196       -5.4795  -23.8019  -44.4929 H         1 UNK         0.0600 
    197 H197       -4.0581  -25.7975  -44.1003 H         1 UNK         0.0600 
    198 H198       -3.6550  -24.5155  -42.9688 H         1 UNK         0.0600 
    199 H199       -2.6000  -24.8445  -44.3413 H         1 UNK         0.0600 
    200 H200       -2.5667  -23.5938  -46.5907 H         1 UNK         0.3000 
    201 H201       -3.3791  -25.4433  -48.5407 H         1 UNK         0.0600 
    202 H202       -1.0316  -24.5137  -48.1038 H         1 UNK         0.0600 
    203 H203       -1.5111  -23.0650  -48.9889 H         1 UNK         0.0600 
    204 H204       -1.4789  -24.6276  -49.7923 H         1 UNK         0.0600 
    205 H205       -4.2229  -22.0424  -48.2309 H         1 UNK         0.3000 
    206 H206       -5.1164  -21.3485  -50.7357 H         1 UNK         0.0600 
    207 H207       -4.9696  -19.7359  -48.9148 H         1 UNK         0.0600 
    208 H208       -6.6312  -19.7463  -49.4695 H         1 UNK         0.0600 
    209 H209       -6.2033  -20.5814  -47.9793 H         1 UNK         0.0600 
    210 H210       -6.6665  -23.6766  -48.6370 H         1 UNK         0.3000 
    211 H211       -9.2886  -23.7155  -49.7430 H         1 UNK         0.0600 
    212 H212       -7.6010  -25.9589  -48.5069 H         1 UNK         0.0600 
    213 H213       -9.3411  -26.0189  -48.7666 H         1 UNK         0.0600 
    214 H214       -8.6660  -24.8631  -47.6282 H         1 UNK         0.0600 
    215 H215       -6.2200  -24.8621  -51.0130 H         1 UNK         0.3000 
    216 H216       -7.5595  -25.9518  -53.4600 H         1 UNK         0.0600 
    217 H217       -5.5699  -27.4126  -53.6890 H         1 UNK         0.0600 
    218 H218       -6.3373  -27.7127  -52.1393 H         1 UNK         0.0600 
    219 H219       -4.8661  -26.7442  -52.2195 H         1 UNK         0.0600 
    220 H220       -6.6583  -23.1493  -52.5425 H         1 UNK         0.3000 
    221 H221       -5.5966  -21.3252  -53.2067 H         1 UNK         0.0600 
    222 H222       -5.5686  -22.5859  -55.9993 H         1 UNK         0.0600 
    223 H223       -6.9619  -21.7837  -55.2757 H         1 UNK         0.0600 
    224 H224       -5.5038  -20.8730  -55.6133 H         1 UNK         0.0600 
    225 H225       -3.9265  -23.5441  -52.2492 H         1 UNK         0.3000 
    226 H226       -1.9026  -24.3201  -51.9889 H         1 UNK         0.0600 
    227 H227       -1.4354  -21.9071  -51.4071 H         1 UNK         0.0600 
    228 H228       -0.0118  -22.7393  -52.0110 H         1 UNK         0.0600 
    229 H229       -0.8893  -21.6386  -53.0651 H         1 UNK         0.0600 
    230 H230       -3.1879  -24.5515  -54.7412 H         1 UNK         0.3000 
    231 H231       -2.8838  -25.2142  -56.8069 H         1 UNK         0.0600 
    232 H232       -1.8283  -27.2062  -55.7076 H         1 UNK         0.0600 
    233 H233       -0.2409  -26.4578  -55.8780 H         1 UNK         0.0600 
    234 H234       -1.1645  -26.9082  -57.3047 H         1 UNK         0.0600 
    235 H235       -1.9150  -22.5396  -56.0724 H         1 UNK         0.3000 
    236 H236        0.0010  -21.9991  -58.3039 H         1 UNK         0.0600 
    237 H237        1.2548  -20.5061  -56.7487 H         1 UNK         0.0600 
    238 H238        0.2232  -21.0052  -55.4118 H         1 UNK         0.0600 
    239 H239        1.2929  -22.1714  -56.1865 H         1 UNK         0.0600 
    240 H240       -2.4413  -20.6615  -56.0088 H         1 UNK         0.3000 
    241 H241       -2.5858  -18.1582  -57.5280 H         1 UNK         0.0600 
    242 H242       -5.4663  -20.5226  -58.9507 H         1 UNK         0.3800 
    243 H243       -4.0171  -21.1383  -58.1986 H         1 UNK         0.3800 
    244 H244       -4.1739  -17.4438  -55.7487 H         1 UNK         0.0800 
    245 H245       -4.0961  -19.0322  -55.0318 H         1 UNK         0.0800 
    246 H246       -3.5107  -17.9789  -52.7479 H         1 UNK         0.0800 
    247 H247       -2.5602  -19.4248  -52.9995 H         1 UNK         0.0800 
@<TRIPOS>BOND
     1    1    2 1    
     2    1  127 1    
     3    1  128 1    
     4    1  129 1    
     5    2    3 2    
     6    2    4 am   BACKBONE|DICT|INTERRES
     7    4    5 1    
     8    4  130 1    
     9    5    6 1    
    10    5   65 1    
    11    5  131 1    
    12    6    7 1    
    13    6  132 1    
    14    6  133 1    
    15    7    8 1    
    16    8    9 1    
    17    8  134 1    
    18    8  135 1    
    19    9   10 ar   
    20    9   14 ar   
    21   10   11 ar   
    22   10  136 1    
    23   11   12 ar   
    24   11  126 1    
    25   12   13 ar   
    26   12  137 1    
    27   13   14 ar   
    28   13   15 1    
    29   14  138 1    
    30   15   16 1    
    31   15  139 1    
    32   15  140 1    
    33   16   17 1    
    34   17   18 1    
    35   17  141 1    
    36   17  142 1    
    37   18   19 1    
    38   18   67 1    
    39   18  143 1    
    40   19   20 am   BACKBONE|DICT|INTERRES
    41   19  144 1    
    42   20   21 2    
    43   20   22 1    
    44   22   23 1    
    45   22   24 1    
    46   22  145 1    
    47   23  146 1    
    48   23  147 1    
    49   23  148 1    
    50   24   25 am   BACKBONE|DICT|INTERRES
    51   24  149 1    
    52   25   26 2    
    53   25   27 1    
    54   27   28 1    
    55   27   29 1    
    56   27  150 1    
    57   28  151 1    
    58   28  152 1    
    59   28  153 1    
    60   29   30 am   BACKBONE|DICT|INTERRES
    61   29  154 1    
    62   30   31 2    
    63   30   32 1    
    64   32   33 1    
    65   32   34 1    
    66   32  155 1    
    67   33  156 1    
    68   33  157 1    
    69   33  158 1    
    70   34   35 am   BACKBONE|DICT|INTERRES
    71   34  159 1    
    72   35   36 2    
    73   35   37 1    
    74   37   38 1    
    75   37   39 1    
    76   37  160 1    
    77   38  161 1    
    78   38  162 1    
    79   38  163 1    
    80   39   40 am   BACKBONE|DICT|INTERRES
    81   39  164 1    
    82   40   41 2    
    83   40   42 1    
    84   42   43 1    
    85   42   44 1    
    86   42  165 1    
    87   43  166 1    
    88   43  167 1    
    89   43  168 1    
    90   44   45 am   BACKBONE|DICT|INTERRES
    91   44  169 1    
    92   45   46 2    
    93   45   47 1    
    94   47   48 1    
    95   47   49 1    
    96   47  170 1    
    97   48  171 1    
    98   48  172 1    
    99   48  173 1    
   100   49   50 am   BACKBONE|DICT|INTERRES
   101   49  174 1    
   102   50   51 2    
   103   50   52 1    
   104   52   53 1    
   105   52   54 1    
   106   52  175 1    
   107   53  176 1    
   108   53  177 1    
   109   53  178 1    
   110   54   55 am   BACKBONE|DICT|INTERRES
   111   54  179 1    
   112   55   56 2    
   113   55   57 1    
   114   57   58 1    
   115   57   59 1    
   116   57  180 1    
   117   58  181 1    
   118   58  182 1    
   119   58  183 1    
   120   59   60 am   BACKBONE|DICT|INTERRES
   121   59  184 1    
   122   60   61 2    
   123   60   62 1    
   124   62   63 1    
   125   62   64 1    
   126   62  185 1    
   127   63  186 1    
   128   63  187 1    
   129   63  188 1    
   130   64   65 am   BACKBONE|DICT|INTERRES
   131   64  189 1    
   132   65   66 2    
   133   67   68 2    
   134   67   69 am   BACKBONE|DICT|INTERRES
   135   69   70 1    
   136   69  190 1    
   137   70   71 1    
   138   70   72 1    
   139   70  191 1    
   140   71  192 1    
   141   71  193 1    
   142   71  194 1    
   143   72   73 2    
   144   72   74 am   BACKBONE|DICT|INTERRES
   145   74   75 1    
   146   74  195 1    
   147   75   76 1    
   148   75   77 1    
   149   75  196 1    
   150   76  197 1    
   151   76  198 1    
   152   76  199 1    
   153   77   78 2    
   154   77   79 am   BACKBONE|DICT|INTERRES
   155   79   80 1    
   156   79  200 1    
   157   80   81 1    
   158   80   82 1    
   159   80  201 1    
   160   81  202 1    
   161   81  203 1    
   162   81  204 1    
   163   82   83 2    
   164   82   84 am   BACKBONE|DICT|INTERRES
   165   84   85 1    
   166   84  205 1    
   167   85   86 1    
   168   85   87 1    
   169   85  206 1    
   170   86  207 1    
   171   86  208 1    
   172   86  209 1    
   173   87   88 2    
   174   87   89 am   BACKBONE|DICT|INTERRES
   175   89   90 1    
   176   89  210 1    
   177   90   91 1    
   178   90   92 1    
   179   90  211 1    
   180   91  212 1    
   181   91  213 1    
   182   91  214 1    
   183   92   93 2    
   184   92   94 am   BACKBONE|DICT|INTERRES
   185   94   95 1    
   186   94  215 1    
   187   95   96 1    
   188   95   97 1    
   189   95  216 1    
   190   96  217 1    
   191   96  218 1    
   192   96  219 1    
   193   97   98 2    
   194   97   99 am   BACKBONE|DICT|INTERRES
   195   99  100 1    
   196   99  220 1    
   197  100  101 1    
   198  100  102 1    
   199  100  221 1    
   200  101  222 1    
   201  101  223 1    
   202  101  224 1    
   203  102  103 2    
   204  102  104 am   BACKBONE|DICT|INTERRES
   205  104  105 1    
   206  104  225 1    
   207  105  106 1    
   208  105  107 1    
   209  105  226 1    
   210  106  227 1    
   211  106  228 1    
   212  106  229 1    
   213  107  108 2    
   214  107  109 am   BACKBONE|DICT|INTERRES
   215  109  110 1    
   216  109  230 1    
   217  110  111 1    
   218  110  112 1    
   219  110  231 1    
   220  111  232 1    
   221  111  233 1    
   222  111  234 1    
   223  112  113 2    
   224  112  114 am   BACKBONE|DICT|INTERRES
   225  114  115 1    
   226  114  235 1    
   227  115  116 1    
   228  115  117 1    
   229  115  236 1    
   230  116  237 1    
   231  116  238 1    
   232  116  239 1    
   233  117  118 2    
   234  117  119 am   BACKBONE|DICT|INTERRES
   235  119  120 1    
   236  119  240 1    
   237  120  121 1    
   238  120  124 1    
   239  120  241 1    
   240  121  122 am   BACKBONE|DICT|INTERRES
   241  121  123 2    
   242  122  242 1    
   243  122  243 1    
   244  124  125 1    
   245  124  244 1    
   246  124  245 1    
   247  125  126 1    
   248  126  246 1    
   249  126  247 1    
@<TRIPOS>SUBSTRUCTURE
     1 UNK         1 GROUP             0       ****    0 ROOT    
