@<TRIPOS>MOLECULE
3R540
247   249    1
SMALL
USER_CHARGES


@<TRIPOS>ATOM
      1 CA          7.4002  -14.8476  -50.1861 C.3       0 UNK        -0.1800 
      2 C           6.0638  -14.2059  -49.8417 C.2       0 UNK         0.5000 
      3 O           5.7694  -13.1125  -50.3259 O.2       0 UNK        -0.5000 
      4 N           5.2623  -14.8784  -49.0035 N.am      1 UNK        -0.5000 
      5 CA          3.9374  -14.4864  -48.5019 C.3       1 UNK         0.1400 
      6 C6          2.8760  -14.2953  -49.6297 C.3       23 UNK        -0.0398 
      7 S7          1.2489  -13.6236  -49.1235 S.3       23 UNK        -0.2404 
      8 C8          0.6052  -14.9242  -48.0285 C.3       23 UNK        -0.0205 
      9 C9          0.0790  -16.1168  -48.8079 C.ar      23 UNK        -0.0193 
     10 C10        -1.2628  -16.1591  -49.1910 C.ar      23 UNK        -0.1150 
     11 C11        -1.7879  -17.2698  -49.8565 C.ar      23 UNK        -0.0193 
     12 C12        -0.9331  -18.3365  -50.1700 C.ar      23 UNK        -0.1150 
     13 C13         0.4197  -18.2964  -49.8132 C.ar      23 UNK        -0.0193 
     14 C14         0.9161  -17.1900  -49.1199 C.ar      23 UNK        -0.1150 
     15 C15         1.3529  -19.4418  -50.1804 C.3       23 UNK        -0.0205 
     16 S16         1.6421  -20.5694  -48.7815 S.3       23 UNK        -0.2404 
     17 C17        -0.0064  -21.3208  -48.6184 C.3       23 UNK        -0.0398 
     18 CA         -0.0138  -22.5452  -47.6753 C.3       11 UNK         0.1400 
     19 N           0.1735  -22.1879  -46.2649 N.am      11 UNK        -0.5000 
     20 C           0.2968  -23.0734  -45.2645 C.2       10 UNK         0.5000 
     21 O           0.3031  -24.2930  -45.4277 O.2       10 UNK        -0.5000 
     22 CA          0.3653  -22.5134  -43.8332 C.3       10 UNK         0.1400 
     23 CB          1.7698  -21.9804  -43.5143 C.3       10 UNK        -0.1800 
     24 N          -0.6382  -21.4776  -43.5856 N.am      10 UNK        -0.5000 
     25 C          -1.9628  -21.6830  -43.6353 C.2       9 UNK         0.5000 
     26 O          -2.4763  -22.7790  -43.8560 O.2       9 UNK        -0.5000 
     27 CA         -2.8713  -20.4554  -43.4530 C.3       9 UNK         0.1400 
     28 CB         -3.0236  -20.1035  -41.9659 C.3       9 UNK        -0.1800 
     29 N          -2.3944  -19.2872  -44.1907 N.am      9 UNK        -0.5000 
     30 C          -2.2748  -19.2214  -45.5245 C.2       8 UNK         0.5000 
     31 O          -2.6000  -20.1304  -46.2899 O.2       8 UNK        -0.5000 
     32 CA         -1.6301  -17.9424  -46.0895 C.3       8 UNK         0.1400 
     33 CB         -2.6342  -16.7791  -46.0939 C.3       8 UNK        -0.1800 
     34 N          -0.4231  -17.5492  -45.3587 N.am      8 UNK        -0.5000 
     35 C           0.6719  -18.3158  -45.2457 C.2       7 UNK         0.5000 
     36 O           0.7928  -19.4191  -45.7736 O.2       7 UNK        -0.5000 
     37 CA          1.7928  -17.7989  -44.3301 C.3       7 UNK         0.1400 
     38 CB          2.6779  -16.7725  -45.0515 C.3       7 UNK        -0.1800 
     39 N           1.2592  -17.2255  -43.0951 N.am      7 UNK        -0.5000 
     40 C           0.6757  -17.9462  -42.1260 C.2       6 UNK         0.5000 
     41 O           0.5753  -19.1723  -42.1510 O.2       6 UNK        -0.5000 
     42 CA          0.0605  -17.1601  -40.9544 C.3       6 UNK         0.1400 
     43 CB          1.1335  -16.8088  -39.9132 C.3       6 UNK        -0.1800 
     44 N          -0.6093  -15.9359  -41.3944 N.am      6 UNK        -0.5000 
     45 C          -1.7036  -15.9049  -42.1688 C.2       5 UNK         0.5000 
     46 O          -2.2971  -16.9118  -42.5517 O.2       5 UNK        -0.5000 
     47 CA         -2.1875  -14.5178  -42.6295 C.3       5 UNK         0.1400 
     48 CB         -3.2002  -13.9400  -41.6301 C.3       5 UNK        -0.1800 
     49 N          -1.0893  -13.5660  -42.8149 N.am      5 UNK        -0.5000 
     50 C          -0.1384  -13.6804  -43.7507 C.2       4 UNK         0.5000 
     51 O          -0.0906  -14.6015  -44.5703 O.2       4 UNK        -0.5000 
     52 CA          0.9740  -12.6209  -43.7211 C.3       4 UNK         0.1400 
     53 CB          2.2919  -13.2280  -43.2163 C.3       4 UNK        -0.1800 
     54 N           1.1822  -12.0367  -45.0423 N.am      4 UNK        -0.5000 
     55 C           0.4006  -11.0845  -45.5732 C.2       3 UNK         0.5000 
     56 O          -0.5887  -10.6307  -44.9946 O.2       3 UNK        -0.5000 
     57 CA          0.7767  -10.5411  -46.9719 C.3       3 UNK         0.1400 
     58 CB          0.3999   -9.0560  -47.1550 C.3       3 UNK        -0.1800 
     59 N           2.1770  -10.7732  -47.3433 N.am      3 UNK        -0.5000 
     60 C           3.2827  -10.3160  -46.7337 C.2       2 UNK         0.5000 
     61 O           3.2667   -9.5098  -45.8024 O.2       2 UNK        -0.5000 
     62 CA          4.6330  -10.8778  -47.2410 C.3       2 UNK         0.1400 
     63 CB          5.6770  -10.9961  -46.1114 C.3       2 UNK        -0.1800 
     64 N           4.5189  -12.1556  -47.9604 N.am      2 UNK        -0.5000 
     65 C           4.0071  -13.3084  -47.5050 C.2       1 UNK         0.5000 
     66 O           3.5622  -13.4560  -46.3664 O.2       1 UNK        -0.5000 
     67 C          -1.2979  -23.3634  -47.8998 C.2       11 UNK         0.5000 
     68 O          -1.2496  -24.3657  -48.6136 O.2       11 UNK        -0.5000 
     69 N          -2.4056  -22.9387  -47.2759 N.am      12 UNK        -0.5000 
     70 CA         -3.6940  -23.6270  -47.3253 C.3       12 UNK         0.1400 
     71 CB         -4.7749  -22.7381  -46.6913 C.3       12 UNK        -0.1800 
     72 C          -3.6537  -25.0126  -46.6546 C.2       12 UNK         0.5000 
     73 O          -4.1669  -25.9741  -47.2268 O.2       12 UNK        -0.5000 
     74 N          -3.0250  -25.0966  -45.4733 N.am      13 UNK        -0.5000 
     75 CA         -2.8621  -26.3288  -44.6991 C.3       13 UNK         0.1400 
     76 CB         -2.3288  -25.9898  -43.2988 C.3       13 UNK        -0.1800 
     77 C          -1.9519  -27.3600  -45.3896 C.2       13 UNK         0.5000 
     78 O          -2.2774  -28.5479  -45.3975 O.2       13 UNK        -0.5000 
     79 N          -0.8394  -26.8897  -45.9693 N.am      14 UNK        -0.5000 
     80 CA          0.1138  -27.7111  -46.7187 C.3       14 UNK         0.1400 
     81 CB          1.4446  -26.9499  -46.8294 C.3       14 UNK        -0.1800 
     82 C          -0.3852  -28.0987  -48.1239 C.2       14 UNK         0.5000 
     83 O           0.1693  -29.0223  -48.7208 O.2       14 UNK        -0.5000 
     84 N          -1.3866  -27.3658  -48.6347 N.am      15 UNK        -0.5000 
     85 CA         -1.8983  -27.3885  -50.0090 C.3       15 UNK         0.1400 
     86 CB         -2.5672  -28.7392  -50.3375 C.3       15 UNK        -0.1800 
     87 C          -0.8173  -26.9711  -51.0299 C.2       15 UNK         0.5000 
     88 O          -0.7386  -27.5295  -52.1257 O.2       15 UNK        -0.5000 
     89 N           0.0056  -25.9893  -50.6358 N.am      16 UNK        -0.5000 
     90 CA          1.0830  -25.4134  -51.4423 C.3       16 UNK         0.1400 
     91 CB          2.0831  -24.7133  -50.5098 C.3       16 UNK        -0.1800 
     92 C           0.5560  -24.4270  -52.5005 C.2       16 UNK         0.5000 
     93 O           1.2360  -24.1795  -53.4970 O.2       16 UNK        -0.5000 
     94 N          -0.6466  -23.8944  -52.2671 N.am      17 UNK        -0.5000 
     95 CA         -1.4070  -23.0480  -53.1723 C.3       17 UNK         0.1400 
     96 CB         -1.0950  -21.5714  -52.8768 C.3       17 UNK        -0.1800 
     97 C          -2.8949  -23.3555  -52.9587 C.2       17 UNK         0.5000 
     98 O          -3.2625  -23.9228  -51.9245 O.2       17 UNK        -0.5000 
     99 N          -3.7264  -22.9666  -53.9316 N.am      18 UNK        -0.5000 
    100 CA        -5.1832  -23.0377  -53.8437 C.3       18 UNK         0.1400 
    101 CB        -5.7861  -22.8111  -55.2396 C.3       18 UNK        -0.1800 
    102 C         -5.6935  -21.9958  -52.8342 C.2       18 UNK         0.5000 
    103 O         -5.5752  -20.7977  -53.0967 O.2       18 UNK        -0.5000 
    104 N         -6.2068  -22.4729  -51.6925 N.am      19 UNK        -0.5000 
    105 CA        -6.6696  -21.6639  -50.5634 C.3       19 UNK         0.1400 
    106 CB        -7.1935  -22.5974  -49.4620 C.3       19 UNK        -0.1800 
    107 C         -7.7488  -20.6426  -50.9669 C.2       19 UNK         0.5000 
    108 O         -8.6476  -20.9778  -51.7425 O.2       19 UNK        -0.5000 
    109 N         -7.6132  -19.4118  -50.4562 N.am      20 UNK        -0.5000 
    110 CA        -8.3997  -18.2036  -50.7458 C.3       20 UNK         0.1400 
    111 CB        -9.8950  -18.3967  -50.4290 C.3       20 UNK        -0.1800 
    112 C         -8.1916  -17.6446  -52.1684 C.2       20 UNK         0.5000 
    113 O         -8.0452  -16.4309  -52.3191 O.2       20 UNK        -0.5000 
    114 N         -8.1298  -18.5228  -53.1787 N.am      21 UNK        -0.5000 
    115 CA        -7.8452  -18.2007  -54.5805 C.3       21 UNK         0.1400 
    116 CB        -8.0121  -19.4666  -55.4335 C.3       21 UNK        -0.1800 
    117 C         -6.4534  -17.5710  -54.7938 C.2       21 UNK         0.5000 
    118 O         -6.2857  -16.7683  -55.7129 O.2       21 UNK        -0.5000 
    119 N         -5.5012  -17.9078  -53.9153 N.am      22 UNK        -0.5000 
    120 CA        -4.1965  -17.2471  -53.7673 C.3       22 UNK         0.1400 
    121 C         -4.2459  -15.7565  -53.3102 C.2       22 UNK         0.5000 
    122 N         -5.3661  -15.2303  -52.8266 N.am      22 UNK        -0.7600 
    123 O         -3.2420  -15.0565  -53.4068 O.2       22 UNK        -0.5000 
    124 C124       -3.2267  -18.0827  -52.8878 C.3       23 UNK        -0.0398 
    125 S125       -3.9036  -18.5855  -51.2629 S.3       23 UNK        -0.2404 
    126 C126       -3.2871  -17.2683  -50.1614 C.3       23 UNK        -0.0205 
    127 H127        7.4734  -15.0061  -51.2620 H         1 UNK         0.0600 
    128 H128        7.5286  -15.8105  -49.6910 H         1 UNK         0.0600 
    129 H129        8.2186  -14.1959  -49.8800 H         1 UNK         0.0600 
    130 H130        5.6010  -15.7560  -48.6337 H         1 UNK         0.3000 
    131 H131        3.6127  -15.3449  -47.9130 H         1 UNK         0.0600 
    132 H132        3.2533  -13.6106  -50.3889 H         1 UNK         0.0800 
    133 H133        2.7185  -15.2387  -50.1523 H         1 UNK         0.0800 
    134 H134       -0.1954  -14.5001  -47.4205 H         1 UNK         0.0800 
    135 H135        1.3704  -15.2385  -47.3221 H         1 UNK         0.0800 
    136 H136       -1.9114  -15.3310  -48.9413 H         1 UNK         0.1150 
    137 H137       -1.3121  -19.2071  -50.6826 H         1 UNK         0.1150 
    138 H138        1.9544  -17.1693  -48.8215 H         1 UNK         0.1150 
    139 H139        2.3115  -19.0358  -50.5062 H         1 UNK         0.0800 
    140 H140        0.9596  -20.0029  -51.0291 H         1 UNK         0.0800 
    141 H141       -0.7086  -20.5627  -48.2676 H         1 UNK         0.0800 
    142 H142       -0.3316  -21.6052  -49.6212 H         1 UNK         0.0800 
    143 H143        0.8213  -23.1932  -47.9467 H         1 UNK         0.0600 
    144 H144        0.2314  -21.1936  -46.0540 H         1 UNK         0.3000 
    145 H145        0.1591  -23.3382  -43.1482 H         1 UNK         0.0600 
    146 H146        2.5232  -22.7543  -43.6660 H         1 UNK         0.0600 
    147 H147        1.8417  -21.6561  -42.4761 H         1 UNK         0.0600 
    148 H148        2.0368  -21.1355  -44.1483 H         1 UNK         0.0600 
    149 H149       -0.2903  -20.5521  -43.3577 H         1 UNK         0.3000 
    150 H150       -3.8580  -20.7125  -43.8435 H         1 UNK         0.0600 
    151 H151       -2.0744  -19.7996  -41.5241 H         1 UNK         0.0600 
    152 H152       -3.3928  -20.9583  -41.3979 H         1 UNK         0.0600 
    153 H153       -3.7333  -19.2881  -41.8252 H         1 UNK         0.0600 
    154 H154       -2.1485  -18.4710  -43.6367 H         1 UNK         0.3000 
    155 H155       -1.3344  -18.1520  -47.1182 H         1 UNK         0.0600 
    156 H156       -3.4805  -17.0016  -46.7442 H         1 UNK         0.0600 
    157 H157       -2.1762  -15.8585  -46.4542 H         1 UNK         0.0600 
    158 H158       -3.0321  -16.5822  -45.0992 H         1 UNK         0.0600 
    159 H159       -0.4278  -16.6365  -44.9172 H         1 UNK         0.3000 
    160 H160        2.4219  -18.6512  -44.0650 H         1 UNK         0.0600 
    161 H161        3.5400  -16.4991  -44.4432 H         1 UNK         0.0600 
    162 H162        2.1316  -15.8597  -45.2811 H         1 UNK         0.0600 
    163 H163        3.0568  -17.1749  -45.9918 H         1 UNK         0.0600 
    164 H164        1.2560  -16.2194  -43.0245 H         1 UNK         0.3000 
    165 H165       -0.6837  -17.8010  -40.4769 H         1 UNK         0.0600 
    166 H166        0.6940  -16.3184  -39.0444 H         1 UNK         0.0600 
    167 H167        1.6391  -17.7072  -39.5566 H         1 UNK         0.0600 
    168 H168        1.8949  -16.1449  -40.3248 H         1 UNK         0.0600 
    169 H169       -0.1915  -15.0604  -41.1171 H         1 UNK         0.3000 
    170 H170       -2.6899  -14.6440  -43.5906 H         1 UNK         0.0600 
    171 H171       -2.7497  -13.7690  -40.6516 H         1 UNK         0.0600 
    172 H172       -4.0412  -14.6206  -41.4901 H         1 UNK         0.0600 
    173 H173       -3.6066  -12.9923  -41.9839 H         1 UNK         0.0600 
    174 H174       -1.0648  -12.7785  -42.1830 H         1 UNK         0.3000 
    175 H175        0.6910  -11.8245  -43.0292 H         1 UNK         0.0600 
    176 H176        2.1736  -13.6488  -42.2172 H         1 UNK         0.0600 
    177 H177        2.6478  -14.0246  -43.8687 H         1 UNK         0.0600 
    178 H178        3.0757  -12.4722  -43.1609 H         1 UNK         0.0600 
    179 H179        1.9599  -12.4047  -45.5800 H         1 UNK         0.3000 
    180 H180        0.1793  -11.1161  -47.6804 H         1 UNK         0.0600 
    181 H181       -0.6746   -8.9074  -47.0423 H         1 UNK         0.0600 
    182 H182        0.6714   -8.6998  -48.1488 H         1 UNK         0.0600 
    183 H183        0.8950   -8.4181  -46.4224 H         1 UNK         0.0600 
    184 H184        2.3120  -11.4398  -48.0909 H         1 UNK         0.3000 
    185 H185        5.0080  -10.1536  -47.9653 H         1 UNK         0.0600 
    186 H186        5.8863  -10.0231  -45.6655 H         1 UNK         0.0600 
    187 H187        5.3347  -11.6549  -45.3126 H         1 UNK         0.0600 
    188 H188        6.6220  -11.3879  -46.4876 H         1 UNK         0.0600 
    189 H189        4.8876  -12.1665  -48.9083 H         1 UNK         0.3000 
    190 H190       -2.3687  -22.0789  -46.7363 H         1 UNK         0.3000 
    191 H191       -3.9515  -23.7753  -48.3764 H         1 UNK         0.0600 
    192 H192       -4.8763  -21.7970  -47.2322 H         1 UNK         0.0600 
    193 H193       -5.7475  -23.2311  -46.7071 H         1 UNK         0.0600 
    194 H194       -4.5447  -22.5017  -45.6523 H         1 UNK         0.0600 
    195 H195       -2.6674  -24.2454  -45.0463 H         1 UNK         0.3000 
    196 H196       -3.8484  -26.7829  -44.5838 H         1 UNK         0.0600 
    197 H197       -2.2032  -26.8914  -42.6980 H         1 UNK         0.0600 
    198 H198       -3.0171  -25.3357  -42.7635 H         1 UNK         0.0600 
    199 H199       -1.3615  -25.4884  -43.3477 H         1 UNK         0.0600 
    200 H200       -0.6071  -25.9040  -45.8695 H         1 UNK         0.3000 
    201 H201        0.2926  -28.6343  -46.1636 H         1 UNK         0.0600 
    202 H202        2.1965  -27.5451  -47.3489 H         1 UNK         0.0600 
    203 H203        1.8446  -26.7089  -45.8443 H         1 UNK         0.0600 
    204 H204        1.3268  -26.0158  -47.3807 H         1 UNK         0.0600 
    205 H205       -1.7447  -26.6138  -48.0605 H         1 UNK         0.3000 
    206 H206       -2.6708  -26.6191  -50.0554 H         1 UNK         0.0600 
    207 H207       -3.3175  -28.9978  -49.5903 H         1 UNK         0.0600 
    208 H208       -3.0720  -28.6978  -51.3032 H         1 UNK         0.0600 
    209 H209       -1.8434  -29.5531  -50.3833 H         1 UNK         0.0600 
    210 H210       -0.1937  -25.5402  -49.7468 H         1 UNK         0.3000 
    211 H211        1.6023  -26.2214  -51.9618 H         1 UNK         0.0600 
    212 H212        1.6357  -23.8496  -50.0187 H         1 UNK         0.0600 
    213 H213        2.9495  -24.3563  -51.0679 H         1 UNK         0.0600 
    214 H214        2.4494  -25.3907  -49.7382 H         1 UNK         0.0600 
    215 H215       -1.1690  -24.2005  -51.4549 H         1 UNK         0.3000 
    216 H216       -1.1476  -23.2838  -54.2066 H         1 UNK         0.0600 
    217 H217       -1.6009  -20.9182  -53.5872 H         1 UNK         0.0600 
    218 H218       -0.0269  -21.3685  -52.9553 H         1 UNK         0.0600 
    219 H219       -1.4202  -21.2862  -51.8759 H         1 UNK         0.0600 
    220 H220       -3.3524  -22.4807  -54.7334 H         1 UNK         0.3000 
    221 H221       -5.4692  -24.0372  -53.5087 H         1 UNK         0.0600 
    222 H222       -5.4925  -21.8467  -55.6560 H         1 UNK         0.0600 
    223 H223       -5.4677  -23.5867  -55.9363 H         1 UNK         0.0600 
    224 H224       -6.8759  -22.8356  -55.2014 H         1 UNK         0.0600 
    225 H225       -6.2505  -23.4731  -51.5671 H         1 UNK         0.3000 
    226 H226       -5.8009  -21.1263  -50.1773 H         1 UNK         0.0600 
    227 H227       -6.4324  -23.3151  -49.1563 H         1 UNK         0.0600 
    228 H228       -8.0678  -23.1588  -49.7945 H         1 UNK         0.0600 
    229 H229       -7.4835  -22.0319  -48.5755 H         1 UNK         0.0600 
    230 H230       -6.8170  -19.2490  -49.8555 H         1 UNK         0.3000 
    231 H231       -8.0218  -17.4441  -50.0594 H         1 UNK         0.0600 
    232 H232      -10.3717  -19.1046  -51.1072 H         1 UNK         0.0600 
    233 H233      -10.4332  -17.4524  -50.5191 H         1 UNK         0.0600 
    234 H234      -10.0393  -18.7572  -49.4105 H         1 UNK         0.0600 
    235 H235       -8.2573  -19.5038  -52.9493 H         1 UNK         0.3000 
    236 H236       -8.5868  -17.4691  -54.9071 H         1 UNK         0.0600 
    237 H237       -7.3202  -20.2494  -55.1253 H         1 UNK         0.0600 
    238 H238       -9.0240  -19.8645  -55.3557 H         1 UNK         0.0600 
    239 H239       -7.8242  -19.2570  -56.4873 H         1 UNK         0.0600 
    240 H240       -5.6981  -18.6447  -53.2474 H         1 UNK         0.3000 
    241 H241       -3.7601  -17.2162  -54.7674 H         1 UNK         0.0600 
    242 H242       -6.2175  -15.7748  -52.7429 H         1 UNK         0.3800 
    243 H243       -5.3714  -14.2623  -52.5480 H         1 UNK         0.3800 
    244 H244       -2.2733  -17.5692  -52.7517 H         1 UNK         0.0800 
    245 H245       -2.9847  -19.0014  -53.4217 H         1 UNK         0.0800 
    246 H246       -3.5719  -16.3001  -50.5733 H         1 UNK         0.0800 
    247 H247       -3.8188  -17.3603  -49.2139 H         1 UNK         0.0800 
@<TRIPOS>BOND
     1    1    2 1    
     2    1  127 1    
     3    1  128 1    
     4    1  129 1    
     5    2    3 2    
     6    2    4 am   BACKBONE|DICT|INTERRES
     7    4    5 1    
     8    4  130 1    
     9    5    6 1    
    10    5   65 1    
    11    5  131 1    
    12    6    7 1    
    13    6  132 1    
    14    6  133 1    
    15    7    8 1    
    16    8    9 1    
    17    8  134 1    
    18    8  135 1    
    19    9   10 ar   
    20    9   14 ar   
    21   10   11 ar   
    22   10  136 1    
    23   11   12 ar   
    24   11  126 1    
    25   12   13 ar   
    26   12  137 1    
    27   13   14 ar   
    28   13   15 1    
    29   14  138 1    
    30   15   16 1    
    31   15  139 1    
    32   15  140 1    
    33   16   17 1    
    34   17   18 1    
    35   17  141 1    
    36   17  142 1    
    37   18   19 1    
    38   18   67 1    
    39   18  143 1    
    40   19   20 am   BACKBONE|DICT|INTERRES
    41   19  144 1    
    42   20   21 2    
    43   20   22 1    
    44   22   23 1    
    45   22   24 1    
    46   22  145 1    
    47   23  146 1    
    48   23  147 1    
    49   23  148 1    
    50   24   25 am   BACKBONE|DICT|INTERRES
    51   24  149 1    
    52   25   26 2    
    53   25   27 1    
    54   27   28 1    
    55   27   29 1    
    56   27  150 1    
    57   28  151 1    
    58   28  152 1    
    59   28  153 1    
    60   29   30 am   BACKBONE|DICT|INTERRES
    61   29  154 1    
    62   30   31 2    
    63   30   32 1    
    64   32   33 1    
    65   32   34 1    
    66   32  155 1    
    67   33  156 1    
    68   33  157 1    
    69   33  158 1    
    70   34   35 am   BACKBONE|DICT|INTERRES
    71   34  159 1    
    72   35   36 2    
    73   35   37 1    
    74   37   38 1    
    75   37   39 1    
    76   37  160 1    
    77   38  161 1    
    78   38  162 1    
    79   38  163 1    
    80   39   40 am   BACKBONE|DICT|INTERRES
    81   39  164 1    
    82   40   41 2    
    83   40   42 1    
    84   42   43 1    
    85   42   44 1    
    86   42  165 1    
    87   43  166 1    
    88   43  167 1    
    89   43  168 1    
    90   44   45 am   BACKBONE|DICT|INTERRES
    91   44  169 1    
    92   45   46 2    
    93   45   47 1    
    94   47   48 1    
    95   47   49 1    
    96   47  170 1    
    97   48  171 1    
    98   48  172 1    
    99   48  173 1    
   100   49   50 am   BACKBONE|DICT|INTERRES
   101   49  174 1    
   102   50   51 2    
   103   50   52 1    
   104   52   53 1    
   105   52   54 1    
   106   52  175 1    
   107   53  176 1    
   108   53  177 1    
   109   53  178 1    
   110   54   55 am   BACKBONE|DICT|INTERRES
   111   54  179 1    
   112   55   56 2    
   113   55   57 1    
   114   57   58 1    
   115   57   59 1    
   116   57  180 1    
   117   58  181 1    
   118   58  182 1    
   119   58  183 1    
   120   59   60 am   BACKBONE|DICT|INTERRES
   121   59  184 1    
   122   60   61 2    
   123   60   62 1    
   124   62   63 1    
   125   62   64 1    
   126   62  185 1    
   127   63  186 1    
   128   63  187 1    
   129   63  188 1    
   130   64   65 am   BACKBONE|DICT|INTERRES
   131   64  189 1    
   132   65   66 2    
   133   67   68 2    
   134   67   69 am   BACKBONE|DICT|INTERRES
   135   69   70 1    
   136   69  190 1    
   137   70   71 1    
   138   70   72 1    
   139   70  191 1    
   140   71  192 1    
   141   71  193 1    
   142   71  194 1    
   143   72   73 2    
   144   72   74 am   BACKBONE|DICT|INTERRES
   145   74   75 1    
   146   74  195 1    
   147   75   76 1    
   148   75   77 1    
   149   75  196 1    
   150   76  197 1    
   151   76  198 1    
   152   76  199 1    
   153   77   78 2    
   154   77   79 am   BACKBONE|DICT|INTERRES
   155   79   80 1    
   156   79  200 1    
   157   80   81 1    
   158   80   82 1    
   159   80  201 1    
   160   81  202 1    
   161   81  203 1    
   162   81  204 1    
   163   82   83 2    
   164   82   84 am   BACKBONE|DICT|INTERRES
   165   84   85 1    
   166   84  205 1    
   167   85   86 1    
   168   85   87 1    
   169   85  206 1    
   170   86  207 1    
   171   86  208 1    
   172   86  209 1    
   173   87   88 2    
   174   87   89 am   BACKBONE|DICT|INTERRES
   175   89   90 1    
   176   89  210 1    
   177   90   91 1    
   178   90   92 1    
   179   90  211 1    
   180   91  212 1    
   181   91  213 1    
   182   91  214 1    
   183   92   93 2    
   184   92   94 am   BACKBONE|DICT|INTERRES
   185   94   95 1    
   186   94  215 1    
   187   95   96 1    
   188   95   97 1    
   189   95  216 1    
   190   96  217 1    
   191   96  218 1    
   192   96  219 1    
   193   97   98 2    
   194   97   99 am   BACKBONE|DICT|INTERRES
   195   99  100 1    
   196   99  220 1    
   197  100  101 1    
   198  100  102 1    
   199  100  221 1    
   200  101  222 1    
   201  101  223 1    
   202  101  224 1    
   203  102  103 2    
   204  102  104 am   BACKBONE|DICT|INTERRES
   205  104  105 1    
   206  104  225 1    
   207  105  106 1    
   208  105  107 1    
   209  105  226 1    
   210  106  227 1    
   211  106  228 1    
   212  106  229 1    
   213  107  108 2    
   214  107  109 am   BACKBONE|DICT|INTERRES
   215  109  110 1    
   216  109  230 1    
   217  110  111 1    
   218  110  112 1    
   219  110  231 1    
   220  111  232 1    
   221  111  233 1    
   222  111  234 1    
   223  112  113 2    
   224  112  114 am   BACKBONE|DICT|INTERRES
   225  114  115 1    
   226  114  235 1    
   227  115  116 1    
   228  115  117 1    
   229  115  236 1    
   230  116  237 1    
   231  116  238 1    
   232  116  239 1    
   233  117  118 2    
   234  117  119 am   BACKBONE|DICT|INTERRES
   235  119  120 1    
   236  119  240 1    
   237  120  121 1    
   238  120  124 1    
   239  120  241 1    
   240  121  122 am   BACKBONE|DICT|INTERRES
   241  121  123 2    
   242  122  242 1    
   243  122  243 1    
   244  124  125 1    
   245  124  244 1    
   246  124  245 1    
   247  125  126 1    
   248  126  246 1    
   249  126  247 1    
@<TRIPOS>SUBSTRUCTURE
     1 UNK         1 GROUP             0       ****    0 ROOT    
