@<TRIPOS>MOLECULE
3R540
247   249    1
SMALL
USER_CHARGES


@<TRIPOS>ATOM
      1 CA          1.0378  -12.7453  -51.5273 C.3       0 UNK        -0.1800 
      2 C           0.8148  -13.1968  -50.0921 C.2       0 UNK         0.5000 
      3 O           1.7770  -13.5191  -49.3942 O.2       0 UNK        -0.5000 
      4 N          -0.4464  -13.2015  -49.6379 N.am      1 UNK        -0.5000 
      5 CA         -0.8696  -13.6599  -48.3068 C.3       1 UNK         0.1400 
      6 C6         -2.4111  -13.6973  -48.1656 C.3       23 UNK        -0.0398 
      7 S7         -3.1673  -15.0413  -49.1417 S.3       23 UNK        -0.2404 
      8 C8         -4.5437  -15.5100  -48.0313 C.3       23 UNK        -0.0205 
      9 C9         -5.3309  -16.7486  -48.4567 C.ar      23 UNK        -0.0193 
     10 C10        -5.5036  -17.0944  -49.8016 C.ar      23 UNK        -0.1150 
     11 C11        -6.2482  -18.2219  -50.1600 C.ar      23 UNK        -0.0193 
     12 C12        -6.8416  -19.0010  -49.1625 C.ar      23 UNK        -0.1150 
     13 C13        -6.6828  -18.6686  -47.8145 C.ar      23 UNK        -0.0193 
     14 C14        -5.9272  -17.5432  -47.4710 C.ar      23 UNK        -0.1150 
     15 C15        -7.3603  -19.5029  -46.7342 C.3       23 UNK        -0.0205 
     16 S16        -6.5391  -21.1059  -46.4493 S.3       23 UNK        -0.2404 
     17 C17        -4.9827  -20.6063  -45.6393 C.3       23 UNK        -0.0398 
     18 CA         -3.7310  -21.0765  -46.4283 C.3       11 UNK         0.1400 
     19 N          -2.5570  -20.2821  -46.0932 N.am      11 UNK        -0.5000 
     20 C          -2.2193  -19.1609  -46.7377 C.2       10 UNK         0.5000 
     21 O          -2.7616  -18.7834  -47.7736 O.2       10 UNK        -0.5000 
     22 CA         -1.1256  -18.2949  -46.0864 C.3       10 UNK         0.1400 
     23 CB         -0.9731  -16.9334  -46.7863 C.3       10 UNK        -0.1800 
     24 N          -1.3551  -18.1104  -44.6505 N.am      10 UNK        -0.5000 
     25 C          -2.4352  -17.5776  -44.0549 C.2       9 UNK         0.5000 
     26 O          -3.3832  -17.0717  -44.6569 O.2       9 UNK        -0.5000 
     27 CA         -2.4459  -17.6319  -42.5129 C.3       9 UNK         0.1400 
     28 CB         -3.8640  -17.5256  -41.9121 C.3       9 UNK        -0.1800 
     29 N          -1.7280  -18.8009  -41.9883 N.am      9 UNK        -0.5000 
     30 C          -2.0642  -20.0905  -42.1454 C.2       8 UNK         0.5000 
     31 O          -3.0779  -20.4794  -42.7291 O.2       8 UNK        -0.5000 
     32 CA         -1.0394  -21.1088  -41.6101 C.3       8 UNK         0.1400 
     33 CB         -1.5254  -22.5664  -41.7304 C.3       8 UNK        -0.1800 
     34 N           0.2709  -20.9564  -42.2512 N.am      8 UNK        -0.5000 
     35 C           0.5561  -21.0135  -43.5600 C.2       7 UNK         0.5000 
     36 O          -0.2902  -21.1930  -44.4390 O.2       7 UNK        -0.5000 
     37 CA          2.0454  -20.8488  -43.9316 C.3       7 UNK         0.1400 
     38 CB          2.2976  -20.9212  -45.4475 C.3       7 UNK        -0.1800 
     39 N           2.5985  -19.5975  -43.4118 N.am      7 UNK        -0.5000 
     40 C           3.0234  -19.4029  -42.1544 C.2       6 UNK         0.5000 
     41 O           2.9900  -20.2808  -41.2908 O.2       6 UNK        -0.5000 
     42 CA          3.5385  -17.9986  -41.7765 C.3       6 UNK         0.1400 
     43 CB          5.0709  -17.9490  -41.8676 C.3       6 UNK        -0.1800 
     44 N           2.9809  -16.9199  -42.5926 N.am      6 UNK        -0.5000 
     45 C           1.6847  -16.5874  -42.6554 C.2       5 UNK         0.5000 
     46 O           0.8058  -17.1310  -41.9847 O.2       5 UNK        -0.5000 
     47 CA          1.2980  -15.4860  -43.6623 C.3       5 UNK         0.1400 
     48 CB          1.3063  -14.1186  -42.9615 C.3       5 UNK        -0.1800 
     49 N           2.1282  -15.4036  -44.8726 N.am      5 UNK        -0.5000 
     50 C           2.4745  -16.4064  -45.6951 C.2       4 UNK         0.5000 
     51 O           2.2209  -17.5883  -45.4642 O.2       4 UNK        -0.5000 
     52 CA          3.2029  -16.0462  -47.0066 C.3       4 UNK         0.1400 
     53 CB          2.4763  -16.6443  -48.2232 C.3       4 UNK        -0.1800 
     54 N           3.3611  -14.6074  -47.2277 N.am      4 UNK        -0.5000 
     55 C           4.3102  -13.8386  -46.6786 C.2       3 UNK         0.5000 
     56 O           5.1416  -14.2515  -45.8702 O.2       3 UNK        -0.5000 
     57 CA          4.3127  -12.3575  -47.0887 C.3       3 UNK         0.1400 
     58 CB          5.0060  -12.1745  -48.4478 C.3       3 UNK        -0.1800 
     59 N           2.9521  -11.8264  -47.1681 N.am      3 UNK        -0.5000 
     60 C           2.3049  -11.2414  -46.1508 C.2       2 UNK         0.5000 
     61 O           2.7972  -11.0708  -45.0353 O.2       2 UNK        -0.5000 
     62 CA          0.8624  -10.7675  -46.4198 C.3       2 UNK         0.1400 
     63 CB          0.8587   -9.3156  -46.9215 C.3       2 UNK        -0.1800 
     64 N           0.1538  -11.6089  -47.3856 N.am      2 UNK        -0.5000 
     65 C          -0.2416  -12.8659  -47.1411 C.2       1 UNK         0.5000 
     66 O          -0.1081  -13.4165  -46.0500 O.2       1 UNK        -0.5000 
     67 C          -3.3857  -22.5679  -46.2933 C.2       11 UNK         0.5000 
     68 O          -2.8739  -23.1471  -47.2517 O.2       11 UNK        -0.5000 
     69 N          -3.6674  -23.1802  -45.1342 N.am      12 UNK        -0.5000 
     70 CA         -3.6335  -24.6333  -44.9344 C.3       12 UNK         0.1400 
     71 CB         -4.1070  -24.9700  -43.5127 C.3       12 UNK        -0.1800 
     72 C          -2.2731  -25.2908  -45.2316 C.2       12 UNK         0.5000 
     73 O          -2.2328  -26.3240  -45.9013 O.2       12 UNK        -0.5000 
     74 N          -1.1855  -24.6592  -44.7721 N.am      13 UNK        -0.5000 
     75 CA          0.1813  -25.1297  -45.0020 C.3       13 UNK         0.1400 
     76 CB          1.0685  -24.7438  -43.8106 C.3       13 UNK        -0.1800 
     77 C           0.7690  -24.6285  -46.3350 C.2       13 UNK         0.5000 
     78 O           1.8064  -25.1397  -46.7569 O.2       13 UNK        -0.5000 
     79 N           0.0906  -23.6913  -47.0154 N.am      14 UNK        -0.5000 
     80 CA          0.4243  -23.2145  -48.3611 C.3       14 UNK         0.1400 
     81 CB         -0.0718  -21.7658  -48.5351 C.3       14 UNK        -0.1800 
     82 C          -0.1417  -24.1720  -49.4311 C.2       14 UNK         0.5000 
     83 O          -0.8338  -23.7375  -50.3547 O.2       14 UNK        -0.5000 
     84 N           0.1498  -25.4704  -49.2629 N.am      15 UNK        -0.5000 
     85 CA         -0.2838  -26.6036  -50.0842 C.3       15 UNK         0.1400 
     86 CB          0.4221  -26.5614  -51.4558 C.3       15 UNK        -0.1800 
     87 C          -1.8199  -26.7065  -50.1952 C.2       15 UNK         0.5000 
     88 O          -2.3415  -26.9080  -51.2912 O.2       15 UNK        -0.5000 
     89 N          -2.5209  -26.5192  -49.0644 N.am      16 UNK        -0.5000 
     90 CA         -3.9845  -26.4328  -48.9538 C.3       16 UNK         0.1400 
     91 CB         -4.6382  -27.8056  -49.2147 C.3       16 UNK        -0.1800 
     92 C          -4.5642  -25.3020  -49.8322 C.2       16 UNK         0.5000 
     93 O          -5.5293  -25.5066  -50.5700 O.2       16 UNK        -0.5000 
     94 N          -3.9137  -24.1354  -49.7457 N.am      17 UNK        -0.5000 
     95 CA         -4.1517  -22.8927  -50.4785 C.3       17 UNK         0.1400 
     96 CB         -5.5586  -22.3365  -50.1892 C.3       17 UNK        -0.1800 
     97 C          -3.8366  -22.9526  -51.9887 C.2       17 UNK         0.5000 
     98 O          -4.1711  -22.0070  -52.7029 O.2       17 UNK        -0.5000 
     99 N          -3.1679  -24.0133  -52.4647 N.am      18 UNK        -0.5000 
    100 CA        -2.7259  -24.1306  -53.8575 C.3       18 UNK         0.1400 
    101 CB        -2.4429  -25.6002  -54.1987 C.3       18 UNK        -0.1800 
    102 C         -1.4965  -23.2553  -54.1694 C.2       18 UNK         0.5000 
    103 O         -1.3351  -22.8399  -55.3173 O.2       18 UNK        -0.5000 
    104 N         -0.6634  -22.9792  -53.1554 N.am      19 UNK        -0.5000 
    105 CA         0.5099  -22.1051  -53.2552 C.3       19 UNK         0.1400 
    106 CB         1.6712  -22.7369  -52.4689 C.3       19 UNK        -0.1800 
    107 C          0.2174  -20.6761  -52.7525 C.2       19 UNK         0.5000 
    108 O          1.1182  -19.8357  -52.7661 O.2       19 UNK        -0.5000 
    109 N         -1.0191  -20.4243  -52.3040 N.am      20 UNK        -0.5000 
    110 CA        -1.5001  -19.1276  -51.8321 C.3       20 UNK         0.1400 
    111 CB        -2.7046  -19.3694  -50.9151 C.3       20 UNK        -0.1800 
    112 C         -1.8416  -18.1683  -52.9927 C.2       20 UNK         0.5000 
    113 O         -1.7547  -18.5423  -54.1643 O.2       20 UNK        -0.5000 
    114 N         -2.2065  -16.9289  -52.6398 N.am      21 UNK        -0.5000 
    115 CA        -2.3741  -15.8038  -53.5658 C.3       21 UNK         0.1400 
    116 CB        -2.3757  -14.5021  -52.7490 C.3       21 UNK        -0.1800 
    117 C         -3.6161  -15.8623  -54.4815 C.2       21 UNK         0.5000 
    118 O         -3.6921  -15.0669  -55.4197 O.2       21 UNK        -0.5000 
    119 N         -4.5728  -16.7552  -54.1954 N.am      22 UNK        -0.5000 
    120 CA        -5.8146  -16.9320  -54.9712 C.3       22 UNK         0.1400 
    121 C         -5.5615  -17.3926  -56.4353 C.2       22 UNK         0.5000 
    122 N         -6.3086  -16.8662  -57.3965 N.am      22 UNK        -0.7600 
    123 O         -4.7295  -18.2568  -56.7012 O.2       22 UNK        -0.5000 
    124 C124       -6.8093  -17.9005  -54.2814 C.3       23 UNK        -0.0398 
    125 S125       -7.2724  -17.3691  -52.5980 S.3       23 UNK        -0.2404 
    126 C126       -6.3753  -18.6129  -51.6236 C.3       23 UNK        -0.0205 
    127 H127        1.7719  -11.9402  -51.5569 H         1 UNK         0.0600 
    128 H128        1.4155  -13.5750  -52.1246 H         1 UNK         0.0600 
    129 H129        0.1179  -12.3836  -51.9870 H         1 UNK         0.0600 
    130 H130       -1.1939  -12.9192  -50.2554 H         1 UNK         0.3000 
    131 H131       -0.4929  -14.6769  -48.2042 H         1 UNK         0.0600 
    132 H132       -2.6922  -13.8417  -47.1204 H         1 UNK         0.0800 
    133 H133       -2.8528  -12.7460  -48.4666 H         1 UNK         0.0800 
    134 H134       -4.1410  -15.6756  -47.0310 H         1 UNK         0.0800 
    135 H135       -5.2355  -14.6706  -47.9539 H         1 UNK         0.0800 
    136 H136       -5.0586  -16.4903  -50.5788 H         1 UNK         0.1150 
    137 H137       -7.4225  -19.8722  -49.4306 H         1 UNK         0.1150 
    138 H138       -5.8035  -17.2806  -46.4294 H         1 UNK         0.1150 
    139 H139       -8.3937  -19.6903  -47.0293 H         1 UNK         0.0800 
    140 H140       -7.4121  -18.9512  -45.7942 H         1 UNK         0.0800 
    141 H141       -4.9727  -19.5184  -45.5630 H         1 UNK         0.0800 
    142 H142       -4.9808  -20.9560  -44.6070 H         1 UNK         0.0800 
    143 H143       -3.9469  -20.9381  -47.4908 H         1 UNK         0.0600 
    144 H144       -2.0144  -20.5751  -45.2859 H         1 UNK         0.3000 
    145 H145       -0.1864  -18.8371  -46.1929 H         1 UNK         0.0600 
    146 H146       -0.2218  -16.3132  -46.3065 H         1 UNK         0.0600 
    147 H147       -0.6840  -17.0648  -47.8292 H         1 UNK         0.0600 
    148 H148       -1.9058  -16.3732  -46.7742 H         1 UNK         0.0600 
    149 H149       -0.6567  -18.5191  -44.0475 H         1 UNK         0.3000 
    150 H150       -1.8875  -16.7567  -42.1788 H         1 UNK         0.0600 
    151 H151       -4.3253  -16.5718  -42.1707 H         1 UNK         0.0600 
    152 H152       -3.8379  -17.5876  -40.8243 H         1 UNK         0.0600 
    153 H153       -4.5226  -18.3132  -42.2790 H         1 UNK         0.0600 
    154 H154       -0.8393  -18.5838  -41.5518 H         1 UNK         0.3000 
    155 H155       -0.9006  -20.8915  -40.5500 H         1 UNK         0.0600 
    156 H156       -2.4476  -22.7164  -41.1679 H         1 UNK         0.0600 
    157 H157       -0.7864  -23.2652  -41.3386 H         1 UNK         0.0600 
    158 H158       -1.7272  -22.8349  -42.7654 H         1 UNK         0.0600 
    159 H159        1.0523  -20.7899  -41.6249 H         1 UNK         0.3000 
    160 H160        2.5827  -21.6833  -43.4767 H         1 UNK         0.0600 
    161 H161        1.7645  -20.1396  -45.9868 H         1 UNK         0.0600 
    162 H162        3.3583  -20.8183  -45.6758 H         1 UNK         0.0600 
    163 H163        1.9726  -21.8792  -45.8517 H         1 UNK         0.0600 
    164 H164        2.5976  -18.8123  -44.0587 H         1 UNK         0.3000 
    165 H165        3.2499  -17.8138  -40.7398 H         1 UNK         0.0600 
    166 H166        5.4565  -16.9902  -41.5203 H         1 UNK         0.0600 
    167 H167        5.5251  -18.7237  -41.2483 H         1 UNK         0.0600 
    168 H168        5.4175  -18.1008  -42.8906 H         1 UNK         0.0600 
    169 H169        3.6246  -16.4275  -43.1945 H         1 UNK         0.3000 
    170 H170        0.2780  -15.6929  -43.9897 H         1 UNK         0.0600 
    171 H171        0.6755  -14.1296  -42.0716 H         1 UNK         0.0600 
    172 H172        2.3120  -13.8347  -42.6490 H         1 UNK         0.0600 
    173 H173        0.9273  -13.3324  -43.6138 H         1 UNK         0.0600 
    174 H174        2.3629  -14.4697  -45.1745 H         1 UNK         0.3000 
    175 H175        4.1928  -16.5033  -46.9508 H         1 UNK         0.0600 
    176 H176        1.4937  -16.1947  -48.3628 H         1 UNK         0.0600 
    177 H177        3.0461  -16.4816  -49.1383 H         1 UNK         0.0600 
    178 H178        2.3362  -17.7209  -48.1175 H         1 UNK         0.0600 
    179 H179        2.7357  -14.1903  -47.9128 H         1 UNK         0.3000 
    180 H180        4.8849  -11.8011  -46.3430 H         1 UNK         0.0600 
    181 H181        6.0285  -12.5531  -48.4183 H         1 UNK         0.0600 
    182 H182        4.4826  -12.7038  -49.2452 H         1 UNK         0.0600 
    183 H183        5.0575  -11.1212  -48.7237 H         1 UNK         0.0600 
    184 H184        2.4555  -11.9888  -48.0351 H         1 UNK         0.3000 
    185 H185        0.3203  -10.8023  -45.4723 H         1 UNK         0.0600 
    186 H186        1.3598   -8.6562  -46.2116 H         1 UNK         0.0600 
    187 H187        1.3723   -9.2183  -47.8788 H         1 UNK         0.0600 
    188 H188       -0.1585   -8.9437  -47.0459 H         1 UNK         0.0600 
    189 H189        0.0076  -11.2267  -48.3084 H         1 UNK         0.3000 
    190 H190       -4.0371  -22.6314  -44.3711 H         1 UNK         0.3000 
    191 H191       -4.3546  -25.0641  -45.6319 H         1 UNK         0.0600 
    192 H192       -4.1290  -26.0491  -43.3547 H         1 UNK         0.0600 
    193 H193       -5.1157  -24.5971  -43.3340 H         1 UNK         0.0600 
    194 H194       -3.4526  -24.5428  -42.7534 H         1 UNK         0.0600 
    195 H195       -1.2947  -23.7833  -44.2813 H         1 UNK         0.3000 
    196 H196        0.1769  -26.2208  -45.0534 H         1 UNK         0.0600 
    197 H197        2.0763  -25.1441  -43.9283 H         1 UNK         0.0600 
    198 H198        0.6692  -25.1396  -42.8767 H         1 UNK         0.0600 
    199 H199        1.1576  -23.6675  -43.7063 H         1 UNK         0.0600 
    200 H200       -0.8019  -23.3812  -46.6528 H         1 UNK         0.3000 
    201 H201        1.5098  -23.2034  -48.4780 H         1 UNK         0.0600 
    202 H202        0.3060  -21.1187  -47.7443 H         1 UNK         0.0600 
    203 H203       -1.1591  -21.7007  -48.5261 H         1 UNK         0.0600 
    204 H204        0.2667  -21.3497  -49.4846 H         1 UNK         0.0600 
    205 H205        0.7381  -25.7025  -48.4707 H         1 UNK         0.3000 
    206 H206        0.0450  -27.5074  -49.5697 H         1 UNK         0.0600 
    207 H207        1.5057  -26.5509  -51.3390 H         1 UNK         0.0600 
    208 H208        0.1703  -27.4362  -52.0563 H         1 UNK         0.0600 
    209 H209        0.1424  -25.6773  -52.0283 H         1 UNK         0.0600 
    210 H210       -2.0153  -26.3586  -48.2022 H         1 UNK         0.3000 
    211 H211       -4.2014  -26.1573  -47.9212 H         1 UNK         0.0600 
    212 H212       -4.5018  -28.1328  -50.2458 H         1 UNK         0.0600 
    213 H213       -5.7112  -27.7683  -49.0235 H         1 UNK         0.0600 
    214 H214       -4.2189  -28.5708  -48.5615 H         1 UNK         0.0600 
    215 H215       -3.1541  -24.0737  -49.0761 H         1 UNK         0.3000 
    216 H216       -3.4350  -22.1856  -50.0606 H         1 UNK         0.0600 
    217 H217       -5.7504  -22.2880  -49.1180 H         1 UNK         0.0600 
    218 H218       -5.6601  -21.3254  -50.5806 H         1 UNK         0.0600 
    219 H219       -6.3395  -22.9444  -50.6461 H         1 UNK         0.0600 
    220 H220       -2.9088  -24.7611  -51.8329 H         1 UNK         0.3000 
    221 H221       -3.5406  -23.7959  -54.5034 H         1 UNK         0.0600 
    222 H222       -1.5802  -25.9828  -53.6548 H         1 UNK         0.0600 
    223 H223       -3.2982  -26.2340  -53.9634 H         1 UNK         0.0600 
    224 H224       -2.2329  -25.7175  -55.2624 H         1 UNK         0.0600 
    225 H225       -0.8659  -23.3475  -52.2283 H         1 UNK         0.3000 
    226 H226        0.8242  -22.0208  -54.2973 H         1 UNK         0.0600 
    227 H227        1.8457  -23.7678  -52.7772 H         1 UNK         0.0600 
    228 H228        2.5981  -22.1873  -52.6366 H         1 UNK         0.0600 
    229 H229        1.4834  -22.7325  -51.3963 H         1 UNK         0.0600 
    230 H230       -1.7100  -21.1540  -52.3951 H         1 UNK         0.3000 
    231 H231       -0.7119  -18.6595  -51.2384 H         1 UNK         0.0600 
    232 H232       -3.5291  -19.8362  -51.4479 H         1 UNK         0.0600 
    233 H233       -2.4342  -20.0225  -50.0861 H         1 UNK         0.0600 
    234 H234       -3.0707  -18.4398  -50.4795 H         1 UNK         0.0600 
    235 H235       -2.2787  -16.7042  -51.6575 H         1 UNK         0.3000 
    236 H236       -1.5007  -15.7849  -54.2212 H         1 UNK         0.0600 
    237 H237       -3.2521  -14.4365  -52.1035 H         1 UNK         0.0600 
    238 H238       -1.4873  -14.4294  -52.1227 H         1 UNK         0.0600 
    239 H239       -2.3845  -13.6283  -53.4018 H         1 UNK         0.0600 
    240 H240       -4.4272  -17.3833  -53.4216 H         1 UNK         0.3000 
    241 H241       -6.2914  -15.9506  -55.0138 H         1 UNK         0.0600 
    242 H242       -6.1660  -17.1685  -58.3481 H         1 UNK         0.3800 
    243 H243       -7.0032  -16.1610  -57.2025 H         1 UNK         0.3800 
    244 H244       -6.4031  -18.9135  -54.2550 H         1 UNK         0.0800 
    245 H245       -7.7316  -17.9658  -54.8615 H         1 UNK         0.0800 
    246 H246       -5.3772  -18.7381  -52.0389 H         1 UNK         0.0800 
    247 H247       -6.8791  -19.5747  -51.7303 H         1 UNK         0.0800 
@<TRIPOS>BOND
     1    1    2 1    
     2    1  127 1    
     3    1  128 1    
     4    1  129 1    
     5    2    3 2    
     6    2    4 am   BACKBONE|DICT|INTERRES
     7    4    5 1    
     8    4  130 1    
     9    5    6 1    
    10    5   65 1    
    11    5  131 1    
    12    6    7 1    
    13    6  132 1    
    14    6  133 1    
    15    7    8 1    
    16    8    9 1    
    17    8  134 1    
    18    8  135 1    
    19    9   10 ar   
    20    9   14 ar   
    21   10   11 ar   
    22   10  136 1    
    23   11   12 ar   
    24   11  126 1    
    25   12   13 ar   
    26   12  137 1    
    27   13   14 ar   
    28   13   15 1    
    29   14  138 1    
    30   15   16 1    
    31   15  139 1    
    32   15  140 1    
    33   16   17 1    
    34   17   18 1    
    35   17  141 1    
    36   17  142 1    
    37   18   19 1    
    38   18   67 1    
    39   18  143 1    
    40   19   20 am   BACKBONE|DICT|INTERRES
    41   19  144 1    
    42   20   21 2    
    43   20   22 1    
    44   22   23 1    
    45   22   24 1    
    46   22  145 1    
    47   23  146 1    
    48   23  147 1    
    49   23  148 1    
    50   24   25 am   BACKBONE|DICT|INTERRES
    51   24  149 1    
    52   25   26 2    
    53   25   27 1    
    54   27   28 1    
    55   27   29 1    
    56   27  150 1    
    57   28  151 1    
    58   28  152 1    
    59   28  153 1    
    60   29   30 am   BACKBONE|DICT|INTERRES
    61   29  154 1    
    62   30   31 2    
    63   30   32 1    
    64   32   33 1    
    65   32   34 1    
    66   32  155 1    
    67   33  156 1    
    68   33  157 1    
    69   33  158 1    
    70   34   35 am   BACKBONE|DICT|INTERRES
    71   34  159 1    
    72   35   36 2    
    73   35   37 1    
    74   37   38 1    
    75   37   39 1    
    76   37  160 1    
    77   38  161 1    
    78   38  162 1    
    79   38  163 1    
    80   39   40 am   BACKBONE|DICT|INTERRES
    81   39  164 1    
    82   40   41 2    
    83   40   42 1    
    84   42   43 1    
    85   42   44 1    
    86   42  165 1    
    87   43  166 1    
    88   43  167 1    
    89   43  168 1    
    90   44   45 am   BACKBONE|DICT|INTERRES
    91   44  169 1    
    92   45   46 2    
    93   45   47 1    
    94   47   48 1    
    95   47   49 1    
    96   47  170 1    
    97   48  171 1    
    98   48  172 1    
    99   48  173 1    
   100   49   50 am   BACKBONE|DICT|INTERRES
   101   49  174 1    
   102   50   51 2    
   103   50   52 1    
   104   52   53 1    
   105   52   54 1    
   106   52  175 1    
   107   53  176 1    
   108   53  177 1    
   109   53  178 1    
   110   54   55 am   BACKBONE|DICT|INTERRES
   111   54  179 1    
   112   55   56 2    
   113   55   57 1    
   114   57   58 1    
   115   57   59 1    
   116   57  180 1    
   117   58  181 1    
   118   58  182 1    
   119   58  183 1    
   120   59   60 am   BACKBONE|DICT|INTERRES
   121   59  184 1    
   122   60   61 2    
   123   60   62 1    
   124   62   63 1    
   125   62   64 1    
   126   62  185 1    
   127   63  186 1    
   128   63  187 1    
   129   63  188 1    
   130   64   65 am   BACKBONE|DICT|INTERRES
   131   64  189 1    
   132   65   66 2    
   133   67   68 2    
   134   67   69 am   BACKBONE|DICT|INTERRES
   135   69   70 1    
   136   69  190 1    
   137   70   71 1    
   138   70   72 1    
   139   70  191 1    
   140   71  192 1    
   141   71  193 1    
   142   71  194 1    
   143   72   73 2    
   144   72   74 am   BACKBONE|DICT|INTERRES
   145   74   75 1    
   146   74  195 1    
   147   75   76 1    
   148   75   77 1    
   149   75  196 1    
   150   76  197 1    
   151   76  198 1    
   152   76  199 1    
   153   77   78 2    
   154   77   79 am   BACKBONE|DICT|INTERRES
   155   79   80 1    
   156   79  200 1    
   157   80   81 1    
   158   80   82 1    
   159   80  201 1    
   160   81  202 1    
   161   81  203 1    
   162   81  204 1    
   163   82   83 2    
   164   82   84 am   BACKBONE|DICT|INTERRES
   165   84   85 1    
   166   84  205 1    
   167   85   86 1    
   168   85   87 1    
   169   85  206 1    
   170   86  207 1    
   171   86  208 1    
   172   86  209 1    
   173   87   88 2    
   174   87   89 am   BACKBONE|DICT|INTERRES
   175   89   90 1    
   176   89  210 1    
   177   90   91 1    
   178   90   92 1    
   179   90  211 1    
   180   91  212 1    
   181   91  213 1    
   182   91  214 1    
   183   92   93 2    
   184   92   94 am   BACKBONE|DICT|INTERRES
   185   94   95 1    
   186   94  215 1    
   187   95   96 1    
   188   95   97 1    
   189   95  216 1    
   190   96  217 1    
   191   96  218 1    
   192   96  219 1    
   193   97   98 2    
   194   97   99 am   BACKBONE|DICT|INTERRES
   195   99  100 1    
   196   99  220 1    
   197  100  101 1    
   198  100  102 1    
   199  100  221 1    
   200  101  222 1    
   201  101  223 1    
   202  101  224 1    
   203  102  103 2    
   204  102  104 am   BACKBONE|DICT|INTERRES
   205  104  105 1    
   206  104  225 1    
   207  105  106 1    
   208  105  107 1    
   209  105  226 1    
   210  106  227 1    
   211  106  228 1    
   212  106  229 1    
   213  107  108 2    
   214  107  109 am   BACKBONE|DICT|INTERRES
   215  109  110 1    
   216  109  230 1    
   217  110  111 1    
   218  110  112 1    
   219  110  231 1    
   220  111  232 1    
   221  111  233 1    
   222  111  234 1    
   223  112  113 2    
   224  112  114 am   BACKBONE|DICT|INTERRES
   225  114  115 1    
   226  114  235 1    
   227  115  116 1    
   228  115  117 1    
   229  115  236 1    
   230  116  237 1    
   231  116  238 1    
   232  116  239 1    
   233  117  118 2    
   234  117  119 am   BACKBONE|DICT|INTERRES
   235  119  120 1    
   236  119  240 1    
   237  120  121 1    
   238  120  124 1    
   239  120  241 1    
   240  121  122 am   BACKBONE|DICT|INTERRES
   241  121  123 2    
   242  122  242 1    
   243  122  243 1    
   244  124  125 1    
   245  124  244 1    
   246  124  245 1    
   247  125  126 1    
   248  126  246 1    
   249  126  247 1    
@<TRIPOS>SUBSTRUCTURE
     1 UNK         1 GROUP             0       ****    0 ROOT    
