@<TRIPOS>MOLECULE
3R540
247   249    1
SMALL
USER_CHARGES


@<TRIPOS>ATOM
      1 CA         -1.1927  -14.6977  -49.2077 C.3       0 UNK        -0.1800 
      2 C          -0.4737  -13.4431  -49.6801 C.2       0 UNK         0.5000 
      3 O          -1.0344  -12.3488  -49.6084 O.2       0 UNK        -0.5000 
      4 N           0.7755  -13.5886  -50.1389 N.am      1 UNK        -0.5000 
      5 CA          1.6544  -12.5061  -50.6033 C.3       1 UNK         0.1400 
      6 C6          2.7696  -13.0293  -51.5445 C.3       23 UNK        -0.0398 
      7 S7          2.1153  -13.7165  -53.1022 S.3       23 UNK        -0.2404 
      8 C8          2.6270  -15.4600  -52.9900 C.3       23 UNK        -0.0205 
      9 C9          1.7480  -16.2542  -52.0366 C.ar      23 UNK        -0.0193 
     10 C10         0.4503  -16.6035  -52.4202 C.ar      23 UNK        -0.1150 
     11 C11        -0.3594  -17.3658  -51.5752 C.ar      23 UNK        -0.0193 
     12 C12         0.1352  -17.7741  -50.3348 C.ar      23 UNK        -0.1150 
     13 C13         1.4232  -17.4142  -49.9307 C.ar      23 UNK        -0.0193 
     14 C14         2.2287  -16.6554  -50.7857 C.ar      23 UNK        -0.1150 
     15 C15         1.9266  -17.8384  -48.5627 C.3       23 UNK        -0.0205 
     16 S16         2.8218  -19.4203  -48.6504 S.3       23 UNK        -0.2404 
     17 C17         2.4691  -20.1123  -46.9969 C.3       23 UNK        -0.0398 
     18 CA          1.6748  -21.4448  -47.0032 C.3       11 UNK         0.1400 
     19 N           1.5039  -21.9391  -45.6350 N.am      11 UNK        -0.5000 
     20 C           1.0512  -23.1490  -45.2806 C.2       10 UNK         0.5000 
     21 O           0.5604  -23.9543  -46.0693 O.2       10 UNK        -0.5000 
     22 CA          1.1646  -23.5177  -43.7922 C.3       10 UNK         0.1400 
     23 CB          2.6354  -23.6583  -43.3672 C.3       10 UNK        -0.1800 
     24 N           0.5191  -22.4959  -42.9750 N.am      10 UNK        -0.5000 
     25 C          -0.5842  -22.6855  -42.2402 C.2       9 UNK         0.5000 
     26 O          -1.0704  -23.7944  -42.0163 O.2       9 UNK        -0.5000 
     27 CA         -1.2886  -21.4368  -41.6640 C.3       9 UNK         0.1400 
     28 CB         -1.1044  -21.3750  -40.1395 C.3       9 UNK        -0.1800 
     29 N          -0.8651  -20.1594  -42.2468 N.am      9 UNK        -0.5000 
     30 C          -0.9466  -19.8161  -43.5404 C.2       8 UNK         0.5000 
     31 O          -1.4311  -20.5361  -44.4138 O.2       8 UNK        -0.5000 
     32 CA         -0.2835  -18.4876  -43.9475 C.3       8 UNK         0.1400 
     33 CB         -1.2714  -17.3210  -43.8166 C.3       8 UNK        -0.1800 
     34 N           0.9301  -18.1885  -43.1842 N.am      8 UNK        -0.5000 
     35 C           2.0292  -18.9549  -43.1251 C.2       7 UNK         0.5000 
     36 O           2.1477  -20.0277  -43.7174 O.2       7 UNK        -0.5000 
     37 CA          3.1635  -18.4615  -42.2157 C.3       7 UNK         0.1400 
     38 CB          3.9421  -17.3125  -42.8756 C.3       7 UNK        -0.1800 
     39 N           2.6373  -18.0290  -40.9223 N.am      7 UNK        -0.5000 
     40 C           2.3437  -18.8611  -39.9132 C.2       6 UNK         0.5000 
     41 O           2.5609  -20.0725  -39.9425 O.2       6 UNK        -0.5000 
     42 CA          1.6899  -18.2441  -38.6608 C.3       6 UNK         0.1400 
     43 CB          2.7606  -17.8801  -37.6213 C.3       6 UNK        -0.1800 
     44 N           0.8824  -17.0572  -38.9483 N.am      6 UNK        -0.5000 
     45 C          -0.2723  -17.0675  -39.6284 C.2       5 UNK         0.5000 
     46 O          -0.7889  -18.0861  -40.0860 O.2       5 UNK        -0.5000 
     47 CA         -0.9252  -15.6965  -39.8937 C.3       5 UNK         0.1400 
     48 CB         -1.7761  -15.2615  -38.6914 C.3       5 UNK        -0.1800 
     49 N           0.0350  -14.6353  -40.2223 N.am      5 UNK        -0.5000 
     50 C           0.9070  -14.6899  -41.2372 C.2       4 UNK         0.5000 
     51 O           1.0399  -15.6762  -41.9647 O.2       4 UNK        -0.5000 
     52 CA          1.8214  -13.4700  -41.4455 C.3       4 UNK         0.1400 
     53 CB          3.0228  -13.5406  -40.4900 C.3       4 UNK        -0.1800 
     54 N           2.3185  -13.4308  -42.8209 N.am      4 UNK        -0.5000 
     55 C           1.5666  -13.1321  -43.8866 C.2       3 UNK         0.5000 
     56 O           0.4140  -12.6965  -43.8175 O.2       3 UNK        -0.5000 
     57 CA          2.1988  -13.4177  -45.2600 C.3       3 UNK         0.1400 
     58 CB          1.7950  -14.8169  -45.7564 C.3       3 UNK        -0.1800 
     59 N           1.7954  -12.4321  -46.2587 N.am      3 UNK        -0.5000 
     60 C           2.1875  -11.1512  -46.2829 C.2       2 UNK         0.5000 
     61 O           2.9659  -10.6620  -45.4616 O.2       2 UNK        -0.5000 
     62 CA          1.6147  -10.2845  -47.4272 C.3       2 UNK         0.1400 
     63 CB          2.4757   -9.0400  -47.7298 C.3       2 UNK        -0.1800 
     64 N           1.3515  -11.0486  -48.6543 N.am      2 UNK        -0.5000 
     65 C           2.2365  -11.7211  -49.4052 C.2       1 UNK         0.5000 
     66 O           3.4444  -11.7653  -49.1646 O.2       1 UNK        -0.5000 
     67 C           0.3490  -21.3650  -47.7926 C.2       11 UNK         0.5000 
     68 O           0.2604  -21.9273  -48.8850 O.2       11 UNK        -0.5000 
     69 N          -0.6621  -20.6922  -47.2264 N.am      12 UNK        -0.5000 
     70 CA         -1.9819  -20.5593  -47.8457 C.3       12 UNK         0.1400 
     71 CB         -2.6885  -19.3026  -47.3164 C.3       12 UNK        -0.1800 
     72 C          -2.8403  -21.8119  -47.6152 C.2       12 UNK         0.5000 
     73 O          -3.6398  -22.1627  -48.4834 O.2       12 UNK        -0.5000 
     74 N          -2.6457  -22.4829  -46.4708 N.am      13 UNK        -0.5000 
     75 CA         -3.3135  -23.7348  -46.1083 C.3       13 UNK         0.1400 
     76 CB         -2.9353  -24.1215  -44.6750 C.3       13 UNK        -0.1800 
     77 C          -3.0065  -24.8875  -47.0821 C.2       13 UNK         0.5000 
     78 O          -3.9205  -25.6262  -47.4485 O.2       13 UNK        -0.5000 
     79 N          -1.7495  -24.9795  -47.5417 N.am      14 UNK        -0.5000 
     80 CA         -1.3000  -25.9176  -48.5766 C.3       14 UNK         0.1400 
     81 CB          0.2303  -25.8512  -48.6900 C.3       14 UNK        -0.1800 
     82 C          -1.9503  -25.6751  -49.9545 C.2       14 UNK         0.5000 
     83 O          -2.0482  -26.6082  -50.7514 O.2       14 UNK        -0.5000 
     84 N          -2.4139  -24.4419  -50.1923 N.am      15 UNK        -0.5000 
     85 CA         -3.1796  -24.0251  -51.3649 C.3       15 UNK         0.1400 
     86 CB         -2.6973  -22.6285  -51.7901 C.3       15 UNK        -0.1800 
     87 C          -4.7016  -24.0559  -51.1031 C.2       15 UNK         0.5000 
     88 O          -5.4503  -23.3923  -51.8211 O.2       15 UNK        -0.5000 
     89 N          -5.1349  -24.8051  -50.0763 N.am      16 UNK        -0.5000 
     90 CA         -6.5206  -25.0092  -49.6413 C.3       16 UNK         0.1400 
     91 CB         -7.3111  -25.8100  -50.6966 C.3       16 UNK        -0.1800 
     92 C          -7.2112  -23.6967  -49.2186 C.2       16 UNK         0.5000 
     93 O          -8.3513  -23.4409  -49.6071 O.2       16 UNK        -0.5000 
     94 N          -6.4821  -22.8905  -48.4336 N.am      17 UNK        -0.5000 
     95 CA         -6.8225  -21.5382  -47.9808 C.3       17 UNK         0.1400 
     96 CB         -8.1170  -21.5194  -47.1402 C.3       17 UNK        -0.1800 
     97 C          -6.8230  -20.5374  -49.1529 C.2       17 UNK         0.5000 
     98 O          -7.7563  -19.7460  -49.2980 O.2       17 UNK        -0.5000 
     99 N          -5.7531  -20.6048  -49.9605 N.am      18 UNK        -0.5000 
    100 CA        -5.4671  -19.7721  -51.1340 C.3       18 UNK         0.1400 
    101 CB        -5.1900  -18.3168  -50.7037 C.3       18 UNK        -0.1800 
    102 C         -6.5411  -19.8715  -52.2389 C.2       18 UNK         0.5000 
    103 O         -6.8920  -18.8648  -52.8588 O.2       18 UNK        -0.5000 
    104 N         -7.0413  -21.0878  -52.4873 N.am      19 UNK        -0.5000 
    105 CA        -8.0838  -21.3884  -53.4691 C.3       19 UNK         0.1400 
    106 CB        -8.8344  -22.6535  -53.0208 C.3       19 UNK        -0.1800 
    107 C         -7.4946  -21.5195  -54.8877 C.2       19 UNK         0.5000 
    108 O         -7.5603  -22.5914  -55.4905 O.2       19 UNK        -0.5000 
    109 N         -6.8763  -20.4332  -55.3732 N.am      20 UNK        -0.5000 
    110 CA        -6.2135  -20.2410  -56.6749 C.3       20 UNK         0.1400 
    111 CB        -7.2064  -20.4396  -57.8363 C.3       20 UNK        -0.1800 
    112 C         -4.9282  -21.0692  -56.8982 C.2       20 UNK         0.5000 
    113 O         -4.1225  -20.7080  -57.7582 O.2       20 UNK        -0.5000 
    114 N         -4.7245  -22.1295  -56.1059 N.am      21 UNK        -0.5000 
    115 CA        -3.5899  -23.0565  -56.1491 C.3       21 UNK         0.1400 
    116 CB        -3.8825  -24.2302  -55.2023 C.3       21 UNK        -0.1800 
    117 C         -2.2143  -22.4215  -55.8509 C.2       21 UNK         0.5000 
    118 O         -1.1923  -23.0542  -56.1202 O.2       21 UNK        -0.5000 
    119 N         -2.2038  -21.1821  -55.3418 N.am      22 UNK        -0.5000 
    120 CA        -1.0132  -20.3206  -55.2561 C.3       22 UNK         0.1400 
    121 C         -0.4265  -19.9112  -56.6419 C.2       22 UNK         0.5000 
    122 N         -1.1861  -19.9664  -57.7317 N.am      22 UNK        -0.7600 
    123 O          0.7393  -19.5358  -56.7276 O.2       22 UNK        -0.5000 
    124 C124       -1.2723  -19.0455  -54.4141 C.3       23 UNK        -0.0398 
    125 S125       -1.8728  -19.3853  -52.7272 S.3       23 UNK        -0.2404 
    126 C126       -1.7775  -17.7288  -51.9823 C.3       23 UNK        -0.0205 
    127 H127       -0.4891  -15.4306  -48.8142 H         1 UNK         0.0600 
    128 H128       -1.7447  -15.1490  -50.0318 H         1 UNK         0.0600 
    129 H129       -1.8996  -14.4560  -48.4139 H         1 UNK         0.0600 
    130 H130        1.1695  -14.5174  -50.1965 H         1 UNK         0.3000 
    131 H131        1.0524  -11.7975  -51.1765 H         1 UNK         0.0600 
    132 H132        3.4447  -12.2170  -51.8199 H         1 UNK         0.0800 
    133 H133        3.3860  -13.7721  -51.0355 H         1 UNK         0.0800 
    134 H134        2.5628  -15.9060  -53.9836 H         1 UNK         0.0800 
    135 H135        3.6772  -15.5214  -52.7005 H         1 UNK         0.0800 
    136 H136        0.0733  -16.2806  -53.3805 H         1 UNK         0.1150 
    137 H137       -0.4881  -18.3655  -49.6789 H         1 UNK         0.1150 
    138 H138        3.2307  -16.3881  -50.4801 H         1 UNK         0.1150 
    139 H139        2.5859  -17.0756  -48.1467 H         1 UNK         0.0800 
    140 H140        1.0778  -17.9160  -47.8814 H         1 UNK         0.0800 
    141 H141        1.9540  -19.3702  -46.3867 H         1 UNK         0.0800 
    142 H142        3.4299  -20.2700  -46.5046 H         1 UNK         0.0800 
    143 H143        2.2939  -22.1824  -47.5187 H         1 UNK         0.0600 
    144 H144        1.8532  -21.3214  -44.9050 H         1 UNK         0.3000 
    145 H145        0.6812  -24.4877  -43.6584 H         1 UNK         0.0600 
    146 H146        2.7114  -23.9948  -42.3331 H         1 UNK         0.0600 
    147 H147        3.1531  -24.3915  -43.9869 H         1 UNK         0.0600 
    148 H148        3.1768  -22.7150  -43.4491 H         1 UNK         0.0600 
    149 H149        0.8581  -21.5491  -43.0943 H         1 UNK         0.3000 
    150 H150       -2.3535  -21.5520  -41.8744 H         1 UNK         0.0600 
    151 H151       -1.4013  -22.3120  -39.6666 H         1 UNK         0.0600 
    152 H152       -1.7165  -20.5874  -39.7002 H         1 UNK         0.0600 
    153 H153       -0.0653  -21.1845  -39.8692 H         1 UNK         0.0600 
    154 H154       -0.4997  -19.4742  -41.5940 H         1 UNK         0.3000 
    155 H155        0.0039  -18.5693  -44.9970 H         1 UNK         0.0600 
    156 H156       -1.5910  -17.1823  -42.7836 H         1 UNK         0.0600 
    157 H157       -0.8254  -16.3859  -44.1566 H         1 UNK         0.0600 
    158 H158       -2.1646  -17.4946  -44.4181 H         1 UNK         0.0600 
    159 H159        0.9317  -17.3054  -42.6756 H         1 UNK         0.3000 
    160 H160        3.8574  -19.2911  -42.0635 H         1 UNK         0.0600 
    161 H161        3.3146  -16.4399  -43.0532 H         1 UNK         0.0600 
    162 H162        4.3508  -17.6225  -43.8382 H         1 UNK         0.0600 
    163 H163        4.7799  -16.9987  -42.2528 H         1 UNK         0.0600 
    164 H164        2.3596  -17.0600  -40.8494 H         1 UNK         0.3000 
    165 H165        1.0345  -19.0019  -38.2259 H         1 UNK         0.0600 
    166 H166        2.3077  -17.5169  -36.6986 H         1 UNK         0.0600 
    167 H167        3.3667  -18.7497  -37.3637 H         1 UNK         0.0600 
    168 H168        3.4357  -17.1076  -37.9920 H         1 UNK         0.0600 
    169 H169        1.2384  -16.1720  -38.6188 H         1 UNK         0.3000 
    170 H170       -1.5889  -15.8127  -40.7526 H         1 UNK         0.0600 
    171 H171       -1.1639  -15.0855  -37.8061 H         1 UNK         0.0600 
    172 H172       -2.3257  -14.3452  -38.9077 H         1 UNK         0.0600 
    173 H173       -2.5109  -16.0263  -38.4359 H         1 UNK         0.0600 
    174 H174       -0.0061  -13.8008  -39.6551 H         1 UNK         0.3000 
    175 H175        1.2532  -12.5594  -41.2442 H         1 UNK         0.0600 
    176 H176        3.6824  -12.6828  -40.6229 H         1 UNK         0.0600 
    177 H177        3.6127  -14.4446  -40.6486 H         1 UNK         0.0600 
    178 H178        2.6983  -13.5391  -39.4487 H         1 UNK         0.0600 
    179 H179        3.2431  -13.8070  -42.9681 H         1 UNK         0.3000 
    180 H180        3.2863  -13.3819  -45.1649 H         1 UNK         0.0600 
    181 H181        0.7162  -14.8991  -45.8962 H         1 UNK         0.0600 
    182 H182        2.0897  -15.5881  -45.0436 H         1 UNK         0.0600 
    183 H183        2.2754  -15.0509  -46.7064 H         1 UNK         0.0600 
    184 H184        1.1327  -12.7389  -46.9537 H         1 UNK         0.3000 
    185 H185        0.6436   -9.9324  -47.0766 H         1 UNK         0.0600 
    186 H186        2.5493   -8.3931  -46.8549 H         1 UNK         0.0600 
    187 H187        3.4909   -9.3098  -48.0219 H         1 UNK         0.0600 
    188 H188        2.0414   -8.4462  -48.5340 H         1 UNK         0.0600 
    189 H189        0.3738  -11.1401  -48.9167 H         1 UNK         0.3000 
    190 H190       -0.5761  -20.3684  -46.2717 H         1 UNK         0.3000 
    191 H191       -1.8597  -20.4381  -48.9247 H         1 UNK         0.0600 
    192 H192       -2.0972  -18.4068  -47.5073 H         1 UNK         0.0600 
    193 H193       -3.6532  -19.1664  -47.8061 H         1 UNK         0.0600 
    194 H194       -2.8773  -19.3594  -46.2448 H         1 UNK         0.0600 
    195 H195       -2.0065  -22.0894  -45.7906 H         1 UNK         0.3000 
    196 H196       -4.3899  -23.5538  -46.1366 H         1 UNK         0.0600 
    197 H197       -3.4677  -25.0190  -44.3579 H         1 UNK         0.0600 
    198 H198       -3.1879  -23.3276  -43.9720 H         1 UNK         0.0600 
    199 H199       -1.8683  -24.3255  -44.5857 H         1 UNK         0.0600 
    200 H200       -1.0354  -24.3740  -47.1466 H         1 UNK         0.3000 
    201 H201       -1.5762  -26.9249  -48.2584 H         1 UNK         0.0600 
    202 H202        0.7070  -26.1373  -47.7524 H         1 UNK         0.0600 
    203 H203        0.5695  -24.8463  -48.9457 H         1 UNK         0.0600 
    204 H204        0.5983  -26.5302  -49.4602 H         1 UNK         0.0600 
    205 H205       -2.3189  -23.7465  -49.4640 H         1 UNK         0.3000 
    206 H206       -2.9880  -24.7107  -52.1921 H         1 UNK         0.0600 
    207 H207       -1.6364  -22.6393  -52.0408 H         1 UNK         0.0600 
    208 H208       -3.2293  -22.2688  -52.6708 H         1 UNK         0.0600 
    209 H209       -2.8415  -21.8929  -50.9996 H         1 UNK         0.0600 
    210 H210       -4.4399  -25.2654  -49.5011 H         1 UNK         0.3000 
    211 H211       -6.4701  -25.6229  -48.7409 H         1 UNK         0.0600 
    212 H212       -7.4117  -25.2619  -51.6323 H         1 UNK         0.0600 
    213 H213       -8.3164  -26.0406  -50.3421 H         1 UNK         0.0600 
    214 H214       -6.8208  -26.7581  -50.9172 H         1 UNK         0.0600 
    215 H215       -5.5243  -23.1651  -48.2536 H         1 UNK         0.3000 
    216 H216       -6.0112  -21.2279  -47.3208 H         1 UNK         0.0600 
    217 H217       -8.2674  -20.5398  -46.6853 H         1 UNK         0.0600 
    218 H218       -8.0728  -22.2492  -46.3319 H         1 UNK         0.0600 
    219 H219       -9.0009  -21.7349  -47.7405 H         1 UNK         0.0600 
    220 H220       -5.0484  -21.2970  -49.7312 H         1 UNK         0.3000 
    221 H221       -4.5507  -20.1681  -51.5709 H         1 UNK         0.0600 
    222 H222       -6.0833  -17.8350  -50.3052 H         1 UNK         0.0600 
    223 H223       -4.4174  -18.2719  -49.9373 H         1 UNK         0.0600 
    224 H224       -4.8478  -17.7180  -51.5483 H         1 UNK         0.0600 
    225 H225       -6.6296  -21.8894  -52.0153 H         1 UNK         0.3000 
    226 H226       -8.8049  -20.5686  -53.4899 H         1 UNK         0.0600 
    227 H227       -9.2794  -22.5183  -52.0351 H         1 UNK         0.0600 
    228 H228       -9.6427  -22.8968  -53.7114 H         1 UNK         0.0600 
    229 H229       -8.1696  -23.5158  -52.9732 H         1 UNK         0.0600 
    230 H230       -6.8430  -19.6303  -54.7521 H         1 UNK         0.3000 
    231 H231       -5.9007  -19.1960  -56.6893 H         1 UNK         0.0600 
    232 H232       -7.5400  -21.4745  -57.9158 H         1 UNK         0.0600 
    233 H233       -6.7480  -20.1735  -58.7896 H         1 UNK         0.0600 
    234 H234       -8.0878  -19.8102  -57.7140 H         1 UNK         0.0600 
    235 H235       -5.4800  -22.3784  -55.4800 H         1 UNK         0.3000 
    236 H236       -3.5318  -23.4515  -57.1652 H         1 UNK         0.0600 
    237 H237       -4.7494  -24.7983  -55.5403 H         1 UNK         0.0600 
    238 H238       -3.0411  -24.9225  -55.1505 H         1 UNK         0.0600 
    239 H239       -4.0908  -23.8830  -54.1924 H         1 UNK         0.0600 
    240 H240       -3.0874  -20.7439  -55.1340 H         1 UNK         0.3000 
    241 H241       -0.2368  -20.8977  -54.7502 H         1 UNK         0.0600 
    242 H242       -2.1560  -20.2612  -57.6836 H         1 UNK         0.3800 
    243 H243       -0.7930  -19.7008  -58.6207 H         1 UNK         0.3800 
    244 H244       -0.3504  -18.4687  -54.3346 H         1 UNK         0.0800 
    245 H245       -1.9984  -18.4000  -54.9114 H         1 UNK         0.0800 
    246 H246       -2.1862  -16.9867  -52.6698 H         1 UNK         0.0800 
    247 H247       -2.4127  -17.7049  -51.0976 H         1 UNK         0.0800 
@<TRIPOS>BOND
     1    1    2 1    
     2    1  127 1    
     3    1  128 1    
     4    1  129 1    
     5    2    3 2    
     6    2    4 am   BACKBONE|DICT|INTERRES
     7    4    5 1    
     8    4  130 1    
     9    5    6 1    
    10    5   65 1    
    11    5  131 1    
    12    6    7 1    
    13    6  132 1    
    14    6  133 1    
    15    7    8 1    
    16    8    9 1    
    17    8  134 1    
    18    8  135 1    
    19    9   10 ar   
    20    9   14 ar   
    21   10   11 ar   
    22   10  136 1    
    23   11   12 ar   
    24   11  126 1    
    25   12   13 ar   
    26   12  137 1    
    27   13   14 ar   
    28   13   15 1    
    29   14  138 1    
    30   15   16 1    
    31   15  139 1    
    32   15  140 1    
    33   16   17 1    
    34   17   18 1    
    35   17  141 1    
    36   17  142 1    
    37   18   19 1    
    38   18   67 1    
    39   18  143 1    
    40   19   20 am   BACKBONE|DICT|INTERRES
    41   19  144 1    
    42   20   21 2    
    43   20   22 1    
    44   22   23 1    
    45   22   24 1    
    46   22  145 1    
    47   23  146 1    
    48   23  147 1    
    49   23  148 1    
    50   24   25 am   BACKBONE|DICT|INTERRES
    51   24  149 1    
    52   25   26 2    
    53   25   27 1    
    54   27   28 1    
    55   27   29 1    
    56   27  150 1    
    57   28  151 1    
    58   28  152 1    
    59   28  153 1    
    60   29   30 am   BACKBONE|DICT|INTERRES
    61   29  154 1    
    62   30   31 2    
    63   30   32 1    
    64   32   33 1    
    65   32   34 1    
    66   32  155 1    
    67   33  156 1    
    68   33  157 1    
    69   33  158 1    
    70   34   35 am   BACKBONE|DICT|INTERRES
    71   34  159 1    
    72   35   36 2    
    73   35   37 1    
    74   37   38 1    
    75   37   39 1    
    76   37  160 1    
    77   38  161 1    
    78   38  162 1    
    79   38  163 1    
    80   39   40 am   BACKBONE|DICT|INTERRES
    81   39  164 1    
    82   40   41 2    
    83   40   42 1    
    84   42   43 1    
    85   42   44 1    
    86   42  165 1    
    87   43  166 1    
    88   43  167 1    
    89   43  168 1    
    90   44   45 am   BACKBONE|DICT|INTERRES
    91   44  169 1    
    92   45   46 2    
    93   45   47 1    
    94   47   48 1    
    95   47   49 1    
    96   47  170 1    
    97   48  171 1    
    98   48  172 1    
    99   48  173 1    
   100   49   50 am   BACKBONE|DICT|INTERRES
   101   49  174 1    
   102   50   51 2    
   103   50   52 1    
   104   52   53 1    
   105   52   54 1    
   106   52  175 1    
   107   53  176 1    
   108   53  177 1    
   109   53  178 1    
   110   54   55 am   BACKBONE|DICT|INTERRES
   111   54  179 1    
   112   55   56 2    
   113   55   57 1    
   114   57   58 1    
   115   57   59 1    
   116   57  180 1    
   117   58  181 1    
   118   58  182 1    
   119   58  183 1    
   120   59   60 am   BACKBONE|DICT|INTERRES
   121   59  184 1    
   122   60   61 2    
   123   60   62 1    
   124   62   63 1    
   125   62   64 1    
   126   62  185 1    
   127   63  186 1    
   128   63  187 1    
   129   63  188 1    
   130   64   65 am   BACKBONE|DICT|INTERRES
   131   64  189 1    
   132   65   66 2    
   133   67   68 2    
   134   67   69 am   BACKBONE|DICT|INTERRES
   135   69   70 1    
   136   69  190 1    
   137   70   71 1    
   138   70   72 1    
   139   70  191 1    
   140   71  192 1    
   141   71  193 1    
   142   71  194 1    
   143   72   73 2    
   144   72   74 am   BACKBONE|DICT|INTERRES
   145   74   75 1    
   146   74  195 1    
   147   75   76 1    
   148   75   77 1    
   149   75  196 1    
   150   76  197 1    
   151   76  198 1    
   152   76  199 1    
   153   77   78 2    
   154   77   79 am   BACKBONE|DICT|INTERRES
   155   79   80 1    
   156   79  200 1    
   157   80   81 1    
   158   80   82 1    
   159   80  201 1    
   160   81  202 1    
   161   81  203 1    
   162   81  204 1    
   163   82   83 2    
   164   82   84 am   BACKBONE|DICT|INTERRES
   165   84   85 1    
   166   84  205 1    
   167   85   86 1    
   168   85   87 1    
   169   85  206 1    
   170   86  207 1    
   171   86  208 1    
   172   86  209 1    
   173   87   88 2    
   174   87   89 am   BACKBONE|DICT|INTERRES
   175   89   90 1    
   176   89  210 1    
   177   90   91 1    
   178   90   92 1    
   179   90  211 1    
   180   91  212 1    
   181   91  213 1    
   182   91  214 1    
   183   92   93 2    
   184   92   94 am   BACKBONE|DICT|INTERRES
   185   94   95 1    
   186   94  215 1    
   187   95   96 1    
   188   95   97 1    
   189   95  216 1    
   190   96  217 1    
   191   96  218 1    
   192   96  219 1    
   193   97   98 2    
   194   97   99 am   BACKBONE|DICT|INTERRES
   195   99  100 1    
   196   99  220 1    
   197  100  101 1    
   198  100  102 1    
   199  100  221 1    
   200  101  222 1    
   201  101  223 1    
   202  101  224 1    
   203  102  103 2    
   204  102  104 am   BACKBONE|DICT|INTERRES
   205  104  105 1    
   206  104  225 1    
   207  105  106 1    
   208  105  107 1    
   209  105  226 1    
   210  106  227 1    
   211  106  228 1    
   212  106  229 1    
   213  107  108 2    
   214  107  109 am   BACKBONE|DICT|INTERRES
   215  109  110 1    
   216  109  230 1    
   217  110  111 1    
   218  110  112 1    
   219  110  231 1    
   220  111  232 1    
   221  111  233 1    
   222  111  234 1    
   223  112  113 2    
   224  112  114 am   BACKBONE|DICT|INTERRES
   225  114  115 1    
   226  114  235 1    
   227  115  116 1    
   228  115  117 1    
   229  115  236 1    
   230  116  237 1    
   231  116  238 1    
   232  116  239 1    
   233  117  118 2    
   234  117  119 am   BACKBONE|DICT|INTERRES
   235  119  120 1    
   236  119  240 1    
   237  120  121 1    
   238  120  124 1    
   239  120  241 1    
   240  121  122 am   BACKBONE|DICT|INTERRES
   241  121  123 2    
   242  122  242 1    
   243  122  243 1    
   244  124  125 1    
   245  124  244 1    
   246  124  245 1    
   247  125  126 1    
   248  126  246 1    
   249  126  247 1    
@<TRIPOS>SUBSTRUCTURE
     1 UNK         1 GROUP             0       ****    0 ROOT    
