@<TRIPOS>MOLECULE
3R540
247   249    1
SMALL
USER_CHARGES


@<TRIPOS>ATOM
      1 CA         -4.2702  -15.9856  -49.5411 C.3       0 UNK        -0.1800 
      2 C          -3.2055  -15.6383  -48.5110 C.2       0 UNK         0.5000 
      3 O          -3.2696  -16.1136  -47.3783 O.2       0 UNK        -0.5000 
      4 N          -2.2315  -14.8089  -48.9124 N.am      1 UNK        -0.5000 
      5 CA         -1.0651  -14.3823  -48.1223 C.3       1 UNK         0.1400 
      6 C6         -0.1273  -15.5475  -47.7068 C.3       23 UNK        -0.0398 
      7 S7          0.4064  -16.5841  -49.1084 S.3       23 UNK        -0.2404 
      8 C8          2.1033  -16.0039  -49.4059 C.3       23 UNK        -0.0205 
      9 C9          2.9625  -17.1346  -49.9452 C.ar      23 UNK        -0.0193 
     10 C10         3.2444  -17.2428  -51.3102 C.ar      23 UNK        -0.1150 
     11 C11         4.0420  -18.2891  -51.7873 C.ar      23 UNK        -0.0193 
     12 C12         4.5535  -19.2308  -50.8871 C.ar      23 UNK        -0.1150 
     13 C13         4.2630  -19.1391  -49.5232 C.ar      23 UNK        -0.0193 
     14 C14         3.4772  -18.0839  -49.0611 C.ar      23 UNK        -0.1150 
     15 C15         4.7970  -20.1711  -48.5422 C.3       23 UNK        -0.0205 
     16 S16         3.8012  -21.6936  -48.5446 S.3       23 UNK        -0.2404 
     17 C17         2.2024  -21.1218  -47.8669 C.3       23 UNK        -0.0398 
     18 CA          1.2159  -22.3000  -47.6882 C.3       11 UNK         0.1400 
     19 N           1.7266  -23.3218  -46.7731 N.am      11 UNK        -0.5000 
     20 C           1.2764  -24.5797  -46.7062 C.2       10 UNK         0.5000 
     21 O           0.3754  -25.0243  -47.4178 O.2       10 UNK        -0.5000 
     22 CA          1.9234  -25.4761  -45.6343 C.3       10 UNK         0.1400 
     23 CB          3.2505  -26.0583  -46.1436 C.3       10 UNK        -0.1800 
     24 N           2.1563  -24.7629  -44.3757 N.am      10 UNK        -0.5000 
     25 C           1.1760  -24.3383  -43.5672 C.2       9 UNK         0.5000 
     26 O          -0.0192  -24.5342  -43.7870 O.2       9 UNK        -0.5000 
     27 CA          1.5944  -23.5286  -42.3241 C.3       9 UNK         0.1400 
     28 CB          1.9692  -24.4722  -41.1713 C.3       9 UNK        -0.1800 
     29 N           2.6868  -22.5714  -42.5416 N.am      9 UNK        -0.5000 
     30 C           2.6916  -21.5963  -43.4606 C.2       8 UNK         0.5000 
     31 O           1.8429  -21.4850  -44.3437 O.2       8 UNK        -0.5000 
     32 CA          3.8622  -20.5988  -43.4147 C.3       8 UNK         0.1400 
     33 CB          5.0201  -21.1077  -44.2876 C.3       8 UNK        -0.1800 
     34 N           3.4711  -19.2669  -43.8851 N.am      8 UNK        -0.5000 
     35 C           2.5693  -18.4637  -43.3011 C.2       7 UNK         0.5000 
     36 O           2.0085  -18.7327  -42.2356 O.2       7 UNK        -0.5000 
     37 CA          2.2890  -17.1045  -43.9847 C.3       7 UNK         0.1400 
     38 CB          2.7152  -17.0424  -45.4676 C.3       7 UNK        -0.1800 
     39 N           0.8993  -16.6642  -43.8198 N.am      7 UNK        -0.5000 
     40 C          -0.2035  -17.2704  -44.2958 C.2       6 UNK         0.5000 
     41 O          -0.1687  -18.2595  -45.0264 O.2       6 UNK        -0.5000 
     42 CA         -1.5816  -16.6870  -43.9161 C.3       6 UNK         0.1400 
     43 CB         -2.4803  -17.7442  -43.2488 C.3       6 UNK        -0.1800 
     44 N          -1.4710  -15.5125  -43.0546 N.am      6 UNK        -0.5000 
     45 C          -2.3625  -14.5241  -42.9510 C.2       5 UNK         0.5000 
     46 O          -3.4683  -14.5310  -43.4918 O.2       5 UNK        -0.5000 
     47 CA         -1.9275  -13.2999  -42.1224 C.3       5 UNK         0.1400 
     48 CB         -1.7830  -13.6351  -40.6248 C.3       5 UNK        -0.1800 
     49 N          -0.7259  -12.6481  -42.6594 N.am      5 UNK        -0.5000 
     50 C           0.5292  -13.1197  -42.7429 C.2       4 UNK         0.5000 
     51 O           0.8850  -14.1988  -42.2623 O.2       4 UNK        -0.5000 
     52 CA          1.5388  -12.2731  -43.5444 C.3       4 UNK         0.1400 
     53 CB          2.5829  -13.1504  -44.2586 C.3       4 UNK        -0.1800 
     54 N           0.8422  -11.4732  -44.5503 N.am      4 UNK        -0.5000 
     55 C           0.8279  -10.1363  -44.6235 C.2       3 UNK         0.5000 
     56 O           1.4726   -9.4031  -43.8730 O.2       3 UNK        -0.5000 
     57 CA         -0.0738   -9.5030  -45.7058 C.3       3 UNK         0.1400 
     58 CB          0.7662   -9.0760  -46.9192 C.3       3 UNK        -0.1800 
     59 N          -1.1559  -10.3790  -46.1662 N.am      3 UNK        -0.5000 
     60 C          -2.1709  -10.8200  -45.4094 C.2       2 UNK         0.5000 
     61 O          -2.3351  -10.4937  -44.2334 O.2       2 UNK        -0.5000 
     62 CA         -3.1292  -11.8416  -46.0531 C.3       2 UNK         0.1400 
     63 CB         -4.3504  -11.1281  -46.6515 C.3       2 UNK        -0.1800 
     64 N          -2.5212  -12.6936  -47.0824 N.am      2 UNK        -0.5000 
     65 C          -1.4582  -13.4966  -46.9169 C.2       1 UNK         0.5000 
     66 O          -0.7923  -13.5347  -45.8808 O.2       1 UNK        -0.5000 
     67 C          -0.1853  -21.8265  -47.2536 C.2       11 UNK         0.5000 
     68 O          -1.0511  -21.6497  -48.1072 O.2       11 UNK        -0.5000 
     69 N          -0.4083  -21.7047  -45.9376 N.am      12 UNK        -0.5000 
     70 CA         -1.6983  -21.4086  -45.3143 C.3       12 UNK         0.1400 
     71 CB         -1.5058  -21.2271  -43.8001 C.3       12 UNK        -0.1800 
     72 C          -2.7502  -22.4986  -45.5877 C.2       12 UNK         0.5000 
     73 O          -3.9026  -22.1735  -45.8736 O.2       12 UNK        -0.5000 
     74 N          -2.3309  -23.7708  -45.5206 N.am      13 UNK        -0.5000 
     75 CA         -3.1564  -24.9298  -45.8588 C.3       13 UNK         0.1400 
     76 CB         -2.4421  -26.2199  -45.4291 C.3       13 UNK        -0.1800 
     77 C          -3.5202  -24.9720  -47.3537 C.2       13 UNK         0.5000 
     78 O          -4.6686  -25.2597  -47.6888 O.2       13 UNK        -0.5000 
     79 N          -2.5523  -24.6506  -48.2231 N.am      14 UNK        -0.5000 
     80 CA         -2.7476  -24.5401  -49.6691 C.3       14 UNK         0.1400 
     81 CB         -1.3801  -24.4565  -50.3594 C.3       14 UNK        -0.1800 
     82 C          -3.6542  -23.3557  -50.0608 C.2       14 UNK         0.5000 
     83 O          -4.4919  -23.5018  -50.9501 O.2       14 UNK        -0.5000 
     84 N          -3.5225  -22.2234  -49.3534 N.am      15 UNK        -0.5000 
     85 CA         -4.3141  -21.0035  -49.5403 C.3       15 UNK         0.1400 
     86 CB         -3.7666  -19.8854  -48.6405 C.3       15 UNK        -0.1800 
     87 C          -5.8276  -21.1787  -49.3082 C.2       15 UNK         0.5000 
     88 O          -6.6058  -20.3640  -49.8050 O.2       15 UNK        -0.5000 
     89 N          -6.2339  -22.2448  -48.6039 N.am      16 UNK        -0.5000 
     90 CA         -7.6341  -22.6408  -48.4415 C.3       16 UNK         0.1400 
     91 CB         -7.7257  -23.7959  -47.4346 C.3       16 UNK        -0.1800 
     92 C          -8.3118  -23.0264  -49.7734 C.2       16 UNK         0.5000 
     93 O          -9.5258  -22.8622  -49.9014 O.2       16 UNK        -0.5000 
     94 N          -7.5245  -23.4827  -50.7591 N.am      17 UNK        -0.5000 
     95 CA         -7.9662  -23.7732  -52.1219 C.3       17 UNK         0.1400 
     96 CB         -7.0693  -24.8735  -52.7177 C.3       17 UNK        -0.1800 
     97 C          -7.9836  -22.4887  -52.9759 C.2       17 UNK         0.5000 
     98 O          -7.2624  -22.3949  -53.9688 O.2       17 UNK        -0.5000 
     99 N          -8.8033  -21.5130  -52.5598 N.am      18 UNK        -0.5000 
    100 CA        -9.0729  -20.2347  -53.2298 C.3       18 UNK         0.1400 
    101 CB        -9.8911  -20.4717  -54.5166 C.3       18 UNK        -0.1800 
    102 C         -7.8078  -19.3808  -53.4702 C.2       18 UNK         0.5000 
    103 O         -7.5899  -18.8920  -54.5802 O.2       18 UNK        -0.5000 
    104 N         -6.9973  -19.2234  -52.4138 N.am      19 UNK        -0.5000 
    105 CA        -5.7691  -18.4226  -52.3386 C.3       19 UNK         0.1400 
    106 CB        -6.0420  -16.9357  -52.6513 C.3       19 UNK        -0.1800 
    107 C         -4.5766  -18.9866  -53.1386 C.2       19 UNK         0.5000 
    108 O         -3.5741  -18.2872  -53.2944 O.2       19 UNK        -0.5000 
    109 N         -4.6565  -20.2470  -53.5890 N.am      20 UNK        -0.5000 
    110 CA        -3.5971  -20.9568  -54.3131 C.3       20 UNK         0.1400 
    111 CB        -4.2281  -22.1022  -55.1236 C.3       20 UNK        -0.1800 
    112 C         -2.4739  -21.4499  -53.3734 C.2       20 UNK         0.5000 
    113 O         -2.1805  -22.6445  -53.3322 O.2       20 UNK        -0.5000 
    114 N         -1.8631  -20.5139  -52.6352 N.am      21 UNK        -0.5000 
    115 CA        -0.8500  -20.7425  -51.5994 C.3       21 UNK         0.1400 
    116 CB        -0.5097  -19.3957  -50.9489 C.3       21 UNK        -0.1800 
    117 C          0.4416  -21.4255  -52.0895 C.2       21 UNK         0.5000 
    118 O          1.1153  -22.0877  -51.3010 O.2       21 UNK        -0.5000 
    119 N          0.7618  -21.2515  -53.3740 N.am      22 UNK        -0.5000 
    120 CA         1.9596  -21.7886  -54.0323 C.3       22 UNK         0.1400 
    121 C          1.7216  -22.1410  -55.5290 C.2       22 UNK         0.5000 
    122 N          0.4850  -22.3722  -55.9563 N.am      22 UNK        -0.7600 
    123 O          2.6618  -22.2307  -56.3139 O.2       22 UNK        -0.5000 
    124 C124        3.2185  -20.9196  -53.7637 C.3       23 UNK        -0.0398 
    125 S125        3.0273  -19.1616  -54.2292 S.3       23 UNK        -0.2404 
    126 C126        4.3683  -18.3864  -53.2712 C.3       23 UNK        -0.0205 
    127 H127       -5.2221  -16.1986  -49.0542 H         1 UNK         0.0600 
    128 H128       -3.9665  -16.8677  -50.1042 H         1 UNK         0.0600 
    129 H129       -4.4255  -15.1659  -50.2427 H         1 UNK         0.0600 
    130 H130       -2.2476  -14.4699  -49.8641 H         1 UNK         0.3000 
    131 H131       -0.4882  -13.7295  -48.7789 H         1 UNK         0.0600 
    132 H132       -0.6307  -16.2012  -46.9949 H         1 UNK         0.0800 
    133 H133        0.7507  -15.1646  -47.1867 H         1 UNK         0.0800 
    134 H134        2.0819  -15.1643  -50.1021 H         1 UNK         0.0800 
    135 H135        2.5508  -15.6310  -48.4839 H         1 UNK         0.0800 
    136 H136        2.8449  -16.5143  -52.0018 H         1 UNK         0.1150 
    137 H137        5.1708  -20.0421  -51.2465 H         1 UNK         0.1150 
    138 H138        3.2537  -18.0076  -48.0096 H         1 UNK         0.1150 
    139 H139        5.8253  -20.4228  -48.8056 H         1 UNK         0.0800 
    140 H140        4.8337  -19.7624  -47.5313 H         1 UNK         0.0800 
    141 H141        1.7851  -20.3845  -48.5541 H         1 UNK         0.0800 
    142 H142        2.3735  -20.6075  -46.9196 H         1 UNK         0.0800 
    143 H143        1.0954  -22.7707  -48.6662 H         1 UNK         0.0600 
    144 H144        2.4232  -23.0170  -46.1095 H         1 UNK         0.3000 
    145 H145        1.2405  -26.3054  -45.4373 H         1 UNK         0.0600 
    146 H146        3.6804  -26.7514  -45.4204 H         1 UNK         0.0600 
    147 H147        3.1025  -26.6097  -47.0730 H         1 UNK         0.0600 
    148 H148        3.9861  -25.2769  -46.3394 H         1 UNK         0.0600 
    149 H149        3.1133  -24.5593  -44.1279 H         1 UNK         0.3000 
    150 H150        0.7235  -22.9496  -42.0113 H         1 UNK         0.0600 
    151 H151        2.8691  -25.0458  -41.3966 H         1 UNK         0.0600 
    152 H152        1.1671  -25.1843  -40.9721 H         1 UNK         0.0600 
    153 H153        2.1453  -23.9186  -40.2488 H         1 UNK         0.0600 
    154 H154        3.4428  -22.6072  -41.8731 H         1 UNK         0.3000 
    155 H155        4.2070  -20.5063  -42.3829 H         1 UNK         0.0600 
    156 H156        4.7210  -21.2141  -45.3313 H         1 UNK         0.0600 
    157 H157        5.3693  -22.0831  -43.9465 H         1 UNK         0.0600 
    158 H158        5.8722  -20.4288  -44.2500 H         1 UNK         0.0600 
    159 H159        3.8708  -18.9717  -44.7622 H         1 UNK         0.3000 
    160 H160        2.8932  -16.3750  -43.4440 H         1 UNK         0.0600 
    161 H161        2.1890  -17.7872  -46.0645 H         1 UNK         0.0600 
    162 H162        3.7863  -17.2075  -45.5872 H         1 UNK         0.0600 
    163 H163        2.5021  -16.0636  -45.8939 H         1 UNK         0.0600 
    164 H164        0.8028  -15.8415  -43.2366 H         1 UNK         0.3000 
    165 H165       -2.0498  -16.3769  -44.8527 H         1 UNK         0.0600 
    166 H166       -3.4541  -17.3334  -42.9827 H         1 UNK         0.0600 
    167 H167       -2.6624  -18.5774  -43.9271 H         1 UNK         0.0600 
    168 H168       -2.0233  -18.1438  -42.3429 H         1 UNK         0.0600 
    169 H169       -0.5892  -15.3735  -42.5748 H         1 UNK         0.3000 
    170 H170       -2.7259  -12.5613  -42.2119 H         1 UNK         0.0600 
    171 H171       -2.7170  -14.0338  -40.2272 H         1 UNK         0.0600 
    172 H172       -1.0087  -14.3788  -40.4371 H         1 UNK         0.0600 
    173 H173       -1.5377  -12.7447  -40.0461 H         1 UNK         0.0600 
    174 H174       -0.9126  -11.7678  -43.1242 H         1 UNK         0.3000 
    175 H175        2.0555  -11.6332  -42.8269 H         1 UNK         0.0600 
    176 H176        2.1089  -13.8482  -44.9496 H         1 UNK         0.0600 
    177 H177        3.2849  -12.5412  -44.8279 H         1 UNK         0.0600 
    178 H178        3.1665  -13.7333  -43.5452 H         1 UNK         0.0600 
    179 H179        0.2542  -12.0066  -45.1847 H         1 UNK         0.3000 
    180 H180       -0.5277   -8.6103  -45.2706 H         1 UNK         0.0600 
    181 H181        1.2298   -9.9335  -47.4087 H         1 UNK         0.0600 
    182 H182        1.5657   -8.3960  -46.6219 H         1 UNK         0.0600 
    183 H183        0.1571   -8.5548  -47.6580 H         1 UNK         0.0600 
    184 H184       -1.0987  -10.7047  -47.1198 H         1 UNK         0.3000 
    185 H185       -3.4791  -12.4991  -45.2560 H         1 UNK         0.0600 
    186 H186       -4.8441  -10.5045  -45.9048 H         1 UNK         0.0600 
    187 H187       -4.0707  -10.4830  -47.4854 H         1 UNK         0.0600 
    188 H188       -5.0886  -11.8445  -47.0124 H         1 UNK         0.0600 
    189 H189       -3.0024  -12.7319  -47.9692 H         1 UNK         0.3000 
    190 H190        0.3872  -21.7893  -45.3065 H         1 UNK         0.3000 
    191 H191       -2.0614  -20.4683  -45.7338 H         1 UNK         0.0600 
    192 H192       -0.7739  -20.4496  -43.5816 H         1 UNK         0.0600 
    193 H193       -2.4420  -20.9420  -43.3193 H         1 UNK         0.0600 
    194 H194       -1.1642  -22.1451  -43.3242 H         1 UNK         0.0600 
    195 H195       -1.3843  -23.9592  -45.2081 H         1 UNK         0.3000 
    196 H196       -4.0875  -24.8550  -45.2930 H         1 UNK         0.0600 
    197 H197       -3.0485  -27.0969  -45.6585 H         1 UNK         0.0600 
    198 H198       -2.2541  -26.2262  -44.3554 H         1 UNK         0.0600 
    199 H199       -1.4845  -26.3407  -45.9358 H         1 UNK         0.0600 
    200 H200       -1.6178  -24.4722  -47.8723 H         1 UNK         0.3000 
    201 H201       -3.2386  -25.4532  -50.0122 H         1 UNK         0.0600 
    202 H202       -1.4891  -24.3789  -51.4410 H         1 UNK         0.0600 
    203 H203       -0.7821  -25.3450  -50.1563 H         1 UNK         0.0600 
    204 H204       -0.8114  -23.5921  -50.0202 H         1 UNK         0.0600 
    205 H205       -2.7630  -22.1621  -48.6794 H         1 UNK         0.3000 
    206 H206       -4.1836  -20.6959  -50.5788 H         1 UNK         0.0600 
    207 H207       -3.8538  -20.1403  -47.5849 H         1 UNK         0.0600 
    208 H208       -4.3129  -18.9546  -48.7943 H         1 UNK         0.0600 
    209 H209       -2.7171  -19.6817  -48.8464 H         1 UNK         0.0600 
    210 H210       -5.5343  -22.8658  -48.2200 H         1 UNK         0.3000 
    211 H211       -8.1748  -21.7860  -48.0303 H         1 UNK         0.0600 
    212 H212       -7.2588  -24.7024  -47.8203 H         1 UNK         0.0600 
    213 H213       -8.7662  -24.0352  -47.2119 H         1 UNK         0.0600 
    214 H214       -7.2403  -23.5414  -46.4920 H         1 UNK         0.0600 
    215 H215       -6.5228  -23.5336  -50.6028 H         1 UNK         0.3000 
    216 H216       -8.9862  -24.1622  -52.0965 H         1 UNK         0.0600 
    217 H217       -7.4172  -25.1636  -53.7098 H         1 UNK         0.0600 
    218 H218       -7.0767  -25.7689  -52.0960 H         1 UNK         0.0600 
    219 H219       -6.0348  -24.5447  -52.8188 H         1 UNK         0.0600 
    220 H220       -9.3209  -21.6818  -51.7046 H         1 UNK         0.3000 
    221 H221       -9.6991  -19.6583  -52.5473 H         1 UNK         0.0600 
    222 H222       -9.3192  -21.0223  -55.2644 H         1 UNK         0.0600 
    223 H223      -10.7998  -21.0362  -54.3077 H         1 UNK         0.0600 
    224 H224      -10.1949  -19.5262  -54.9675 H         1 UNK         0.0600 
    225 H225       -7.2306  -19.7026  -51.5480 H         1 UNK         0.3000 
    226 H226       -5.4574  -18.4689  -51.2953 H         1 UNK         0.0600 
    227 H227       -6.8570  -16.5476  -52.0405 H         1 UNK         0.0600 
    228 H228       -5.1644  -16.3231  -52.4433 H         1 UNK         0.0600 
    229 H229       -6.3003  -16.7786  -53.6985 H         1 UNK         0.0600 
    230 H230       -5.5106  -20.7651  -53.4296 H         1 UNK         0.3000 
    231 H231       -3.1409  -20.2662  -55.0253 H         1 UNK         0.0600 
    232 H232       -4.6620  -22.8620  -54.4722 H         1 UNK         0.0600 
    233 H233       -3.4841  -22.5945  -55.7509 H         1 UNK         0.0600 
    234 H234       -5.0162  -21.7351  -55.7813 H         1 UNK         0.0600 
    235 H235       -2.1806  -19.5567  -52.7547 H         1 UNK         0.3000 
    236 H236       -1.2970  -21.3862  -50.8422 H         1 UNK         0.0600 
    237 H237        0.1435  -19.5361  -50.0874 H         1 UNK         0.0600 
    238 H238       -1.4032  -18.8806  -50.5978 H         1 UNK         0.0600 
    239 H239        0.0052  -18.7309  -51.6439 H         1 UNK         0.0600 
    240 H240        0.1688  -20.6722  -53.9498 H         1 UNK         0.3000 
    241 H241        2.1611  -22.7641  -53.5858 H         1 UNK         0.0600 
    242 H242       -0.2870  -22.4057  -55.3090 H         1 UNK         0.3800 
    243 H243        0.3363  -22.6081  -56.9252 H         1 UNK         0.3800 
    244 H244        3.4476  -20.9752  -52.7003 H         1 UNK         0.0800 
    245 H245        4.0930  -21.3283  -54.2722 H         1 UNK         0.0800 
    246 H246        5.2953  -18.9407  -53.4266 H         1 UNK         0.0800 
    247 H247        4.5460  -17.3852  -53.6666 H         1 UNK         0.0800 
@<TRIPOS>BOND
     1    1    2 1    
     2    1  127 1    
     3    1  128 1    
     4    1  129 1    
     5    2    3 2    
     6    2    4 am   BACKBONE|DICT|INTERRES
     7    4    5 1    
     8    4  130 1    
     9    5    6 1    
    10    5   65 1    
    11    5  131 1    
    12    6    7 1    
    13    6  132 1    
    14    6  133 1    
    15    7    8 1    
    16    8    9 1    
    17    8  134 1    
    18    8  135 1    
    19    9   10 ar   
    20    9   14 ar   
    21   10   11 ar   
    22   10  136 1    
    23   11   12 ar   
    24   11  126 1    
    25   12   13 ar   
    26   12  137 1    
    27   13   14 ar   
    28   13   15 1    
    29   14  138 1    
    30   15   16 1    
    31   15  139 1    
    32   15  140 1    
    33   16   17 1    
    34   17   18 1    
    35   17  141 1    
    36   17  142 1    
    37   18   19 1    
    38   18   67 1    
    39   18  143 1    
    40   19   20 am   BACKBONE|DICT|INTERRES
    41   19  144 1    
    42   20   21 2    
    43   20   22 1    
    44   22   23 1    
    45   22   24 1    
    46   22  145 1    
    47   23  146 1    
    48   23  147 1    
    49   23  148 1    
    50   24   25 am   BACKBONE|DICT|INTERRES
    51   24  149 1    
    52   25   26 2    
    53   25   27 1    
    54   27   28 1    
    55   27   29 1    
    56   27  150 1    
    57   28  151 1    
    58   28  152 1    
    59   28  153 1    
    60   29   30 am   BACKBONE|DICT|INTERRES
    61   29  154 1    
    62   30   31 2    
    63   30   32 1    
    64   32   33 1    
    65   32   34 1    
    66   32  155 1    
    67   33  156 1    
    68   33  157 1    
    69   33  158 1    
    70   34   35 am   BACKBONE|DICT|INTERRES
    71   34  159 1    
    72   35   36 2    
    73   35   37 1    
    74   37   38 1    
    75   37   39 1    
    76   37  160 1    
    77   38  161 1    
    78   38  162 1    
    79   38  163 1    
    80   39   40 am   BACKBONE|DICT|INTERRES
    81   39  164 1    
    82   40   41 2    
    83   40   42 1    
    84   42   43 1    
    85   42   44 1    
    86   42  165 1    
    87   43  166 1    
    88   43  167 1    
    89   43  168 1    
    90   44   45 am   BACKBONE|DICT|INTERRES
    91   44  169 1    
    92   45   46 2    
    93   45   47 1    
    94   47   48 1    
    95   47   49 1    
    96   47  170 1    
    97   48  171 1    
    98   48  172 1    
    99   48  173 1    
   100   49   50 am   BACKBONE|DICT|INTERRES
   101   49  174 1    
   102   50   51 2    
   103   50   52 1    
   104   52   53 1    
   105   52   54 1    
   106   52  175 1    
   107   53  176 1    
   108   53  177 1    
   109   53  178 1    
   110   54   55 am   BACKBONE|DICT|INTERRES
   111   54  179 1    
   112   55   56 2    
   113   55   57 1    
   114   57   58 1    
   115   57   59 1    
   116   57  180 1    
   117   58  181 1    
   118   58  182 1    
   119   58  183 1    
   120   59   60 am   BACKBONE|DICT|INTERRES
   121   59  184 1    
   122   60   61 2    
   123   60   62 1    
   124   62   63 1    
   125   62   64 1    
   126   62  185 1    
   127   63  186 1    
   128   63  187 1    
   129   63  188 1    
   130   64   65 am   BACKBONE|DICT|INTERRES
   131   64  189 1    
   132   65   66 2    
   133   67   68 2    
   134   67   69 am   BACKBONE|DICT|INTERRES
   135   69   70 1    
   136   69  190 1    
   137   70   71 1    
   138   70   72 1    
   139   70  191 1    
   140   71  192 1    
   141   71  193 1    
   142   71  194 1    
   143   72   73 2    
   144   72   74 am   BACKBONE|DICT|INTERRES
   145   74   75 1    
   146   74  195 1    
   147   75   76 1    
   148   75   77 1    
   149   75  196 1    
   150   76  197 1    
   151   76  198 1    
   152   76  199 1    
   153   77   78 2    
   154   77   79 am   BACKBONE|DICT|INTERRES
   155   79   80 1    
   156   79  200 1    
   157   80   81 1    
   158   80   82 1    
   159   80  201 1    
   160   81  202 1    
   161   81  203 1    
   162   81  204 1    
   163   82   83 2    
   164   82   84 am   BACKBONE|DICT|INTERRES
   165   84   85 1    
   166   84  205 1    
   167   85   86 1    
   168   85   87 1    
   169   85  206 1    
   170   86  207 1    
   171   86  208 1    
   172   86  209 1    
   173   87   88 2    
   174   87   89 am   BACKBONE|DICT|INTERRES
   175   89   90 1    
   176   89  210 1    
   177   90   91 1    
   178   90   92 1    
   179   90  211 1    
   180   91  212 1    
   181   91  213 1    
   182   91  214 1    
   183   92   93 2    
   184   92   94 am   BACKBONE|DICT|INTERRES
   185   94   95 1    
   186   94  215 1    
   187   95   96 1    
   188   95   97 1    
   189   95  216 1    
   190   96  217 1    
   191   96  218 1    
   192   96  219 1    
   193   97   98 2    
   194   97   99 am   BACKBONE|DICT|INTERRES
   195   99  100 1    
   196   99  220 1    
   197  100  101 1    
   198  100  102 1    
   199  100  221 1    
   200  101  222 1    
   201  101  223 1    
   202  101  224 1    
   203  102  103 2    
   204  102  104 am   BACKBONE|DICT|INTERRES
   205  104  105 1    
   206  104  225 1    
   207  105  106 1    
   208  105  107 1    
   209  105  226 1    
   210  106  227 1    
   211  106  228 1    
   212  106  229 1    
   213  107  108 2    
   214  107  109 am   BACKBONE|DICT|INTERRES
   215  109  110 1    
   216  109  230 1    
   217  110  111 1    
   218  110  112 1    
   219  110  231 1    
   220  111  232 1    
   221  111  233 1    
   222  111  234 1    
   223  112  113 2    
   224  112  114 am   BACKBONE|DICT|INTERRES
   225  114  115 1    
   226  114  235 1    
   227  115  116 1    
   228  115  117 1    
   229  115  236 1    
   230  116  237 1    
   231  116  238 1    
   232  116  239 1    
   233  117  118 2    
   234  117  119 am   BACKBONE|DICT|INTERRES
   235  119  120 1    
   236  119  240 1    
   237  120  121 1    
   238  120  124 1    
   239  120  241 1    
   240  121  122 am   BACKBONE|DICT|INTERRES
   241  121  123 2    
   242  122  242 1    
   243  122  243 1    
   244  124  125 1    
   245  124  244 1    
   246  124  245 1    
   247  125  126 1    
   248  126  246 1    
   249  126  247 1    
@<TRIPOS>SUBSTRUCTURE
     1 UNK         1 GROUP             0       ****    0 ROOT    
