@<TRIPOS>MOLECULE
3R540
247   249    1
SMALL
USER_CHARGES


@<TRIPOS>ATOM
      1 CA         -2.4151  -17.9211  -48.1405 C.3       0 UNK        -0.1800 
      2 C          -1.7245  -16.7534  -47.4555 C.2       0 UNK         0.5000 
      3 O          -2.3776  -15.9825  -46.7519 O.2       0 UNK        -0.5000 
      4 N          -0.3972  -16.6422  -47.6129 N.am      1 UNK        -0.5000 
      5 CA          0.4512  -15.5900  -47.0260 C.3       1 UNK         0.1400 
      6 C6          1.8847  -15.6136  -47.6040 C.3       23 UNK        -0.0398 
      7 S7          1.9292  -15.1529  -49.3680 S.3       23 UNK        -0.2404 
      8 C8          2.9164  -16.5046  -50.0855 C.3       23 UNK        -0.0205 
      9 C9          2.1743  -17.8307  -50.0433 C.ar      23 UNK        -0.0193 
     10 C10         1.1127  -18.0649  -50.9193 C.ar      23 UNK        -0.1150 
     11 C11         0.4027  -19.2682  -50.8761 C.ar      23 UNK        -0.0193 
     12 C12         0.7749  -20.2466  -49.9469 C.ar      23 UNK        -0.1150 
     13 C13         1.8567  -20.0367  -49.0844 C.ar      23 UNK        -0.0193 
     14 C14         2.5521  -18.8258  -49.1393 C.ar      23 UNK        -0.1150 
     15 C15         2.2986  -21.1333  -48.1228 C.3       23 UNK        -0.0205 
     16 S16         2.3878  -20.5799  -46.3876 S.3       23 UNK        -0.2404 
     17 C17         0.6400  -20.2094  -46.0376 C.3       23 UNK        -0.0398 
     18 CA         -0.1384  -21.4626  -45.5782 C.3       11 UNK         0.1400 
     19 N           0.3724  -22.0192  -44.3206 N.am      11 UNK        -0.5000 
     20 C           0.0600  -23.2372  -43.8517 C.2       10 UNK         0.5000 
     21 O          -0.6859  -24.0162  -44.4447 O.2       10 UNK        -0.5000 
     22 CA          0.6183  -23.6393  -42.4713 C.3       10 UNK         0.1400 
     23 CB          1.9117  -24.4508  -42.6357 C.3       10 UNK        -0.1800 
     24 N           0.8783  -22.5085  -41.5782 N.am      10 UNK        -0.5000 
     25 C          -0.0185  -21.5880  -41.1964 C.2       9 UNK         0.5000 
     26 O          -1.2055  -21.6186  -41.5193 O.2       9 UNK        -0.5000 
     27 CA          0.5064  -20.4032  -40.3618 C.3       9 UNK         0.1400 
     28 CB          0.2368  -20.6429  -38.8690 C.3       9 UNK        -0.1800 
     29 N           1.9298  -20.0941  -40.5472 N.am      9 UNK        -0.5000 
     30 C           2.5335  -19.8152  -41.7113 C.2       8 UNK         0.5000 
     31 O           1.9777  -19.8816  -42.8106 O.2       8 UNK        -0.5000 
     32 CA          4.0298  -19.4628  -41.6230 C.3       8 UNK         0.1400 
     33 CB          4.8742  -20.7468  -41.6110 C.3       8 UNK        -0.1800 
     34 N           4.4748  -18.6209  -42.7328 N.am      8 UNK        -0.5000 
     35 C           4.0483  -17.3761  -42.9761 C.2       7 UNK         0.5000 
     36 O           3.2651  -16.7572  -42.2483 O.2       7 UNK        -0.5000 
     37 CA          4.5995  -16.7179  -44.2495 C.3       7 UNK         0.1400 
     38 CB          4.1388  -17.4650  -45.5118 C.3       7 UNK        -0.1800 
     39 N           4.1439  -15.3339  -44.2990 N.am      7 UNK        -0.5000 
     40 C           4.8148  -14.3024  -44.8226 C.2       6 UNK         0.5000 
     41 O           5.8838  -14.4223  -45.4223 O.2       6 UNK        -0.5000 
     42 CA          4.2067  -12.8983  -44.6373 C.3       6 UNK         0.1400 
     43 CB          3.8243  -12.2683  -45.9872 C.3       6 UNK        -0.1800 
     44 N           3.0176  -12.9191  -43.7861 N.am      6 UNK        -0.5000 
     45 C           2.9694  -12.5484  -42.5003 C.2       5 UNK         0.5000 
     46 O           3.9518  -12.1651  -41.8627 O.2       5 UNK        -0.5000 
     47 CA          1.5812  -12.6196  -41.8250 C.3       5 UNK         0.1400 
     48 CB          1.4557  -11.6978  -40.5945 C.3       5 UNK        -0.1800 
     49 N           0.4818  -12.3922  -42.7702 N.am      5 UNK        -0.5000 
     50 C           0.2370  -11.2906  -43.4992 C.2       4 UNK         0.5000 
     51 O           0.8589  -10.2345  -43.3803 O.2       4 UNK        -0.5000 
     52 CA         -0.8617  -11.3940  -44.5771 C.3       4 UNK         0.1400 
     53 CB         -0.2346  -11.3680  -45.9812 C.3       4 UNK        -0.1800 
     54 N          -1.6614  -12.6129  -44.4523 N.am      4 UNK        -0.5000 
     55 C          -2.7051  -12.7664  -43.6275 C.2       3 UNK         0.5000 
     56 O          -3.1676  -11.8634  -42.9300 O.2       3 UNK        -0.5000 
     57 CA         -3.3135  -14.1791  -43.5508 C.3       3 UNK         0.1400 
     58 CB         -4.4784  -14.3210  -44.5417 C.3       3 UNK        -0.1800 
     59 N          -2.3291  -15.2339  -43.8094 N.am      3 UNK        -0.5000 
     60 C          -1.3443  -15.5746  -42.9629 C.2       2 UNK         0.5000 
     61 O          -1.1542  -15.0232  -41.8797 O.2       2 UNK        -0.5000 
     62 CA         -0.3917  -16.6967  -43.4177 C.3       2 UNK         0.1400 
     63 CB         -1.0332  -18.0574  -43.1062 C.3       2 UNK        -0.1800 
     64 N          -0.0777  -16.6308  -44.8457 N.am      2 UNK        -0.5000 
     65 C           0.4817  -15.5892  -45.4780 C.2       1 UNK         0.5000 
     66 O           0.9611  -14.6195  -44.8882 O.2       1 UNK        -0.5000 
     67 C          -1.6576  -21.1877  -45.5514 C.2       11 UNK         0.5000 
     68 O          -2.2607  -21.1057  -46.6200 O.2       11 UNK        -0.5000 
     69 N          -2.2717  -21.1008  -44.3605 N.am      12 UNK        -0.5000 
     70 CA         -3.7277  -21.0201  -44.2050 C.3       12 UNK         0.1400 
     71 CB         -4.0668  -20.5513  -42.7816 C.3       12 UNK        -0.1800 
     72 C          -4.4373  -22.3560  -44.5145 C.2       12 UNK         0.5000 
     73 O          -5.6396  -22.3504  -44.7794 O.2       12 UNK        -0.5000 
     74 N          -3.6884  -23.4674  -44.4821 N.am      13 UNK        -0.5000 
     75 CA         -4.1569  -24.8218  -44.7736 C.3       13 UNK         0.1400 
     76 CB         -3.6563  -25.7586  -43.6598 C.3       13 UNK        -0.1800 
     77 C          -3.7008  -25.3083  -46.1654 C.2       13 UNK         0.5000 
     78 O          -3.8524  -26.4943  -46.4648 O.2       13 UNK        -0.5000 
     79 N          -3.1459  -24.4089  -46.9926 N.am      14 UNK        -0.5000 
     80 CA         -2.7291  -24.6882  -48.3679 C.3       14 UNK         0.1400 
     81 CB         -1.9254  -23.4918  -48.9046 C.3       14 UNK        -0.1800 
     82 C          -3.9267  -24.9839  -49.2915 C.2       14 UNK         0.5000 
     83 O          -5.0305  -24.4870  -49.0538 O.2       14 UNK        -0.5000 
     84 N          -3.6716  -25.7553  -50.3518 N.am      15 UNK        -0.5000 
     85 CA         -4.6209  -26.1147  -51.4003 C.3       15 UNK         0.1400 
     86 CB         -5.5897  -27.1968  -50.8836 C.3       15 UNK        -0.1800 
     87 C          -3.8254  -26.6205  -52.6204 C.2       15 UNK         0.5000 
     88 O          -2.6640  -26.9982  -52.4522 O.2       15 UNK        -0.5000 
     89 N          -4.3936  -26.6689  -53.8327 N.am      16 UNK        -0.5000 
     90 CA         -5.7100  -26.1729  -54.2432 C.3       16 UNK         0.1400 
     91 CB         -6.5004  -27.3065  -54.9181 C.3       16 UNK        -0.1800 
     92 C          -5.5213  -24.9785  -55.1886 C.2       16 UNK         0.5000 
     93 O          -5.9463  -23.8705  -54.8612 O.2       16 UNK        -0.5000 
     94 N          -4.8320  -25.2095  -56.3163 N.am      17 UNK        -0.5000 
     95 CA         -4.5349  -24.1990  -57.3362 C.3       17 UNK         0.1400 
     96 CB         -3.8953  -24.8809  -58.5546 C.3       17 UNK        -0.1800 
     97 C          -3.6387  -23.0564  -56.8241 C.2       17 UNK         0.5000 
     98 O          -3.8087  -21.9157  -57.2527 O.2       17 UNK        -0.5000 
     99 N          -2.7297  -23.3746  -55.8908 N.am      18 UNK        -0.5000 
    100 CA        -1.8788  -22.4038  -55.2029 C.3       18 UNK         0.1400 
    101 CB        -0.8255  -23.1421  -54.3620 C.3       18 UNK        -0.1800 
    102 C         -2.7001  -21.4440  -54.3272 C.2       18 UNK         0.5000 
    103 O         -2.5164  -20.2315  -54.4185 O.2       18 UNK        -0.5000 
    104 N         -3.6240  -22.0045  -53.5337 N.am      19 UNK        -0.5000 
    105 CA        -4.5369  -21.2565  -52.6676 C.3       19 UNK         0.1400 
    106 CB        -5.2883  -22.2259  -51.7482 C.3       19 UNK        -0.1800 
    107 C         -5.5176  -20.3798  -53.4622 C.2       19 UNK         0.5000 
    108 O         -5.7802  -19.2454  -53.0640 O.2       19 UNK        -0.5000 
    109 N         -6.0016  -20.9016  -54.5977 N.am      20 UNK        -0.5000 
    110 CA        -6.8350  -20.1710  -55.5524 C.3       20 UNK         0.1400 
    111 CB        -7.3510  -21.1433  -56.6236 C.3       20 UNK        -0.1800 
    112 C         -6.1058  -18.9773  -56.2023 C.2       20 UNK         0.5000 
    113 O         -6.7510  -17.9740  -56.5090 O.2       20 UNK        -0.5000 
    114 N         -4.7838  -19.0982  -56.3891 N.am      21 UNK        -0.5000 
    115 CA        -3.9257  -18.0407  -56.9141 C.3       21 UNK         0.1400 
    116 CB        -2.6354  -18.6454  -57.4907 C.3       21 UNK        -0.1800 
    117 C         -3.6189  -16.9611  -55.8609 C.2       21 UNK         0.5000 
    118 O         -3.7960  -15.7781  -56.1573 O.2       21 UNK        -0.5000 
    119 N         -3.1574  -17.3662  -54.6670 N.am      22 UNK        -0.5000 
    120 CA        -2.7948  -16.4286  -53.5870 C.3       22 UNK         0.1400 
    121 C         -3.9934  -15.8284  -52.7965 C.2       22 UNK         0.5000 
    122 N         -5.1607  -16.4580  -52.7680 N.am      22 UNK        -0.7600 
    123 O         -3.8664  -14.7538  -52.2154 O.2       22 UNK        -0.5000 
    124 C124       -1.6809  -16.9705  -52.6543 C.3       23 UNK        -0.0398 
    125 S125       -2.1514  -18.4145  -51.6385 S.3       23 UNK        -0.2404 
    126 C126       -0.7305  -19.5356  -51.8600 C.3       23 UNK        -0.0205 
    127 H127       -2.9826  -18.5008  -47.4127 H         1 UNK         0.0600 
    128 H128       -1.7003  -18.5902  -48.6203 H         1 UNK         0.0600 
    129 H129       -3.1078  -17.5534  -48.8971 H         1 UNK         0.0600 
    130 H130        0.0793  -17.2856  -48.2302 H         1 UNK         0.3000 
    131 H131        0.0011  -14.6340  -47.3022 H         1 UNK         0.0600 
    132 H132        2.5420  -14.9248  -47.0743 H         1 UNK         0.0800 
    133 H133        2.3190  -16.6018  -47.4722 H         1 UNK         0.0800 
    134 H134        3.1525  -16.2580  -51.1216 H         1 UNK         0.0800 
    135 H135        3.8720  -16.5739  -49.5630 H         1 UNK         0.0800 
    136 H136        0.8441  -17.3012  -51.6328 H         1 UNK         0.1150 
    137 H137        0.2381  -21.1844  -49.9136 H         1 UNK         0.1150 
    138 H138        3.3886  -18.6611  -48.4745 H         1 UNK         0.1150 
    139 H139        1.6370  -21.9983  -48.1871 H         1 UNK         0.0800 
    140 H140        3.2862  -21.4822  -48.4267 H         1 UNK         0.0800 
    141 H141        0.1872  -19.7674  -46.9266 H         1 UNK         0.0800 
    142 H142        0.6147  -19.4383  -45.2691 H         1 UNK         0.0800 
    143 H143        0.0043  -22.2299  -46.3415 H         1 UNK         0.0600 
    144 H144        0.9872  -21.4184  -43.7798 H         1 UNK         0.3000 
    145 H145       -0.1291  -24.2734  -41.9903 H         1 UNK         0.0600 
    146 H146        2.2705  -24.8221  -41.6756 H         1 UNK         0.0600 
    147 H147        1.7504  -25.3177  -43.2780 H         1 UNK         0.0600 
    148 H148        2.7063  -23.8528  -43.0842 H         1 UNK         0.0600 
    149 H149        1.8324  -22.3874  -41.2736 H         1 UNK         0.3000 
    150 H150       -0.0565  -19.5210  -40.6686 H         1 UNK         0.0600 
    151 H151        0.8058  -21.4924  -38.4892 H         1 UNK         0.0600 
    152 H152       -0.8196  -20.8488  -38.6900 H         1 UNK         0.0600 
    153 H153        0.4996  -19.7680  -38.2740 H         1 UNK         0.0600 
    154 H154        2.4777  -20.0414  -39.7005 H         1 UNK         0.3000 
    155 H155        4.2046  -18.9152  -40.6946 H         1 UNK         0.0600 
    156 H156        4.7368  -21.3263  -42.5252 H         1 UNK         0.0600 
    157 H157        4.6036  -21.3891  -40.7720 H         1 UNK         0.0600 
    158 H158        5.9362  -20.5205  -41.5133 H         1 UNK         0.0600 
    159 H159        5.0887  -19.0614  -43.4017 H         1 UNK         0.3000 
    160 H160        5.6897  -16.7397  -44.1904 H         1 UNK         0.0600 
    161 H161        3.0546  -17.5788  -45.5295 H         1 UNK         0.0600 
    162 H162        4.5697  -18.4654  -45.5564 H         1 UNK         0.0600 
    163 H163        4.4484  -16.9444  -46.4179 H         1 UNK         0.0600 
    164 H164        3.3037  -15.1524  -43.7643 H         1 UNK         0.3000 
    165 H165        4.9819  -12.2758  -44.1861 H         1 UNK         0.0600 
    166 H166        4.6656  -12.2744  -46.6813 H         1 UNK         0.0600 
    167 H167        2.9978  -12.7943  -46.4628 H         1 UNK         0.0600 
    168 H168        3.5197  -11.2296  -45.8574 H         1 UNK         0.0600 
    169 H169        2.1705  -13.2862  -44.2116 H         1 UNK         0.3000 
    170 H170        1.4701  -13.6479  -41.4776 H         1 UNK         0.0600 
    171 H171        2.1785  -11.9726  -39.8256 H         1 UNK         0.0600 
    172 H172        1.6327  -10.6526  -40.8492 H         1 UNK         0.0600 
    173 H173        0.4644  -11.7718  -40.1473 H         1 UNK         0.0600 
    174 H174       -0.0964  -13.2017  -42.9494 H         1 UNK         0.3000 
    175 H175       -1.5115  -10.5224  -44.4745 H         1 UNK         0.0600 
    176 H176       -0.9999  -11.4076  -46.7564 H         1 UNK         0.0600 
    177 H177        0.3374  -10.4525  -46.1376 H         1 UNK         0.0600 
    178 H178        0.4446  -12.2068  -46.1366 H         1 UNK         0.0600 
    179 H179       -1.3480  -13.4145  -44.9794 H         1 UNK         0.3000 
    180 H180       -3.7062  -14.3173  -42.5412 H         1 UNK         0.0600 
    181 H181       -4.1487  -14.1869  -45.5727 H         1 UNK         0.0600 
    182 H182       -5.2512  -13.5768  -44.3448 H         1 UNK         0.0600 
    183 H183       -4.9451  -15.3031  -44.4642 H         1 UNK         0.0600 
    184 H184       -2.3935  -15.6973  -44.7103 H         1 UNK         0.3000 
    185 H185        0.5394  -16.6050  -42.8548 H         1 UNK         0.0600 
    186 H186       -1.3606  -18.1086  -42.0673 H         1 UNK         0.0600 
    187 H187       -1.9077  -18.2395  -43.7316 H         1 UNK         0.0600 
    188 H188       -0.3351  -18.8760  -43.2614 H         1 UNK         0.0600 
    189 H189       -0.4653  -17.3604  -45.4226 H         1 UNK         0.3000 
    190 H190       -1.7337  -21.2088  -43.5071 H         1 UNK         0.3000 
    191 H191       -4.1076  -20.2730  -44.9053 H         1 UNK         0.0600 
    192 H192       -3.5684  -19.6135  -42.5387 H         1 UNK         0.0600 
    193 H193       -5.1393  -20.3854  -42.6733 H         1 UNK         0.0600 
    194 H194       -3.7763  -21.2904  -42.0346 H         1 UNK         0.0600 
    195 H195       -2.6960  -23.3861  -44.2925 H         1 UNK         0.3000 
    196 H196       -5.2482  -24.8521  -44.7707 H         1 UNK         0.0600 
    197 H197       -4.0458  -26.7690  -43.7901 H         1 UNK         0.0600 
    198 H198       -3.9812  -25.4125  -42.6785 H         1 UNK         0.0600 
    199 H199       -2.5681  -25.8255  -43.6482 H         1 UNK         0.0600 
    200 H200       -3.0904  -23.4465  -46.6913 H         1 UNK         0.3000 
    201 H201       -2.0783  -25.5650  -48.3510 H         1 UNK         0.0600 
    202 H202       -1.5665  -23.6807  -49.9172 H         1 UNK         0.0600 
    203 H203       -2.5294  -22.5839  -48.9373 H         1 UNK         0.0600 
    204 H204       -1.0516  -23.2921  -48.2849 H         1 UNK         0.0600 
    205 H205       -2.7361  -26.1079  -50.5182 H         1 UNK         0.3000 
    206 H206       -5.1691  -25.2132  -51.6727 H         1 UNK         0.0600 
    207 H207       -6.1828  -26.8331  -50.0445 H         1 UNK         0.0600 
    208 H208       -6.2899  -27.5103  -51.6579 H         1 UNK         0.0600 
    209 H209       -5.0526  -28.0858  -50.5508 H         1 UNK         0.0600 
    210 H210       -3.8256  -27.0369  -54.5807 H         1 UNK         0.3000 
    211 H211       -6.3067  -25.8265  -53.4005 H         1 UNK         0.0600 
    212 H212       -5.9658  -27.7362  -55.7659 H         1 UNK         0.0600 
    213 H213       -7.4637  -26.9478  -55.2832 H         1 UNK         0.0600 
    214 H214       -6.7021  -28.1133  -54.2133 H         1 UNK         0.0600 
    215 H215       -4.5231  -26.1483  -56.5193 H         1 UNK         0.3000 
    216 H216       -5.4820  -23.7572  -57.6522 H         1 UNK         0.0600 
    217 H217       -3.6830  -24.1552  -59.3410 H         1 UNK         0.0600 
    218 H218       -4.5599  -25.6330  -58.9802 H         1 UNK         0.0600 
    219 H219       -2.9550  -25.3695  -58.2963 H         1 UNK         0.0600 
    220 H220       -2.6505  -24.3392  -55.6063 H         1 UNK         0.3000 
    221 H221       -1.3600  -21.8084  -55.9574 H         1 UNK         0.0600 
    222 H222       -1.2830  -23.7874  -53.6109 H         1 UNK         0.0600 
    223 H223       -0.1850  -23.7616  -54.9901 H         1 UNK         0.0600 
    224 H224       -0.1799  -22.4355  -53.8385 H         1 UNK         0.0600 
    225 H225       -3.7485  -23.0040  -53.5681 H         1 UNK         0.3000 
    226 H226       -3.9387  -20.5992  -52.0368 H         1 UNK         0.0600 
    227 H227       -5.9473  -21.6864  -51.0669 H         1 UNK         0.0600 
    228 H228       -5.9024  -22.9291  -52.3107 H         1 UNK         0.0600 
    229 H229       -4.5892  -22.7945  -51.1379 H         1 UNK         0.0600 
    230 H230       -5.7827  -21.8669  -54.8221 H         1 UNK         0.3000 
    231 H231       -7.6954  -19.7765  -55.0080 H         1 UNK         0.0600 
    232 H232       -6.5354  -21.5575  -57.2160 H         1 UNK         0.0600 
    233 H233       -8.0318  -20.6398  -57.3110 H         1 UNK         0.0600 
    234 H234       -7.8956  -21.9743  -56.1749 H         1 UNK         0.0600 
    235 H235       -4.3308  -19.9667  -56.1349 H         1 UNK         0.3000 
    236 H236       -4.4509  -17.5560  -57.7401 H         1 UNK         0.0600 
    237 H237       -2.8574  -19.3672  -58.2770 H         1 UNK         0.0600 
    238 H238       -2.0058  -17.8702  -57.9290 H         1 UNK         0.0600 
    239 H239       -2.0438  -19.1539  -56.7305 H         1 UNK         0.0600 
    240 H240       -3.0222  -18.3573  -54.4841 H         1 UNK         0.3000 
    241 H241       -2.3400  -15.5650  -54.0771 H         1 UNK         0.0600 
    242 H242       -5.2623  -17.3974  -53.1409 H         1 UNK         0.3800 
    243 H243       -5.9267  -16.0468  -52.2603 H         1 UNK         0.3800 
    244 H244       -1.3434  -16.1827  -51.9786 H         1 UNK         0.0800 
    245 H245       -0.8143  -17.2243  -53.2649 H         1 UNK         0.0800 
    246 H246       -0.3527  -19.4711  -52.8810 H         1 UNK         0.0800 
    247 H247       -1.0944  -20.5572  -51.7421 H         1 UNK         0.0800 
@<TRIPOS>BOND
     1    1    2 1    
     2    1  127 1    
     3    1  128 1    
     4    1  129 1    
     5    2    3 2    
     6    2    4 am   BACKBONE|DICT|INTERRES
     7    4    5 1    
     8    4  130 1    
     9    5    6 1    
    10    5   65 1    
    11    5  131 1    
    12    6    7 1    
    13    6  132 1    
    14    6  133 1    
    15    7    8 1    
    16    8    9 1    
    17    8  134 1    
    18    8  135 1    
    19    9   10 ar   
    20    9   14 ar   
    21   10   11 ar   
    22   10  136 1    
    23   11   12 ar   
    24   11  126 1    
    25   12   13 ar   
    26   12  137 1    
    27   13   14 ar   
    28   13   15 1    
    29   14  138 1    
    30   15   16 1    
    31   15  139 1    
    32   15  140 1    
    33   16   17 1    
    34   17   18 1    
    35   17  141 1    
    36   17  142 1    
    37   18   19 1    
    38   18   67 1    
    39   18  143 1    
    40   19   20 am   BACKBONE|DICT|INTERRES
    41   19  144 1    
    42   20   21 2    
    43   20   22 1    
    44   22   23 1    
    45   22   24 1    
    46   22  145 1    
    47   23  146 1    
    48   23  147 1    
    49   23  148 1    
    50   24   25 am   BACKBONE|DICT|INTERRES
    51   24  149 1    
    52   25   26 2    
    53   25   27 1    
    54   27   28 1    
    55   27   29 1    
    56   27  150 1    
    57   28  151 1    
    58   28  152 1    
    59   28  153 1    
    60   29   30 am   BACKBONE|DICT|INTERRES
    61   29  154 1    
    62   30   31 2    
    63   30   32 1    
    64   32   33 1    
    65   32   34 1    
    66   32  155 1    
    67   33  156 1    
    68   33  157 1    
    69   33  158 1    
    70   34   35 am   BACKBONE|DICT|INTERRES
    71   34  159 1    
    72   35   36 2    
    73   35   37 1    
    74   37   38 1    
    75   37   39 1    
    76   37  160 1    
    77   38  161 1    
    78   38  162 1    
    79   38  163 1    
    80   39   40 am   BACKBONE|DICT|INTERRES
    81   39  164 1    
    82   40   41 2    
    83   40   42 1    
    84   42   43 1    
    85   42   44 1    
    86   42  165 1    
    87   43  166 1    
    88   43  167 1    
    89   43  168 1    
    90   44   45 am   BACKBONE|DICT|INTERRES
    91   44  169 1    
    92   45   46 2    
    93   45   47 1    
    94   47   48 1    
    95   47   49 1    
    96   47  170 1    
    97   48  171 1    
    98   48  172 1    
    99   48  173 1    
   100   49   50 am   BACKBONE|DICT|INTERRES
   101   49  174 1    
   102   50   51 2    
   103   50   52 1    
   104   52   53 1    
   105   52   54 1    
   106   52  175 1    
   107   53  176 1    
   108   53  177 1    
   109   53  178 1    
   110   54   55 am   BACKBONE|DICT|INTERRES
   111   54  179 1    
   112   55   56 2    
   113   55   57 1    
   114   57   58 1    
   115   57   59 1    
   116   57  180 1    
   117   58  181 1    
   118   58  182 1    
   119   58  183 1    
   120   59   60 am   BACKBONE|DICT|INTERRES
   121   59  184 1    
   122   60   61 2    
   123   60   62 1    
   124   62   63 1    
   125   62   64 1    
   126   62  185 1    
   127   63  186 1    
   128   63  187 1    
   129   63  188 1    
   130   64   65 am   BACKBONE|DICT|INTERRES
   131   64  189 1    
   132   65   66 2    
   133   67   68 2    
   134   67   69 am   BACKBONE|DICT|INTERRES
   135   69   70 1    
   136   69  190 1    
   137   70   71 1    
   138   70   72 1    
   139   70  191 1    
   140   71  192 1    
   141   71  193 1    
   142   71  194 1    
   143   72   73 2    
   144   72   74 am   BACKBONE|DICT|INTERRES
   145   74   75 1    
   146   74  195 1    
   147   75   76 1    
   148   75   77 1    
   149   75  196 1    
   150   76  197 1    
   151   76  198 1    
   152   76  199 1    
   153   77   78 2    
   154   77   79 am   BACKBONE|DICT|INTERRES
   155   79   80 1    
   156   79  200 1    
   157   80   81 1    
   158   80   82 1    
   159   80  201 1    
   160   81  202 1    
   161   81  203 1    
   162   81  204 1    
   163   82   83 2    
   164   82   84 am   BACKBONE|DICT|INTERRES
   165   84   85 1    
   166   84  205 1    
   167   85   86 1    
   168   85   87 1    
   169   85  206 1    
   170   86  207 1    
   171   86  208 1    
   172   86  209 1    
   173   87   88 2    
   174   87   89 am   BACKBONE|DICT|INTERRES
   175   89   90 1    
   176   89  210 1    
   177   90   91 1    
   178   90   92 1    
   179   90  211 1    
   180   91  212 1    
   181   91  213 1    
   182   91  214 1    
   183   92   93 2    
   184   92   94 am   BACKBONE|DICT|INTERRES
   185   94   95 1    
   186   94  215 1    
   187   95   96 1    
   188   95   97 1    
   189   95  216 1    
   190   96  217 1    
   191   96  218 1    
   192   96  219 1    
   193   97   98 2    
   194   97   99 am   BACKBONE|DICT|INTERRES
   195   99  100 1    
   196   99  220 1    
   197  100  101 1    
   198  100  102 1    
   199  100  221 1    
   200  101  222 1    
   201  101  223 1    
   202  101  224 1    
   203  102  103 2    
   204  102  104 am   BACKBONE|DICT|INTERRES
   205  104  105 1    
   206  104  225 1    
   207  105  106 1    
   208  105  107 1    
   209  105  226 1    
   210  106  227 1    
   211  106  228 1    
   212  106  229 1    
   213  107  108 2    
   214  107  109 am   BACKBONE|DICT|INTERRES
   215  109  110 1    
   216  109  230 1    
   217  110  111 1    
   218  110  112 1    
   219  110  231 1    
   220  111  232 1    
   221  111  233 1    
   222  111  234 1    
   223  112  113 2    
   224  112  114 am   BACKBONE|DICT|INTERRES
   225  114  115 1    
   226  114  235 1    
   227  115  116 1    
   228  115  117 1    
   229  115  236 1    
   230  116  237 1    
   231  116  238 1    
   232  116  239 1    
   233  117  118 2    
   234  117  119 am   BACKBONE|DICT|INTERRES
   235  119  120 1    
   236  119  240 1    
   237  120  121 1    
   238  120  124 1    
   239  120  241 1    
   240  121  122 am   BACKBONE|DICT|INTERRES
   241  121  123 2    
   242  122  242 1    
   243  122  243 1    
   244  124  125 1    
   245  124  244 1    
   246  124  245 1    
   247  125  126 1    
   248  126  246 1    
   249  126  247 1    
@<TRIPOS>SUBSTRUCTURE
     1 UNK         1 GROUP             0       ****    0 ROOT    
