@<TRIPOS>MOLECULE
3R540
247   249    1
SMALL
USER_CHARGES


@<TRIPOS>ATOM
      1 CA         -5.4733  -13.9517  -49.7767 C.3       0 UNK        -0.1800 
      2 C          -4.3219  -13.6014  -48.8462 C.2       0 UNK         0.5000 
      3 O          -3.1817  -13.4797  -49.2936 O.2       0 UNK        -0.5000 
      4 N          -4.6089  -13.4427  -47.5484 N.am      1 UNK        -0.5000 
      5 CA         -3.6157  -13.0962  -46.5295 C.3       1 UNK         0.1400 
      6 C6         -4.1739  -13.2985  -45.0990 C.3       23 UNK        -0.0398 
      7 S7         -2.8376  -13.5913  -43.8913 S.3       23 UNK        -0.2404 
      8 C8         -3.3020  -15.2073  -43.1837 C.3       23 UNK        -0.0205 
      9 C9         -3.3813  -16.3613  -44.1822 C.ar      23 UNK        -0.0193 
     10 C10        -2.5372  -16.4459  -45.2978 C.ar      23 UNK        -0.1150 
     11 C11        -2.6145  -17.5378  -46.1667 C.ar      23 UNK        -0.0193 
     12 C12        -3.5340  -18.5565  -45.9141 C.ar      23 UNK        -0.1150 
     13 C13        -4.3580  -18.5017  -44.7888 C.ar      23 UNK        -0.0193 
     14 C14        -4.2905  -17.3952  -43.9391 C.ar      23 UNK        -0.1150 
     15 C15        -5.2653  -19.6748  -44.4534 C.3       23 UNK        -0.0205 
     16 S16        -4.6606  -20.6409  -43.0228 S.3       23 UNK        -0.2404 
     17 C17        -2.8588  -20.7749  -43.3172 C.3       23 UNK        -0.0398 
     18 CA         -2.4886  -21.6917  -44.5084 C.3       11 UNK         0.1400 
     19 N          -1.1788  -21.3618  -45.0824 N.am      11 UNK        -0.5000 
     20 C          -0.6906  -21.8545  -46.2306 C.2       10 UNK         0.5000 
     21 O          -1.3289  -22.5958  -46.9759 O.2       10 UNK        -0.5000 
     22 CA          0.7710  -21.5206  -46.5860 C.3       10 UNK         0.1400 
     23 CB          0.8927  -20.1704  -47.3029 C.3       10 UNK        -0.1800 
     24 N           1.6437  -21.5332  -45.4156 N.am      10 UNK        -0.5000 
     25 C           1.9197  -22.6287  -44.6958 C.2       9 UNK         0.5000 
     26 O           1.5190  -23.7555  -44.9855 O.2       9 UNK        -0.5000 
     27 CA          2.7332  -22.4173  -43.4089 C.3       9 UNK         0.1400 
     28 CB          4.2355  -22.3447  -43.7175 C.3       9 UNK        -0.1800 
     29 N           2.3144  -21.2106  -42.6940 N.am      9 UNK        -0.5000 
     30 C           1.1351  -21.0765  -42.0707 C.2       8 UNK         0.5000 
     31 O           0.2865  -21.9669  -42.0142 O.2       8 UNK        -0.5000 
     32 CA          0.8380  -19.7038  -41.4394 C.3       8 UNK         0.1400 
     33 CB          1.4870  -19.5926  -40.0519 C.3       8 UNK        -0.1800 
     34 N           1.2752  -18.5822  -42.2733 N.am      8 UNK        -0.5000 
     35 C           0.7522  -18.2873  -43.4714 C.2       7 UNK         0.5000 
     36 O          -0.1371  -18.9437  -44.0078 O.2       7 UNK        -0.5000 
     37 CA          1.3609  -17.0908  -44.2203 C.3       7 UNK         0.1400 
     38 CB          0.8118  -15.7658  -43.6688 C.3       7 UNK        -0.1800 
     39 N           2.8240  -17.0544  -44.1948 N.am      7 UNK        -0.5000 
     40 C           3.6461  -18.0327  -44.5979 C.2       6 UNK         0.5000 
     41 O           3.2606  -19.1473  -44.9551 O.2       6 UNK        -0.5000 
     42 CA          5.1439  -17.6719  -44.6487 C.3       6 UNK         0.1400 
     43 CB          6.0265  -18.8440  -45.1126 C.3       6 UNK        -0.1800 
     44 N           5.3459  -16.5424  -45.5548 N.am      6 UNK        -0.5000 
     45 C           5.2458  -15.2500  -45.2173 C.2       5 UNK         0.5000 
     46 O           5.0604  -14.8575  -44.0649 O.2       5 UNK        -0.5000 
     47 CA          5.2947  -14.2368  -46.3755 C.3       5 UNK         0.1400 
     48 CB          6.7473  -13.8863  -46.7318 C.3       5 UNK        -0.1800 
     49 N           4.6012  -14.7232  -47.5725 N.am      5 UNK        -0.5000 
     50 C           3.2763  -14.9054  -47.6516 C.2       4 UNK         0.5000 
     51 O           2.4906  -14.6693  -46.7306 O.2       4 UNK        -0.5000 
     52 CA          2.7336  -15.4685  -48.9720 C.3       4 UNK         0.1400 
     53 CB          2.3536  -16.9479  -48.8033 C.3       4 UNK        -0.1800 
     54 N           1.5517  -14.6956  -49.3409 N.am      4 UNK        -0.5000 
     55 C           1.5546  -13.6779  -50.2115 C.2       3 UNK         0.5000 
     56 O           2.4939  -13.4238  -50.9668 O.2       3 UNK        -0.5000 
     57 CA          0.3184  -12.7551  -50.2077 C.3       3 UNK         0.1400 
     58 CB         -0.6917  -13.1892  -51.2762 C.3       3 UNK        -0.1800 
     59 N          -0.3527  -12.6844  -48.9050 N.am      3 UNK        -0.5000 
     60 C           0.1964  -12.1398  -47.8088 C.2       2 UNK         0.5000 
     61 O           1.2926  -11.5767  -47.8098 O.2       2 UNK        -0.5000 
     62 CA         -0.6392  -12.2002  -46.5198 C.3       2 UNK         0.1400 
     63 CB          0.1511  -11.7241  -45.2864 C.3       2 UNK        -0.1800 
     64 N          -1.8068  -11.3354  -46.6914 N.am      2 UNK        -0.5000 
     65 C          -3.1108  -11.6434  -46.7393 C.2       1 UNK         0.5000 
     66 O          -3.9494  -10.7629  -46.9386 O.2       1 UNK        -0.5000 
     67 C          -2.5969  -23.1802  -44.1251 C.2       11 UNK         0.5000 
     68 O          -3.6003  -23.8146  -44.4508 O.2       11 UNK        -0.5000 
     69 N          -1.5450  -23.7317  -43.5009 N.am      12 UNK        -0.5000 
     70 CA         -1.4282  -25.1579  -43.1762 C.3       12 UNK         0.1400 
     71 CB         -0.1792  -25.3889  -42.3127 C.3       12 UNK        -0.1800 
     72 C          -1.4105  -26.0617  -44.4268 C.2       12 UNK         0.5000 
     73 O          -1.9114  -27.1849  -44.3746 O.2       12 UNK        -0.5000 
     74 N          -0.8888  -25.5301  -45.5397 N.am      13 UNK        -0.5000 
     75 CA         -0.9265  -26.1265  -46.8744 C.3       13 UNK         0.1400 
     76 CB          0.3027  -25.6434  -47.6637 C.3       13 UNK        -0.1800 
     77 C          -2.2372  -25.8314  -47.6400 C.2       13 UNK         0.5000 
     78 O          -2.2942  -26.1000  -48.8394 O.2       13 UNK        -0.5000 
     79 N          -3.2578  -25.2789  -46.9651 N.am      14 UNK        -0.5000 
     80 CA         -4.5891  -24.9377  -47.4794 C.3       14 UNK         0.1400 
     81 CB         -5.3576  -26.2089  -47.8995 C.3       14 UNK        -0.1800 
     82 C          -4.5397  -23.8679  -48.5874 C.2       14 UNK         0.5000 
     83 O          -5.1181  -24.0578  -49.6571 O.2       14 UNK        -0.5000 
     84 N          -3.8096  -22.7764  -48.3177 N.am      15 UNK        -0.5000 
     85 CA         -3.4892  -21.6752  -49.2342 C.3       15 UNK         0.1400 
     86 CB         -4.7514  -20.8811  -49.6295 C.3       15 UNK        -0.1800 
     87 C          -2.6681  -22.1726  -50.4399 C.2       15 UNK         0.5000 
     88 O          -2.9716  -21.8315  -51.5842 O.2       15 UNK        -0.5000 
     89 N          -1.6609  -23.0061  -50.1359 N.am      16 UNK        -0.5000 
     90 CA         -0.7718  -23.7031  -51.0713 C.3       16 UNK         0.1400 
     91 CB          0.1933  -22.7024  -51.7380 C.3       16 UNK        -0.1800 
     92 C          -1.5517  -24.5689  -52.0849 C.2       16 UNK         0.5000 
     93 O          -1.3669  -24.4301  -53.2941 O.2       16 UNK        -0.5000 
     94 N          -2.4295  -25.4321  -51.5539 N.am      17 UNK        -0.5000 
     95 CA         -3.3774  -26.2942  -52.2654 C.3       17 UNK         0.1400 
     96 CB         -2.6376  -27.3722  -53.0852 C.3       17 UNK        -0.1800 
     97 C          -4.3999  -25.4861  -53.0922 C.2       17 UNK         0.5000 
     98 O          -4.6287  -25.7860  -54.2658 O.2       17 UNK        -0.5000 
     99 N          -4.9964  -24.4746  -52.4443 N.am      18 UNK        -0.5000 
    100 CA        -6.0132  -23.5523  -52.9560 C.3       18 UNK         0.1400 
    101 CB        -7.3488  -24.2927  -53.1741 C.3       18 UNK        -0.1800 
    102 C         -5.5551  -22.7546  -54.1942 C.2       18 UNK         0.5000 
    103 O         -6.3422  -22.5365  -55.1183 O.2       18 UNK        -0.5000 
    104 N         -4.2927  -22.3093  -54.1925 N.am      19 UNK        -0.5000 
    105 CA        -3.6641  -21.5505  -55.2742 C.3       19 UNK         0.1400 
    106 CB        -2.1496  -21.8150  -55.2512 C.3       19 UNK        -0.1800 
    107 C         -4.0142  -20.0507  -55.1960 C.2       19 UNK         0.5000 
    108 O         -3.1181  -19.2060  -55.1375 O.2       19 UNK        -0.5000 
    109 N         -5.3215  -19.7514  -55.1845 N.am      20 UNK        -0.5000 
    110 CA        -5.9302  -18.4234  -55.0743 C.3       20 UNK         0.1400 
    111 CB        -5.7603  -17.6502  -56.4017 C.3       20 UNK        -0.1800 
    112 C         -5.4160  -17.6701  -53.8287 C.2       20 UNK         0.5000 
    113 O         -5.6232  -18.1445  -52.7095 O.2       20 UNK        -0.5000 
    114 N         -4.7330  -16.5379  -54.0347 N.am      21 UNK        -0.5000 
    115 CA        -4.0602  -15.7599  -52.9994 C.3       21 UNK         0.1400 
    116 CB        -3.8998  -14.3096  -53.4888 C.3       21 UNK        -0.1800 
    117 C         -2.7185  -16.4071  -52.6008 C.2       21 UNK         0.5000 
    118 O         -1.6559  -15.8798  -52.9313 O.2       21 UNK        -0.5000 
    119 N         -2.8035  -17.5415  -51.8957 N.am      22 UNK        -0.5000 
    120 CA        -1.6909  -18.2263  -51.2124 C.3       22 UNK         0.1400 
    121 C         -0.5838  -18.8192  -52.1396 C.2       22 UNK         0.5000 
    122 N         -0.8150  -19.0103  -53.4309 N.am      22 UNK        -0.7600 
    123 O          0.5078  -19.1375  -51.6766 O.2       22 UNK        -0.5000 
    124 C124       -1.0848  -17.3628  -50.0677 C.3       23 UNK        -0.0398 
    125 S125       -2.3172  -16.8337  -48.8270 S.3       23 UNK        -0.2404 
    126 C126       -1.6687  -17.6566  -47.3465 C.3       23 UNK        -0.0205 
    127 H127       -6.4354  -13.6749  -49.3453 H         1 UNK         0.0600 
    128 H128       -5.4800  -15.0242  -49.9695 H         1 UNK         0.0600 
    129 H129       -5.3653  -13.4298  -50.7276 H         1 UNK         0.0600 
    130 H130       -5.5654  -13.5176  -47.2347 H         1 UNK         0.3000 
    131 H131       -2.8207  -13.8203  -46.6869 H         1 UNK         0.0600 
    132 H132       -4.8490  -14.1551  -45.0801 H         1 UNK         0.0800 
    133 H133       -4.7744  -12.4468  -44.7738 H         1 UNK         0.0800 
    134 H134       -2.5739  -15.4698  -42.4155 H         1 UNK         0.0800 
    135 H135       -4.2584  -15.0884  -42.6718 H         1 UNK         0.0800 
    136 H136       -1.8067  -15.6738  -45.4872 H         1 UNK         0.1150 
    137 H137       -3.5773  -19.4121  -46.5728 H         1 UNK         0.1150 
    138 H138       -4.9224  -17.3623  -43.0624 H         1 UNK         0.1150 
    139 H139       -6.2681  -19.3059  -44.2339 H         1 UNK         0.0800 
    140 H140       -5.3690  -20.3386  -45.3130 H         1 UNK         0.0800 
    141 H141       -2.3796  -21.1148  -42.3974 H         1 UNK         0.0800 
    142 H142       -2.4722  -19.7695  -43.4728 H         1 UNK         0.0800 
    143 H143       -3.2121  -21.5188  -45.3067 H         1 UNK         0.0600 
    144 H144       -0.6210  -20.6835  -44.5698 H         1 UNK         0.3000 
    145 H145        1.1241  -22.2927  -47.2725 H         1 UNK         0.0600 
    146 H146        1.9181  -19.9909  -47.6266 H         1 UNK         0.0600 
    147 H147        0.2638  -20.1414  -48.1935 H         1 UNK         0.0600 
    148 H148        0.6058  -19.3456  -46.6516 H         1 UNK         0.0600 
    149 H149        2.0542  -20.6464  -45.1357 H         1 UNK         0.3000 
    150 H150        2.5614  -23.2764  -42.7569 H         1 UNK         0.0600 
    151 H151        4.5803  -23.2695  -44.1817 H         1 UNK         0.0600 
    152 H152        4.8209  -22.1981  -42.8097 H         1 UNK         0.0600 
    153 H153        4.4666  -21.5307  -44.4042 H         1 UNK         0.0600 
    154 H154        2.9273  -20.4109  -42.7521 H         1 UNK         0.3000 
    155 H155       -0.2444  -19.6266  -41.3150 H         1 UNK         0.0600 
    156 H156        1.1641  -20.4085  -39.4039 H         1 UNK         0.0600 
    157 H157        1.2091  -18.6599  -39.5606 H         1 UNK         0.0600 
    158 H158        2.5754  -19.6305  -40.1105 H         1 UNK         0.0600 
    159 H159        2.0174  -18.0010  -41.9125 H         1 UNK         0.3000 
    160 H160        1.0579  -17.1733  -45.2658 H         1 UNK         0.0600 
    161 H161        1.1784  -15.5653  -42.6616 H         1 UNK         0.0600 
    162 H162       -0.2767  -15.7783  -43.6210 H         1 UNK         0.0600 
    163 H163        1.0981  -14.9266  -44.3030 H         1 UNK         0.0600 
    164 H164        3.2443  -16.1669  -43.9487 H         1 UNK         0.3000 
    165 H165        5.4551  -17.3978  -43.6386 H         1 UNK         0.0600 
    166 H166        7.0756  -18.5518  -45.1598 H         1 UNK         0.0600 
    167 H167        5.9575  -19.6808  -44.4175 H         1 UNK         0.0600 
    168 H168        5.7351  -19.2068  -46.0992 H         1 UNK         0.0600 
    169 H169        5.4566  -16.7699  -46.5318 H         1 UNK         0.3000 
    170 H170        4.7956  -13.3246  -46.0407 H         1 UNK         0.0600 
    171 H171        7.2808  -13.5040  -45.8604 H         1 UNK         0.0600 
    172 H172        7.2956  -14.7555  -47.0971 H         1 UNK         0.0600 
    173 H173        6.7893  -13.1147  -47.5008 H         1 UNK         0.0600 
    174 H174        5.1777  -14.9306  -48.3755 H         1 UNK         0.3000 
    175 H175        3.5023  -15.3954  -49.7442 H         1 UNK         0.0600 
    176 H176        1.5699  -17.0834  -48.0576 H         1 UNK         0.0600 
    177 H177        2.0057  -17.3716  -49.7453 H         1 UNK         0.0600 
    178 H178        3.2127  -17.5386  -48.4828 H         1 UNK         0.0600 
    179 H179        0.7635  -14.7752  -48.7157 H         1 UNK         0.3000 
    180 H180        0.6642  -11.7512  -50.4627 H         1 UNK         0.0600 
    181 H181       -1.1482  -14.1447  -51.0203 H         1 UNK         0.0600 
    182 H182       -0.2177  -13.2994  -52.2524 H         1 UNK         0.0600 
    183 H183       -1.4919  -12.4568  -51.3825 H         1 UNK         0.0600 
    184 H184       -1.2980  -13.0577  -48.8726 H         1 UNK         0.3000 
    185 H185       -0.8871  -13.2446  -46.3485 H         1 UNK         0.0600 
    186 H186       -0.4475  -11.8006  -44.3792 H         1 UNK         0.0600 
    187 H187        0.4729  -10.6866  -45.3842 H         1 UNK         0.0600 
    188 H188        1.0432  -12.3344  -45.1376 H         1 UNK         0.0600 
    189 H189       -1.5671  -10.3697  -46.8630 H         1 UNK         0.3000 
    190 H190       -0.7724  -23.1360  -43.2175 H         1 UNK         0.3000 
    191 H191       -2.3037  -25.4341  -42.5851 H         1 UNK         0.0600 
    192 H192        0.7351  -25.1326  -42.8471 H         1 UNK         0.0600 
    193 H193       -0.2130  -24.7907  -41.4020 H         1 UNK         0.0600 
    194 H194       -0.1009  -26.4346  -42.0129 H         1 UNK         0.0600 
    195 H195       -0.4497  -24.6198  -45.4708 H         1 UNK         0.3000 
    196 H196       -0.8542  -27.2114  -46.7776 H         1 UNK         0.0600 
    197 H197        1.2255  -25.8553  -47.1232 H         1 UNK         0.0600 
    198 H198        0.2666  -24.5709  -47.8514 H         1 UNK         0.0600 
    199 H199        0.3733  -26.1448  -48.6296 H         1 UNK         0.0600 
    200 H200       -3.1105  -25.0383  -45.9913 H         1 UNK         0.3000 
    201 H201       -5.1342  -24.4883  -46.6485 H         1 UNK         0.0600 
    202 H202       -6.3872  -25.9699  -48.1679 H         1 UNK         0.0600 
    203 H203       -5.3946  -26.9331  -47.0859 H         1 UNK         0.0600 
    204 H204       -4.9021  -26.6962  -48.7621 H         1 UNK         0.0600 
    205 H205       -3.2661  -22.7804  -47.4616 H         1 UNK         0.3000 
    206 H206       -2.8382  -20.9939  -48.6845 H         1 UNK         0.0600 
    207 H207       -5.4436  -21.4799  -50.2206 H         1 UNK         0.0600 
    208 H208       -4.4916  -20.0050  -50.2248 H         1 UNK         0.0600 
    209 H209       -5.2838  -20.5260  -48.7472 H         1 UNK         0.0600 
    210 H210       -1.5235  -23.2197  -49.1559 H         1 UNK         0.3000 
    211 H211       -0.1716  -24.3925  -50.4765 H         1 UNK         0.0600 
    212 H212        0.7551  -22.1398  -50.9923 H         1 UNK         0.0600 
    213 H213        0.9167  -23.2179  -52.3704 H         1 UNK         0.0600 
    214 H214       -0.3362  -21.9849  -52.3645 H         1 UNK         0.0600 
    215 H215       -2.4669  -25.5080  -50.5382 H         1 UNK         0.3000 
    216 H216       -3.9514  -26.8091  -51.4935 H         1 UNK         0.0600 
    217 H217       -3.3415  -28.0884  -53.5103 H         1 UNK         0.0600 
    218 H218       -2.0733  -26.9403  -53.9121 H         1 UNK         0.0600 
    219 H219       -1.9422  -27.9329  -52.4606 H         1 UNK         0.0600 
    220 H220       -4.7665  -24.3337  -51.4628 H         1 UNK         0.3000 
    221 H221       -6.1729  -22.8154  -52.1681 H         1 UNK         0.0600 
    222 H222       -8.1469  -23.5948  -53.4297 H         1 UNK         0.0600 
    223 H223       -7.2798  -25.0220  -53.9819 H         1 UNK         0.0600 
    224 H224       -7.6578  -24.8195  -52.2713 H         1 UNK         0.0600 
    225 H225       -3.7318  -22.4401  -53.3554 H         1 UNK         0.3000 
    226 H226       -4.0415  -21.9140  -56.2322 H         1 UNK         0.0600 
    227 H227       -1.9354  -22.8679  -55.4335 H         1 UNK         0.0600 
    228 H228       -1.6332  -21.2433  -56.0231 H         1 UNK         0.0600 
    229 H229       -1.7129  -21.5483  -54.2890 H         1 UNK         0.0600 
    230 H230       -5.9668  -20.5339  -55.2081 H         1 UNK         0.3000 
    231 H231       -6.9979  -18.5812  -54.9161 H         1 UNK         0.0600 
    232 H232       -6.2597  -16.6812  -56.3617 H         1 UNK         0.0600 
    233 H233       -6.2051  -18.2022  -57.2298 H         1 UNK         0.0600 
    234 H234       -4.7121  -17.4789  -56.6496 H         1 UNK         0.0600 
    235 H235       -4.5630  -16.2522  -54.9878 H         1 UNK         0.3000 
    236 H236       -4.6901  -15.7368  -52.1087 H         1 UNK         0.0600 
    237 H237       -4.8680  -13.8559  -53.7007 H         1 UNK         0.0600 
    238 H238       -3.4146  -13.6958  -52.7286 H         1 UNK         0.0600 
    239 H239       -3.2955  -14.2515  -54.3949 H         1 UNK         0.0600 
    240 H240       -3.7254  -17.9381  -51.7567 H         1 UNK         0.3000 
    241 H241       -2.1414  -19.1014  -50.7450 H         1 UNK         0.0600 
    242 H242       -1.7178  -18.8146  -53.8520 H         1 UNK         0.3800 
    243 H243       -0.0807  -19.3930  -54.0022 H         1 UNK         0.3800 
    244 H244       -0.5986  -16.4754  -50.4741 H         1 UNK         0.0800 
    245 H245       -0.3017  -17.9212  -49.5553 H         1 UNK         0.0800 
    246 H246       -1.5107  -18.7104  -47.5732 H         1 UNK         0.0800 
    247 H247       -0.6962  -17.2355  -47.0896 H         1 UNK         0.0800 
@<TRIPOS>BOND
     1    1    2 1    
     2    1  127 1    
     3    1  128 1    
     4    1  129 1    
     5    2    3 2    
     6    2    4 am   BACKBONE|DICT|INTERRES
     7    4    5 1    
     8    4  130 1    
     9    5    6 1    
    10    5   65 1    
    11    5  131 1    
    12    6    7 1    
    13    6  132 1    
    14    6  133 1    
    15    7    8 1    
    16    8    9 1    
    17    8  134 1    
    18    8  135 1    
    19    9   10 ar   
    20    9   14 ar   
    21   10   11 ar   
    22   10  136 1    
    23   11   12 ar   
    24   11  126 1    
    25   12   13 ar   
    26   12  137 1    
    27   13   14 ar   
    28   13   15 1    
    29   14  138 1    
    30   15   16 1    
    31   15  139 1    
    32   15  140 1    
    33   16   17 1    
    34   17   18 1    
    35   17  141 1    
    36   17  142 1    
    37   18   19 1    
    38   18   67 1    
    39   18  143 1    
    40   19   20 am   BACKBONE|DICT|INTERRES
    41   19  144 1    
    42   20   21 2    
    43   20   22 1    
    44   22   23 1    
    45   22   24 1    
    46   22  145 1    
    47   23  146 1    
    48   23  147 1    
    49   23  148 1    
    50   24   25 am   BACKBONE|DICT|INTERRES
    51   24  149 1    
    52   25   26 2    
    53   25   27 1    
    54   27   28 1    
    55   27   29 1    
    56   27  150 1    
    57   28  151 1    
    58   28  152 1    
    59   28  153 1    
    60   29   30 am   BACKBONE|DICT|INTERRES
    61   29  154 1    
    62   30   31 2    
    63   30   32 1    
    64   32   33 1    
    65   32   34 1    
    66   32  155 1    
    67   33  156 1    
    68   33  157 1    
    69   33  158 1    
    70   34   35 am   BACKBONE|DICT|INTERRES
    71   34  159 1    
    72   35   36 2    
    73   35   37 1    
    74   37   38 1    
    75   37   39 1    
    76   37  160 1    
    77   38  161 1    
    78   38  162 1    
    79   38  163 1    
    80   39   40 am   BACKBONE|DICT|INTERRES
    81   39  164 1    
    82   40   41 2    
    83   40   42 1    
    84   42   43 1    
    85   42   44 1    
    86   42  165 1    
    87   43  166 1    
    88   43  167 1    
    89   43  168 1    
    90   44   45 am   BACKBONE|DICT|INTERRES
    91   44  169 1    
    92   45   46 2    
    93   45   47 1    
    94   47   48 1    
    95   47   49 1    
    96   47  170 1    
    97   48  171 1    
    98   48  172 1    
    99   48  173 1    
   100   49   50 am   BACKBONE|DICT|INTERRES
   101   49  174 1    
   102   50   51 2    
   103   50   52 1    
   104   52   53 1    
   105   52   54 1    
   106   52  175 1    
   107   53  176 1    
   108   53  177 1    
   109   53  178 1    
   110   54   55 am   BACKBONE|DICT|INTERRES
   111   54  179 1    
   112   55   56 2    
   113   55   57 1    
   114   57   58 1    
   115   57   59 1    
   116   57  180 1    
   117   58  181 1    
   118   58  182 1    
   119   58  183 1    
   120   59   60 am   BACKBONE|DICT|INTERRES
   121   59  184 1    
   122   60   61 2    
   123   60   62 1    
   124   62   63 1    
   125   62   64 1    
   126   62  185 1    
   127   63  186 1    
   128   63  187 1    
   129   63  188 1    
   130   64   65 am   BACKBONE|DICT|INTERRES
   131   64  189 1    
   132   65   66 2    
   133   67   68 2    
   134   67   69 am   BACKBONE|DICT|INTERRES
   135   69   70 1    
   136   69  190 1    
   137   70   71 1    
   138   70   72 1    
   139   70  191 1    
   140   71  192 1    
   141   71  193 1    
   142   71  194 1    
   143   72   73 2    
   144   72   74 am   BACKBONE|DICT|INTERRES
   145   74   75 1    
   146   74  195 1    
   147   75   76 1    
   148   75   77 1    
   149   75  196 1    
   150   76  197 1    
   151   76  198 1    
   152   76  199 1    
   153   77   78 2    
   154   77   79 am   BACKBONE|DICT|INTERRES
   155   79   80 1    
   156   79  200 1    
   157   80   81 1    
   158   80   82 1    
   159   80  201 1    
   160   81  202 1    
   161   81  203 1    
   162   81  204 1    
   163   82   83 2    
   164   82   84 am   BACKBONE|DICT|INTERRES
   165   84   85 1    
   166   84  205 1    
   167   85   86 1    
   168   85   87 1    
   169   85  206 1    
   170   86  207 1    
   171   86  208 1    
   172   86  209 1    
   173   87   88 2    
   174   87   89 am   BACKBONE|DICT|INTERRES
   175   89   90 1    
   176   89  210 1    
   177   90   91 1    
   178   90   92 1    
   179   90  211 1    
   180   91  212 1    
   181   91  213 1    
   182   91  214 1    
   183   92   93 2    
   184   92   94 am   BACKBONE|DICT|INTERRES
   185   94   95 1    
   186   94  215 1    
   187   95   96 1    
   188   95   97 1    
   189   95  216 1    
   190   96  217 1    
   191   96  218 1    
   192   96  219 1    
   193   97   98 2    
   194   97   99 am   BACKBONE|DICT|INTERRES
   195   99  100 1    
   196   99  220 1    
   197  100  101 1    
   198  100  102 1    
   199  100  221 1    
   200  101  222 1    
   201  101  223 1    
   202  101  224 1    
   203  102  103 2    
   204  102  104 am   BACKBONE|DICT|INTERRES
   205  104  105 1    
   206  104  225 1    
   207  105  106 1    
   208  105  107 1    
   209  105  226 1    
   210  106  227 1    
   211  106  228 1    
   212  106  229 1    
   213  107  108 2    
   214  107  109 am   BACKBONE|DICT|INTERRES
   215  109  110 1    
   216  109  230 1    
   217  110  111 1    
   218  110  112 1    
   219  110  231 1    
   220  111  232 1    
   221  111  233 1    
   222  111  234 1    
   223  112  113 2    
   224  112  114 am   BACKBONE|DICT|INTERRES
   225  114  115 1    
   226  114  235 1    
   227  115  116 1    
   228  115  117 1    
   229  115  236 1    
   230  116  237 1    
   231  116  238 1    
   232  116  239 1    
   233  117  118 2    
   234  117  119 am   BACKBONE|DICT|INTERRES
   235  119  120 1    
   236  119  240 1    
   237  120  121 1    
   238  120  124 1    
   239  120  241 1    
   240  121  122 am   BACKBONE|DICT|INTERRES
   241  121  123 2    
   242  122  242 1    
   243  122  243 1    
   244  124  125 1    
   245  124  244 1    
   246  124  245 1    
   247  125  126 1    
   248  126  246 1    
   249  126  247 1    
@<TRIPOS>SUBSTRUCTURE
     1 UNK         1 GROUP             0       ****    0 ROOT    
