@<TRIPOS>MOLECULE
3R540
247   249    1
SMALL
USER_CHARGES


@<TRIPOS>ATOM
      1 CA          0.4308   -9.1344  -50.4871 C.3       0 UNK        -0.1800 
      2 C           0.0996  -10.4849  -51.1060 C.2       0 UNK         0.5000 
      3 O           0.4584  -10.7363  -52.2565 O.2       0 UNK        -0.5000 
      4 N          -0.5860  -11.3500  -50.3488 N.am      1 UNK        -0.5000 
      5 CA         -0.9574  -12.7163  -50.7395 C.3       1 UNK         0.1400 
      6 C6         -2.0322  -13.3183  -49.7966 C.3       23 UNK        -0.0398 
      7 S7         -1.6266  -13.1746  -48.0185 S.3       23 UNK        -0.2404 
      8 C8         -2.9014  -14.2470  -47.2754 C.3       23 UNK        -0.0205 
      9 C9         -2.7174  -15.7461  -47.5151 C.ar      23 UNK        -0.0193 
     10 C10        -3.8427  -16.5756  -47.4635 C.ar      23 UNK        -0.1150 
     11 C11        -3.7271  -17.9562  -47.6485 C.ar      23 UNK        -0.0193 
     12 C12        -2.4666  -18.5053  -47.8926 C.ar      23 UNK        -0.1150 
     13 C13        -1.3302  -17.6964  -47.9480 C.ar      23 UNK        -0.0193 
     14 C14        -1.4605  -16.3199  -47.7525 C.ar      23 UNK        -0.1150 
     15 C15         0.0251  -18.3035  -48.2796 C.3       23 UNK        -0.0205 
     16 S16         1.2002  -18.2976  -46.8912 S.3       23 UNK        -0.2404 
     17 C17         0.4154  -19.4042  -45.6764 C.3       23 UNK        -0.0398 
     18 CA          0.5165  -20.9119  -46.0451 C.3       11 UNK         0.1400 
     19 N           0.9502  -21.7339  -44.9121 N.am      11 UNK        -0.5000 
     20 C           1.2283  -23.0454  -44.9712 C.2       10 UNK         0.5000 
     21 O           1.1954  -23.7108  -46.0065 O.2       10 UNK        -0.5000 
     22 CA          1.5390  -23.7384  -43.6318 C.3       10 UNK         0.1400 
     23 CB          3.0355  -23.6345  -43.3047 C.3       10 UNK        -0.1800 
     24 N           0.7631  -23.1972  -42.5137 N.am      10 UNK        -0.5000 
     25 C          -0.5723  -23.1964  -42.4176 C.2       9 UNK         0.5000 
     26 O          -1.3145  -23.6646  -43.2806 O.2       9 UNK        -0.5000 
     27 CA         -1.1884  -22.5124  -41.1849 C.3       9 UNK         0.1400 
     28 CB         -1.1436  -23.4296  -39.9487 C.3       9 UNK        -0.1800 
     29 N          -0.6335  -21.1818  -40.9025 N.am      9 UNK        -0.5000 
     30 C           0.5905  -20.8410  -40.4656 C.2       8 UNK         0.5000 
     31 O           1.4856  -21.6577  -40.2447 O.2       8 UNK        -0.5000 
     32 CA          0.8897  -19.3383  -40.2752 C.3       8 UNK         0.1400 
     33 CB          1.9293  -18.8651  -41.3045 C.3       8 UNK        -0.1800 
     34 N          -0.3021  -18.4927  -40.3782 N.am      8 UNK        -0.5000 
     35 C          -1.2402  -18.3822  -39.4246 C.2       7 UNK         0.5000 
     36 O          -1.1444  -18.9123  -38.3172 O.2       7 UNK        -0.5000 
     37 CA         -2.5127  -17.5746  -39.7598 C.3       7 UNK         0.1400 
     38 CB         -2.4425  -16.1779  -39.1234 C.3       7 UNK        -0.1800 
     39 N          -2.7771  -17.4229  -41.1926 N.am      7 UNK        -0.5000 
     40 C          -2.9854  -18.4155  -42.0698 C.2       6 UNK         0.5000 
     41 O          -3.0139  -19.6073  -41.7632 O.2       6 UNK        -0.5000 
     42 CA         -3.1276  -18.0086  -43.5504 C.3       6 UNK         0.1400 
     43 CB         -4.6125  -17.8128  -43.8905 C.3       6 UNK        -0.1800 
     44 N          -2.3870  -16.7966  -43.9275 N.am      6 UNK        -0.5000 
     45 C          -1.0788  -16.5777  -43.7298 C.2       5 UNK         0.5000 
     46 O          -0.3327  -17.3731  -43.1524 O.2       5 UNK        -0.5000 
     47 CA         -0.5333  -15.2262  -44.2129 C.3       5 UNK         0.1400 
     48 CB         -1.0793  -14.0771  -43.3490 C.3       5 UNK        -0.1800 
     49 N           0.9245  -15.2268  -44.1240 N.am      5 UNK        -0.5000 
     50 C           1.7555  -14.9752  -45.1385 C.2       4 UNK         0.5000 
     51 O           1.3790  -14.6466  -46.2656 O.2       4 UNK        -0.5000 
     52 CA          3.2598  -15.1066  -44.8375 C.3       4 UNK         0.1400 
     53 CB          3.6353  -16.5323  -44.3931 C.3       4 UNK        -0.1800 
     54 N           4.0100  -14.7765  -46.0446 N.am      4 UNK        -0.5000 
     55 C           4.9967  -13.8807  -46.1513 C.2       3 UNK         0.5000 
     56 O           5.4957  -13.2931  -45.1904 O.2       3 UNK        -0.5000 
     57 CA          5.5171  -13.5856  -47.5763 C.3       3 UNK         0.1400 
     58 CB          6.8862  -14.2481  -47.7963 C.3       3 UNK        -0.1800 
     59 N           4.6024  -14.0305  -48.6346 N.am      3 UNK        -0.5000 
     60 C           3.4363  -13.4416  -48.9323 C.2       2 UNK         0.5000 
     61 O           3.0537  -12.3891  -48.4117 O.2       2 UNK        -0.5000 
     62 CA          2.5484  -14.1558  -49.9680 C.3       2 UNK         0.1400 
     63 CB          2.3376  -15.6443  -49.6130 C.3       2 UNK        -0.1800 
     64 N           1.2728  -13.4506  -50.0270 N.am      2 UNK        -0.5000 
     65 C           0.2667  -13.6481  -50.8857 C.2       1 UNK         0.5000 
     66 O           0.2807  -14.4937  -51.7811 O.2       1 UNK        -0.5000 
     67 C          -0.8166  -21.4268  -46.6213 C.2       11 UNK         0.5000 
     68 O          -0.9217  -21.6329  -47.8303 O.2       11 UNK        -0.5000 
     69 N          -1.7984  -21.6435  -45.7337 N.am      12 UNK        -0.5000 
     70 CA         -3.1367  -22.1256  -46.0712 C.3       12 UNK         0.1400 
     71 CB         -4.0747  -21.9083  -44.8749 C.3       12 UNK        -0.1800 
     72 C          -3.1440  -23.5969  -46.5169 C.2       12 UNK         0.5000 
     73 O          -3.9113  -23.9464  -47.4123 O.2       12 UNK        -0.5000 
     74 N          -2.2684  -24.4189  -45.9204 N.am      13 UNK        -0.5000 
     75 CA         -2.0501  -25.8180  -46.2940 C.3       13 UNK         0.1400 
     76 CB         -1.1379  -26.4915  -45.2580 C.3       13 UNK        -0.1800 
     77 C          -1.4706  -25.9661  -47.7137 C.2       13 UNK         0.5000 
     78 O          -1.9122  -26.8383  -48.4624 O.2       13 UNK        -0.5000 
     79 N          -0.5220  -25.0882  -48.0707 N.am      14 UNK        -0.5000 
     80 CA          0.0262  -24.9679  -49.4241 C.3       14 UNK         0.1400 
     81 CB          1.3709  -24.2281  -49.3484 C.3       14 UNK        -0.1800 
     82 C          -0.9222  -24.2337  -50.3930 C.2       14 UNK         0.5000 
     83 O          -0.7392  -24.3267  -51.6070 O.2       14 UNK        -0.5000 
     84 N          -1.8783  -23.4742  -49.8416 N.am      15 UNK        -0.5000 
     85 CA         -2.8344  -22.5904  -50.5131 C.3       15 UNK         0.1400 
     86 CB         -3.8596  -23.4172  -51.3108 C.3       15 UNK        -0.1800 
     87 C          -2.1476  -21.4861  -51.3454 C.2       15 UNK         0.5000 
     88 O          -2.6309  -21.1284  -52.4221 O.2       15 UNK        -0.5000 
     89 N          -0.9990  -21.0058  -50.8417 N.am      16 UNK        -0.5000 
     90 CA         -0.0399  -20.1133  -51.5078 C.3       16 UNK         0.1400 
     91 CB         -0.6497  -18.7136  -51.7282 C.3       16 UNK        -0.1800 
     92 C           0.5168  -20.7257  -52.8120 C.2       16 UNK         0.5000 
     93 O           0.5891  -20.0433  -53.8332 O.2       16 UNK        -0.5000 
     94 N           0.8502  -22.0247  -52.7640 N.am      17 UNK        -0.5000 
     95 CA          1.2135  -22.8822  -53.9011 C.3       17 UNK         0.1400 
     96 CB          2.5497  -22.4402  -54.5341 C.3       17 UNK        -0.1800 
     97 C           0.0559  -22.9917  -54.9175 C.2       17 UNK         0.5000 
     98 O           0.2651  -22.8695  -56.1252 O.2       17 UNK        -0.5000 
     99 N          -1.1563  -23.1792  -54.3761 N.am      18 UNK        -0.5000 
    100 CA        -2.4626  -23.2349  -55.0428 C.3       18 UNK         0.1400 
    101 CB        -2.5272  -24.4230  -56.0240 C.3       18 UNK        -0.1800 
    102 C         -2.9312  -21.9150  -55.6972 C.2       18 UNK         0.5000 
    103 O         -3.9798  -21.9158  -56.3440 O.2       18 UNK        -0.5000 
    104 N         -2.1889  -20.8123  -55.5218 N.am      19 UNK        -0.5000 
    105 CA        -2.5042  -19.5124  -56.1158 C.3       19 UNK         0.1400 
    106 CB        -1.2343  -18.6509  -56.1723 C.3       19 UNK        -0.1800 
    107 C         -3.6244  -18.7602  -55.3754 C.2       19 UNK         0.5000 
    108 O         -4.3792  -18.0304  -56.0198 O.2       19 UNK        -0.5000 
    109 N         -3.7116  -18.9319  -54.0490 N.am      20 UNK        -0.5000 
    110 CA        -4.6982  -18.2548  -53.2027 C.3       20 UNK         0.1400 
    111 CB        -4.0588  -17.9037  -51.8501 C.3       20 UNK        -0.1800 
    112 C         -5.9691  -19.0948  -52.9966 C.2       20 UNK         0.5000 
    113 O         -7.0083  -18.5299  -52.6518 O.2       20 UNK        -0.5000 
    114 N         -5.8660  -20.4183  -53.1934 N.am      21 UNK        -0.5000 
    115 CA        -6.8890  -21.4627  -53.0270 C.3       21 UNK         0.1400 
    116 CB        -8.1048  -21.2234  -53.9420 C.3       21 UNK        -0.1800 
    117 C         -7.3194  -21.6941  -51.5631 C.2       21 UNK         0.5000 
    118 O         -7.3509  -22.8424  -51.1213 O.2       21 UNK        -0.5000 
    119 N         -7.6052  -20.6071  -50.8372 N.am      22 UNK        -0.5000 
    120 CA        -7.8536  -20.5435  -49.3851 C.3       22 UNK         0.1400 
    121 C         -9.1516  -21.2589  -48.8984 C.2       22 UNK         0.5000 
    122 N        -10.0999  -21.5735  -49.7722 N.am      22 UNK        -0.7600 
    123 O         -9.3234  -21.5029  -47.7070 O.2       22 UNK        -0.5000 
    124 C124       -6.6017  -20.9323  -48.5471 C.3       23 UNK        -0.0398 
    125 S125       -5.1304  -19.9479  -48.9972 S.3       23 UNK        -0.2404 
    126 C126       -4.9553  -18.8547  -47.5527 C.3       23 UNK        -0.0205 
    127 H127        1.5113   -8.9953  -50.4479 H         1 UNK         0.0600 
    128 H128        0.0035   -8.3310  -51.0871 H         1 UNK         0.0600 
    129 H129        0.0401   -9.0464  -49.4729 H         1 UNK         0.0600 
    130 H130       -0.8501  -11.0891  -49.4088 H         1 UNK         0.3000 
    131 H131       -1.4080  -12.6506  -51.7323 H         1 UNK         0.0600 
    132 H132       -2.2200  -14.3649  -50.0444 H         1 UNK         0.0800 
    133 H133       -2.9799  -12.8036  -49.9599 H         1 UNK         0.0800 
    134 H134       -3.8761  -13.9272  -47.6475 H         1 UNK         0.0800 
    135 H135       -2.9125  -14.0698  -46.1998 H         1 UNK         0.0800 
    136 H136       -4.8144  -16.1440  -47.2683 H         1 UNK         0.1150 
    137 H137       -2.3815  -19.5666  -48.0630 H         1 UNK         0.1150 
    138 H138       -0.5742  -15.7029  -47.7910 H         1 UNK         0.1150 
    139 H139       -0.0868  -19.3217  -48.6459 H         1 UNK         0.0800 
    140 H140        0.4632  -17.7426  -49.1035 H         1 UNK         0.0800 
    141 H141        0.9334  -19.2116  -44.7364 H         1 UNK         0.0800 
    142 H142       -0.6099  -19.0741  -45.5010 H         1 UNK         0.0800 
    143 H143        1.2742  -21.0401  -46.8214 H         1 UNK         0.0600 
    144 H144        1.0042  -21.2816  -44.0123 H         1 UNK         0.3000 
    145 H145        1.2824  -24.7941  -43.7348 H         1 UNK         0.0600 
    146 H146        3.2803  -24.1923  -42.4006 H         1 UNK         0.0600 
    147 H147        3.6420  -24.0446  -44.1133 H         1 UNK         0.0600 
    148 H148        3.3441  -22.5993  -43.1532 H         1 UNK         0.0600 
    149 H149        1.2818  -22.7764  -41.7469 H         1 UNK         0.3000 
    150 H150       -2.2403  -22.3417  -41.4203 H         1 UNK         0.0600 
    151 H151       -1.6655  -24.3671  -40.1440 H         1 UNK         0.0600 
    152 H152       -1.6286  -22.9596  -39.0931 H         1 UNK         0.0600 
    153 H153       -0.1233  -23.6819  -39.6592 H         1 UNK         0.0600 
    154 H154       -1.2872  -20.4261  -41.0805 H         1 UNK         0.3000 
    155 H155        1.3191  -19.2143  -39.2790 H         1 UNK         0.0600 
    156 H156        2.8689  -19.4068  -41.1894 H         1 UNK         0.0600 
    157 H157        2.1502  -17.8044  -41.1847 H         1 UNK         0.0600 
    158 H158        1.5859  -19.0229  -42.3268 H         1 UNK         0.0600 
    159 H159       -0.4454  -18.0299  -41.2710 H         1 UNK         0.3000 
    160 H160       -3.3588  -18.1096  -39.3240 H         1 UNK         0.0600 
    161 H161       -1.6292  -15.5854  -39.5447 H         1 UNK         0.0600 
    162 H162       -3.3720  -15.6282  -39.2726 H         1 UNK         0.0600 
    163 H163       -2.2765  -16.2453  -38.0474 H         1 UNK         0.0600 
    164 H164       -2.7614  -16.4796  -41.5501 H         1 UNK         0.3000 
    165 H165       -2.7380  -18.8282  -44.1567 H         1 UNK         0.0600 
    166 H166       -5.1854  -18.7176  -43.6829 H         1 UNK         0.0600 
    167 H167       -5.0544  -17.0044  -43.3068 H         1 UNK         0.0600 
    168 H168       -4.7542  -17.5754  -44.9427 H         1 UNK         0.0600 
    169 H169       -2.9254  -16.0882  -44.4036 H         1 UNK         0.3000 
    170 H170       -0.8585  -15.0846  -45.2438 H         1 UNK         0.0600 
    171 H171       -2.1661  -14.0133  -43.4111 H         1 UNK         0.0600 
    172 H172       -0.6829  -13.1175  -43.6815 H         1 UNK         0.0600 
    173 H173       -0.8148  -14.2015  -42.2980 H         1 UNK         0.0600 
    174 H174        1.2982  -15.5798  -43.2543 H         1 UNK         0.3000 
    175 H175        3.4962  -14.4051  -44.0350 H         1 UNK         0.0600 
    176 H176        3.4012  -17.2684  -45.1621 H         1 UNK         0.0600 
    177 H177        4.7016  -16.6057  -44.1788 H         1 UNK         0.0600 
    178 H178        3.1048  -16.8239  -43.4864 H         1 UNK         0.0600 
    179 H179        3.6024  -15.1325  -46.8975 H         1 UNK         0.3000 
    180 H180        5.6436  -12.5041  -47.6607 H         1 UNK         0.0600 
    181 H181        7.6067  -13.9152  -47.0480 H         1 UNK         0.0600 
    182 H182        6.8227  -15.3350  -47.7295 H         1 UNK         0.0600 
    183 H183        7.2956  -13.9938  -48.7742 H         1 UNK         0.0600 
    184 H184        4.8588  -14.8800  -49.1166 H         1 UNK         0.3000 
    185 H185        3.0358  -14.0763  -50.9413 H         1 UNK         0.0600 
    186 H186        3.2808  -16.1873  -49.5547 H         1 UNK         0.0600 
    187 H187        1.8335  -15.7542  -48.6533 H         1 UNK         0.0600 
    188 H188        1.7367  -16.1540  -50.3651 H         1 UNK         0.0600 
    189 H189        1.1931  -12.7139  -49.3355 H         1 UNK         0.3000 
    190 H190       -1.6032  -21.5204  -44.7516 H         1 UNK         0.3000 
    191 H191       -3.5081  -21.5307  -46.9074 H         1 UNK         0.0600 
    192 H192       -5.0894  -22.2301  -45.1127 H         1 UNK         0.0600 
    193 H193       -4.1259  -20.8560  -44.5982 H         1 UNK         0.0600 
    194 H194       -3.7486  -22.4691  -43.9983 H         1 UNK         0.0600 
    195 H195       -1.7311  -24.0671  -45.1333 H         1 UNK         0.3000 
    196 H196       -3.0181  -26.3230  -46.2736 H         1 UNK         0.0600 
    197 H197       -1.0118  -27.5516  -45.4812 H         1 UNK         0.0600 
    198 H198       -1.5569  -26.4170  -44.2542 H         1 UNK         0.0600 
    199 H199       -0.1461  -26.0405  -45.2417 H         1 UNK         0.0600 
    200 H200       -0.1609  -24.4427  -47.3754 H         1 UNK         0.3000 
    201 H201        0.2045  -25.9673  -49.8260 H         1 UNK         0.0600 
    202 H202        2.0729  -24.7547  -48.7016 H         1 UNK         0.0600 
    203 H203        1.2522  -23.2170  -48.9559 H         1 UNK         0.0600 
    204 H204        1.8336  -24.1493  -50.3329 H         1 UNK         0.0600 
    205 H205       -1.8935  -23.4250  -48.8319 H         1 UNK         0.3000 
    206 H206       -3.3726  -22.0748  -49.7195 H         1 UNK         0.0600 
    207 H207       -4.4417  -24.0555  -50.6460 H         1 UNK         0.0600 
    208 H208       -4.5632  -22.7734  -51.8340 H         1 UNK         0.0600 
    209 H209       -3.3830  -24.0578  -52.0511 H         1 UNK         0.0600 
    210 H210       -0.7322  -21.3415  -49.9221 H         1 UNK         0.3000 
    211 H211        0.8069  -20.0067  -50.8290 H         1 UNK         0.0600 
    212 H212       -1.3591  -18.7106  -52.5541 H         1 UNK         0.0600 
    213 H213        0.1254  -17.9849  -51.9678 H         1 UNK         0.0600 
    214 H214       -1.1739  -18.3559  -50.8435 H         1 UNK         0.0600 
    215 H215        0.6934  -22.5171  -51.8962 H         1 UNK         0.3000 
    216 H216        1.3595  -23.8847  -53.4964 H         1 UNK         0.0600 
    217 H217        3.3380  -22.3748  -53.7843 H         1 UNK         0.0600 
    218 H218        2.4701  -21.4691  -55.0232 H         1 UNK         0.0600 
    219 H219        2.8774  -23.1570  -55.2878 H         1 UNK         0.0600 
    220 H220       -1.1877  -23.2938  -53.3686 H         1 UNK         0.3000 
    221 H221       -3.1866  -23.4317  -54.2532 H         1 UNK         0.0600 
    222 H222       -1.8825  -24.2705  -56.8897 H         1 UNK         0.0600 
    223 H223       -2.2259  -25.3515  -55.5391 H         1 UNK         0.0600 
    224 H224       -3.5415  -24.5692  -56.3970 H         1 UNK         0.0600 
    225 H225       -1.3498  -20.8686  -54.9599 H         1 UNK         0.3000 
    226 H226       -2.8368  -19.6774  -57.1430 H         1 UNK         0.0600 
    227 H227       -0.4157  -19.1796  -56.6612 H         1 UNK         0.0600 
    228 H228       -1.4130  -17.7337  -56.7347 H         1 UNK         0.0600 
    229 H229       -0.9004  -18.3595  -55.1762 H         1 UNK         0.0600 
    230 H230       -3.0919  -19.5930  -53.5893 H         1 UNK         0.3000 
    231 H231       -5.0063  -17.3168  -53.6693 H         1 UNK         0.0600 
    232 H232       -3.6686  -18.7874  -51.3461 H         1 UNK         0.0600 
    233 H233       -3.2389  -17.1967  -51.9744 H         1 UNK         0.0600 
    234 H234       -4.7827  -17.4401  -51.1785 H         1 UNK         0.0600 
    235 H235       -4.9459  -20.7592  -53.4356 H         1 UNK         0.3000 
    236 H236       -6.4159  -22.3866  -53.3632 H         1 UNK         0.0600 
    237 H237       -7.7978  -21.1138  -54.9822 H         1 UNK         0.0600 
    238 H238       -8.7961  -22.0656  -53.8942 H         1 UNK         0.0600 
    239 H239       -8.6632  -20.3303  -53.6612 H         1 UNK         0.0600 
    240 H240       -7.5444  -19.7120  -51.3154 H         1 UNK         0.3000 
    241 H241       -8.0465  -19.4894  -49.1836 H         1 UNK         0.0600 
    242 H242      -10.9421  -22.0256  -49.4524 H         1 UNK         0.3800 
    243 H243       -9.9760  -21.3748  -50.7520 H         1 UNK         0.3800 
    244 H244       -6.3621  -21.9876  -48.6866 H         1 UNK         0.0800 
    245 H245       -6.7958  -20.8082  -47.4807 H         1 UNK         0.0800 
    246 H246       -4.8764  -19.4583  -46.6485 H         1 UNK         0.0800 
    247 H247       -5.8631  -18.2578  -47.4538 H         1 UNK         0.0800 
@<TRIPOS>BOND
     1    1    2 1    
     2    1  127 1    
     3    1  128 1    
     4    1  129 1    
     5    2    3 2    
     6    2    4 am   BACKBONE|DICT|INTERRES
     7    4    5 1    
     8    4  130 1    
     9    5    6 1    
    10    5   65 1    
    11    5  131 1    
    12    6    7 1    
    13    6  132 1    
    14    6  133 1    
    15    7    8 1    
    16    8    9 1    
    17    8  134 1    
    18    8  135 1    
    19    9   10 ar   
    20    9   14 ar   
    21   10   11 ar   
    22   10  136 1    
    23   11   12 ar   
    24   11  126 1    
    25   12   13 ar   
    26   12  137 1    
    27   13   14 ar   
    28   13   15 1    
    29   14  138 1    
    30   15   16 1    
    31   15  139 1    
    32   15  140 1    
    33   16   17 1    
    34   17   18 1    
    35   17  141 1    
    36   17  142 1    
    37   18   19 1    
    38   18   67 1    
    39   18  143 1    
    40   19   20 am   BACKBONE|DICT|INTERRES
    41   19  144 1    
    42   20   21 2    
    43   20   22 1    
    44   22   23 1    
    45   22   24 1    
    46   22  145 1    
    47   23  146 1    
    48   23  147 1    
    49   23  148 1    
    50   24   25 am   BACKBONE|DICT|INTERRES
    51   24  149 1    
    52   25   26 2    
    53   25   27 1    
    54   27   28 1    
    55   27   29 1    
    56   27  150 1    
    57   28  151 1    
    58   28  152 1    
    59   28  153 1    
    60   29   30 am   BACKBONE|DICT|INTERRES
    61   29  154 1    
    62   30   31 2    
    63   30   32 1    
    64   32   33 1    
    65   32   34 1    
    66   32  155 1    
    67   33  156 1    
    68   33  157 1    
    69   33  158 1    
    70   34   35 am   BACKBONE|DICT|INTERRES
    71   34  159 1    
    72   35   36 2    
    73   35   37 1    
    74   37   38 1    
    75   37   39 1    
    76   37  160 1    
    77   38  161 1    
    78   38  162 1    
    79   38  163 1    
    80   39   40 am   BACKBONE|DICT|INTERRES
    81   39  164 1    
    82   40   41 2    
    83   40   42 1    
    84   42   43 1    
    85   42   44 1    
    86   42  165 1    
    87   43  166 1    
    88   43  167 1    
    89   43  168 1    
    90   44   45 am   BACKBONE|DICT|INTERRES
    91   44  169 1    
    92   45   46 2    
    93   45   47 1    
    94   47   48 1    
    95   47   49 1    
    96   47  170 1    
    97   48  171 1    
    98   48  172 1    
    99   48  173 1    
   100   49   50 am   BACKBONE|DICT|INTERRES
   101   49  174 1    
   102   50   51 2    
   103   50   52 1    
   104   52   53 1    
   105   52   54 1    
   106   52  175 1    
   107   53  176 1    
   108   53  177 1    
   109   53  178 1    
   110   54   55 am   BACKBONE|DICT|INTERRES
   111   54  179 1    
   112   55   56 2    
   113   55   57 1    
   114   57   58 1    
   115   57   59 1    
   116   57  180 1    
   117   58  181 1    
   118   58  182 1    
   119   58  183 1    
   120   59   60 am   BACKBONE|DICT|INTERRES
   121   59  184 1    
   122   60   61 2    
   123   60   62 1    
   124   62   63 1    
   125   62   64 1    
   126   62  185 1    
   127   63  186 1    
   128   63  187 1    
   129   63  188 1    
   130   64   65 am   BACKBONE|DICT|INTERRES
   131   64  189 1    
   132   65   66 2    
   133   67   68 2    
   134   67   69 am   BACKBONE|DICT|INTERRES
   135   69   70 1    
   136   69  190 1    
   137   70   71 1    
   138   70   72 1    
   139   70  191 1    
   140   71  192 1    
   141   71  193 1    
   142   71  194 1    
   143   72   73 2    
   144   72   74 am   BACKBONE|DICT|INTERRES
   145   74   75 1    
   146   74  195 1    
   147   75   76 1    
   148   75   77 1    
   149   75  196 1    
   150   76  197 1    
   151   76  198 1    
   152   76  199 1    
   153   77   78 2    
   154   77   79 am   BACKBONE|DICT|INTERRES
   155   79   80 1    
   156   79  200 1    
   157   80   81 1    
   158   80   82 1    
   159   80  201 1    
   160   81  202 1    
   161   81  203 1    
   162   81  204 1    
   163   82   83 2    
   164   82   84 am   BACKBONE|DICT|INTERRES
   165   84   85 1    
   166   84  205 1    
   167   85   86 1    
   168   85   87 1    
   169   85  206 1    
   170   86  207 1    
   171   86  208 1    
   172   86  209 1    
   173   87   88 2    
   174   87   89 am   BACKBONE|DICT|INTERRES
   175   89   90 1    
   176   89  210 1    
   177   90   91 1    
   178   90   92 1    
   179   90  211 1    
   180   91  212 1    
   181   91  213 1    
   182   91  214 1    
   183   92   93 2    
   184   92   94 am   BACKBONE|DICT|INTERRES
   185   94   95 1    
   186   94  215 1    
   187   95   96 1    
   188   95   97 1    
   189   95  216 1    
   190   96  217 1    
   191   96  218 1    
   192   96  219 1    
   193   97   98 2    
   194   97   99 am   BACKBONE|DICT|INTERRES
   195   99  100 1    
   196   99  220 1    
   197  100  101 1    
   198  100  102 1    
   199  100  221 1    
   200  101  222 1    
   201  101  223 1    
   202  101  224 1    
   203  102  103 2    
   204  102  104 am   BACKBONE|DICT|INTERRES
   205  104  105 1    
   206  104  225 1    
   207  105  106 1    
   208  105  107 1    
   209  105  226 1    
   210  106  227 1    
   211  106  228 1    
   212  106  229 1    
   213  107  108 2    
   214  107  109 am   BACKBONE|DICT|INTERRES
   215  109  110 1    
   216  109  230 1    
   217  110  111 1    
   218  110  112 1    
   219  110  231 1    
   220  111  232 1    
   221  111  233 1    
   222  111  234 1    
   223  112  113 2    
   224  112  114 am   BACKBONE|DICT|INTERRES
   225  114  115 1    
   226  114  235 1    
   227  115  116 1    
   228  115  117 1    
   229  115  236 1    
   230  116  237 1    
   231  116  238 1    
   232  116  239 1    
   233  117  118 2    
   234  117  119 am   BACKBONE|DICT|INTERRES
   235  119  120 1    
   236  119  240 1    
   237  120  121 1    
   238  120  124 1    
   239  120  241 1    
   240  121  122 am   BACKBONE|DICT|INTERRES
   241  121  123 2    
   242  122  242 1    
   243  122  243 1    
   244  124  125 1    
   245  124  244 1    
   246  124  245 1    
   247  125  126 1    
   248  126  246 1    
   249  126  247 1    
@<TRIPOS>SUBSTRUCTURE
     1 UNK         1 GROUP             0       ****    0 ROOT    
