@<TRIPOS>MOLECULE
3R540
247   249    1
SMALL
USER_CHARGES


@<TRIPOS>ATOM
      1 CA         -6.2899  -15.1258  -50.4624 C.3       0 UNK        -0.1800 
      2 C          -5.1940  -14.3492  -49.7485 C.2       0 UNK         0.5000 
      3 O          -5.3831  -13.1655  -49.4657 O.2       0 UNK        -0.5000 
      4 N          -4.0553  -14.9940  -49.4564 N.am      1 UNK        -0.5000 
      5 CA         -2.9842  -14.4087  -48.6390 C.3       1 UNK         0.1400 
      6 C6         -1.5847  -15.0193  -48.9125 C.3       23 UNK        -0.0398 
      7 S7         -1.4531  -16.8401  -48.8267 S.3       23 UNK        -0.2404 
      8 C8         -1.1235  -17.2395  -50.5748 C.3       23 UNK        -0.0205 
      9 C9         -0.6002  -18.6572  -50.7697 C.ar      23 UNK        -0.0193 
     10 C10        -1.3107  -19.5908  -51.5332 C.ar      23 UNK        -0.1150 
     11 C11        -0.8036  -20.8774  -51.7521 C.ar      23 UNK        -0.0193 
     12 C12         0.3999  -21.2415  -51.1354 C.ar      23 UNK        -0.1150 
     13 C13         1.1089  -20.3306  -50.3489 C.ar      23 UNK        -0.0193 
     14 C14         0.6233  -19.0271  -50.2067 C.ar      23 UNK        -0.1150 
     15 C15         2.3779  -20.7864  -49.6336 C.3       23 UNK        -0.0205 
     16 S16         2.4895  -20.2763  -47.8801 S.3       23 UNK        -0.2404 
     17 C17         0.8136  -20.5880  -47.2223 C.3       23 UNK        -0.0398 
     18 CA          0.6572  -21.9319  -46.4745 C.3       11 UNK         0.1400 
     19 N           1.5349  -22.0042  -45.3045 N.am      11 UNK        -0.5000 
     20 C           2.1795  -23.0890  -44.8626 C.2       10 UNK         0.5000 
     21 O           2.1208  -24.1901  -45.4121 O.2       10 UNK        -0.5000 
     22 CA          3.0071  -22.8962  -43.5713 C.3       10 UNK         0.1400 
     23 CB          4.0406  -24.0164  -43.3311 C.3       10 UNK        -0.1800 
     24 N           3.6229  -21.5655  -43.4862 N.am      10 UNK        -0.5000 
     25 C           4.5809  -21.0514  -44.2724 C.2       9 UNK         0.5000 
     26 O           5.1638  -21.6878  -45.1508 O.2       9 UNK        -0.5000 
     27 CA          4.9476  -19.5670  -44.0595 C.3       9 UNK         0.1400 
     28 CB          4.4375  -18.7141  -45.2304 C.3       9 UNK        -0.1800 
     29 N           4.4289  -18.9964  -42.8145 N.am      9 UNK        -0.5000 
     30 C           4.9512  -19.2016  -41.5984 C.2       8 UNK         0.5000 
     31 O           5.9391  -19.9055  -41.3868 O.2       8 UNK        -0.5000 
     32 CA          4.2341  -18.5183  -40.4187 C.3       8 UNK         0.1400 
     33 CB          4.6824  -17.0558  -40.2744 C.3       8 UNK        -0.1800 
     34 N           2.7774  -18.5696  -40.5488 N.am      8 UNK        -0.5000 
     35 C           2.0459  -19.6832  -40.4023 C.2       7 UNK         0.5000 
     36 O           2.5198  -20.7806  -40.1078 O.2       7 UNK        -0.5000 
     37 CA          0.5344  -19.5584  -40.6632 C.3       7 UNK         0.1400 
     38 CB         -0.1902  -19.0362  -39.4139 C.3       7 UNK        -0.1800 
     39 N           0.2287  -18.6981  -41.8073 N.am      7 UNK        -0.5000 
     40 C           0.5662  -18.9797  -43.0723 C.2       6 UNK         0.5000 
     41 O           1.1062  -20.0304  -43.4108 O.2       6 UNK        -0.5000 
     42 CA          0.2854  -17.9144  -44.1431 C.3       6 UNK         0.1400 
     43 CB         -1.1348  -18.0701  -44.6957 C.3       6 UNK        -0.1800 
     44 N           0.4854  -16.5490  -43.6708 N.am      6 UNK        -0.5000 
     45 C           1.6585  -16.0460  -43.2648 C.2       5 UNK         0.5000 
     46 O           2.7052  -16.6922  -43.2275 O.2       5 UNK        -0.5000 
     47 CA          1.6436  -14.5893  -42.7776 C.3       5 UNK         0.1400 
     48 CB          1.6161  -13.6125  -43.9635 C.3       5 UNK        -0.1800 
     49 N           0.4993  -14.3345  -41.9050 N.am      5 UNK        -0.5000 
     50 C           0.3881  -14.8003  -40.6534 C.2       4 UNK         0.5000 
     51 O           1.2649  -15.4493  -40.0815 O.2       4 UNK        -0.5000 
     52 CA         -0.9458  -14.5199  -39.9372 C.3       4 UNK         0.1400 
     53 CB         -0.9514  -13.1085  -39.3308 C.3       4 UNK        -0.1800 
     54 N          -2.1057  -14.6750  -40.8187 N.am      4 UNK        -0.5000 
     55 C          -2.4976  -15.8435  -41.3455 C.2       3 UNK         0.5000 
     56 O          -1.9208  -16.9102  -41.1444 O.2       3 UNK        -0.5000 
     57 CA         -3.7189  -15.8154  -42.2805 C.3       3 UNK         0.1400 
     58 CB         -5.0199  -15.8932  -41.4677 C.3       3 UNK        -0.1800 
     59 N          -3.7713  -14.6529  -43.1703 N.am      3 UNK        -0.5000 
     60 C          -2.8332  -14.3237  -44.0680 C.2       2 UNK         0.5000 
     61 O          -1.7403  -14.8836  -44.1649 O.2       2 UNK        -0.5000 
     62 CA         -3.1617  -13.1436  -44.9973 C.3       2 UNK         0.1400 
     63 CB         -2.3987  -11.8880  -44.5475 C.3       2 UNK        -0.1800 
     64 N          -2.8465  -13.4175  -46.4017 N.am      2 UNK        -0.5000 
     65 C          -3.3712  -14.4058  -47.1425 C.2       1 UNK         0.5000 
     66 O          -4.1553  -15.2524  -46.7043 O.2       1 UNK        -0.5000 
     67 C          -0.8270  -22.0869  -46.0827 C.2       11 UNK         0.5000 
     68 O          -1.6599  -22.2495  -46.9737 O.2       11 UNK        -0.5000 
     69 N          -1.1463  -21.9849  -44.7820 N.am      12 UNK        -0.5000 
     70 CA         -2.4920  -21.8190  -44.2121 C.3       12 UNK         0.1400 
     71 CB         -2.3805  -21.8127  -42.6803 C.3       12 UNK        -0.1800 
     72 C          -3.5713  -22.8207  -44.6735 C.2       12 UNK         0.5000 
     73 O          -4.7537  -22.4789  -44.6553 O.2       12 UNK        -0.5000 
     74 N          -3.1552  -24.0187  -45.1012 N.am      13 UNK        -0.5000 
     75 CA         -4.0243  -25.0502  -45.6671 C.3       13 UNK         0.1400 
     76 CB         -3.2478  -26.3754  -45.7137 C.3       13 UNK        -0.1800 
     77 C          -4.5831  -24.7090  -47.0661 C.2       13 UNK         0.5000 
     78 O          -5.6234  -25.2566  -47.4341 O.2       13 UNK        -0.5000 
     79 N          -3.8924  -23.8447  -47.8249 N.am      14 UNK        -0.5000 
     80 CA         -4.2150  -23.5190  -49.2193 C.3       14 UNK         0.1400 
     81 CB         -3.1970  -24.2210  -50.1327 C.3       14 UNK        -0.1800 
     82 C          -4.2505  -22.0054  -49.5044 C.2       14 UNK         0.5000 
     83 O          -4.5350  -21.6213  -50.6390 O.2       14 UNK        -0.5000 
     84 N          -3.9734  -21.1739  -48.4896 N.am      15 UNK        -0.5000 
     85 CA         -3.7832  -19.7185  -48.5545 C.3       15 UNK         0.1400 
     86 CB         -3.6607  -19.1859  -47.1214 C.3       15 UNK        -0.1800 
     87 C          -4.8591  -18.9252  -49.3207 C.2       15 UNK         0.5000 
     88 O          -4.5357  -17.9355  -49.9812 O.2       15 UNK        -0.5000 
     89 N          -6.1082  -19.4062  -49.2568 N.am      16 UNK        -0.5000 
     90 CA         -7.2800  -18.8736  -49.9548 C.3       16 UNK         0.1400 
     91 CB         -8.5167  -19.6710  -49.5134 C.3       16 UNK        -0.1800 
     92 C          -7.1692  -18.8635  -51.4951 C.2       16 UNK         0.5000 
     93 O          -7.9152  -18.1269  -52.1406 O.2       16 UNK        -0.5000 
     94 N          -6.2435  -19.6531  -52.0609 N.am      17 UNK        -0.5000 
     95 CA         -5.9533  -19.7071  -53.4957 C.3       17 UNK         0.1400 
     96 CB         -5.1496  -20.9797  -53.7933 C.3       17 UNK        -0.1800 
     97 C          -5.2197  -18.4603  -54.0380 C.2       17 UNK         0.5000 
     98 O          -5.1060  -18.3282  -55.2560 O.2       17 UNK        -0.5000 
     99 N          -4.7428  -17.5736  -53.1478 N.am      18 UNK        -0.5000 
    100 CA        -4.1818  -16.2484  -53.4479 C.3       18 UNK         0.1400 
    101 CB        -5.2634  -15.3261  -54.0502 C.3       18 UNK        -0.1800 
    102 C         -2.8973  -16.3021  -54.3015 C.2       18 UNK         0.5000 
    103 O         -2.7580  -15.5560  -55.2719 O.2       18 UNK        -0.5000 
    104 N         -1.9794  -17.1914  -53.8997 N.am      19 UNK        -0.5000 
    105 CA        -0.6443  -17.4177  -54.4681 C.3       19 UNK         0.1400 
    106 CB         0.2300  -16.1490  -54.3769 C.3       19 UNK        -0.1800 
    107 C         -0.6594  -18.0465  -55.8768 C.2       19 UNK         0.5000 
    108 O          0.3160  -17.9160  -56.6195 O.2       19 UNK        -0.5000 
    109 N         -1.7459  -18.7581  -56.2056 N.am      20 UNK        -0.5000 
    110 CA        -1.8365  -19.6549  -57.3576 C.3       20 UNK         0.1400 
    111 CB        -3.3125  -20.0211  -57.5789 C.3       20 UNK        -0.1800 
    112 C         -0.9841  -20.9251  -57.1532 C.2       20 UNK         0.5000 
    113 O         -0.5034  -21.1837  -56.0460 O.2       20 UNK        -0.5000 
    114 N         -0.8306  -21.7159  -58.2222 N.am      21 UNK        -0.5000 
    115 CA        -0.0935  -22.9821  -58.2458 C.3       21 UNK         0.1400 
    116 CB         0.2375  -23.3303  -59.7085 C.3       21 UNK        -0.1800 
    117 C         -0.8507  -24.1184  -57.5212 C.2       21 UNK         0.5000 
    118 O         -1.2885  -25.0800  -58.1558 O.2       21 UNK        -0.5000 
    119 N         -1.0071  -23.9726  -56.2014 N.am      22 UNK        -0.5000 
    120 CA        -1.6618  -24.9324  -55.2990 C.3       22 UNK         0.1400 
    121 C         -0.8557  -26.2348  -55.0093 C.2       22 UNK         0.5000 
    122 N          0.4164  -26.3302  -55.3776 N.am      22 UNK        -0.7600 
    123 O         -1.4018  -27.1840  -54.4535 O.2       22 UNK        -0.5000 
    124 C124       -2.1482  -24.2486  -53.9938 C.3       23 UNK        -0.0398 
    125 S125       -0.8198  -23.4372  -53.0306 S.3       23 UNK        -0.2404 
    126 C126       -1.5985  -21.8292  -52.6496 C.3       23 UNK        -0.0205 
    127 H127       -5.9023  -16.0084  -50.9656 H         1 UNK         0.0600 
    128 H128       -7.0491  -15.4401  -49.7470 H         1 UNK         0.0600 
    129 H129       -6.7704  -14.4975  -51.2121 H         1 UNK         0.0600 
    130 H130       -3.9881  -15.9923  -49.6295 H         1 UNK         0.3000 
    131 H131       -2.9025  -13.3584  -48.9286 H         1 UNK         0.0600 
    132 H132       -0.8493  -14.6026  -48.2220 H         1 UNK         0.0800 
    133 H133       -1.2562  -14.6892  -49.8984 H         1 UNK         0.0800 
    134 H134       -0.3844  -16.5473  -50.9799 H         1 UNK         0.0800 
    135 H135       -2.0452  -17.0813  -51.1332 H         1 UNK         0.0800 
    136 H136       -2.2611  -19.3190  -51.9687 H         1 UNK         0.1150 
    137 H137        0.7940  -22.2395  -51.2530 H         1 UNK         0.1150 
    138 H138        1.1743  -18.3108  -49.6134 H         1 UNK         0.1150 
    139 H139        2.4623  -21.8736  -49.6685 H         1 UNK         0.0800 
    140 H140        3.2429  -20.3942  -50.1693 H         1 UNK         0.0800 
    141 H141        0.0779  -20.5179  -48.0222 H         1 UNK         0.0800 
    142 H142        0.5800  -19.7586  -46.5556 H         1 UNK         0.0800 
    143 H143        0.8968  -22.7405  -47.1680 H         1 UNK         0.0600 
    144 H144        1.6053  -21.1579  -44.7440 H         1 UNK         0.3000 
    145 H145        2.2892  -22.9391  -42.7510 H         1 UNK         0.0600 
    146 H146        4.6060  -23.8409  -42.4159 H         1 UNK         0.0600 
    147 H147        3.5483  -24.9839  -43.2272 H         1 UNK         0.0600 
    148 H148        4.7502  -24.1008  -44.1543 H         1 UNK         0.0600 
    149 H149        3.1840  -20.9320  -42.8311 H         1 UNK         0.3000 
    150 H150        6.0374  -19.5009  -44.0427 H         1 UNK         0.0600 
    151 H151        4.8368  -19.0715  -46.1802 H         1 UNK         0.0600 
    152 H152        4.7400  -17.6724  -45.1226 H         1 UNK         0.0600 
    153 H153        3.3496  -18.7409  -45.2987 H         1 UNK         0.0600 
    154 H154        3.6566  -18.3416  -42.9054 H         1 UNK         0.3000 
    155 H155        4.5146  -19.0480  -39.5058 H         1 UNK         0.0600 
    156 H156        4.4252  -16.4637  -41.1530 H         1 UNK         0.0600 
    157 H157        5.7627  -16.9907  -40.1397 H         1 UNK         0.0600 
    158 H158        4.2169  -16.5851  -39.4082 H         1 UNK         0.0600 
    159 H159        2.3105  -17.7090  -40.8023 H         1 UNK         0.3000 
    160 H160        0.1557  -20.5589  -40.8809 H         1 UNK         0.0600 
    161 H161       -1.2715  -19.0608  -39.5490 H         1 UNK         0.0600 
    162 H162        0.0952  -18.0089  -39.1833 H         1 UNK         0.0600 
    163 H163        0.0411  -19.6478  -38.5410 H         1 UNK         0.0600 
    164 H164       -0.3006  -17.8527  -41.6130 H         1 UNK         0.3000 
    165 H165        0.9885  -18.0781  -44.9612 H         1 UNK         0.0600 
    166 H166       -1.3192  -17.3827  -45.5220 H         1 UNK         0.0600 
    167 H167       -1.2853  -19.0802  -45.0695 H         1 UNK         0.0600 
    168 H168       -1.8875  -17.8876  -43.9295 H         1 UNK         0.0600 
    169 H169       -0.3259  -15.9345  -43.7088 H         1 UNK         0.3000 
    170 H170        2.5607  -14.4131  -42.2113 H         1 UNK         0.0600 
    171 H171        2.4770  -13.7685  -44.6147 H         1 UNK         0.0600 
    172 H172        0.7194  -13.7358  -44.5717 H         1 UNK         0.0600 
    173 H173        1.6498  -12.5778  -43.6224 H         1 UNK         0.0600 
    174 H174       -0.2921  -13.8642  -42.3188 H         1 UNK         0.3000 
    175 H175       -1.0415  -15.2410  -39.1224 H         1 UNK         0.0600 
    176 H176       -1.8581  -12.9320  -38.7517 H         1 UNK         0.0600 
    177 H177       -0.1048  -12.9703  -38.6570 H         1 UNK         0.0600 
    178 H178       -0.8883  -12.3376  -40.0999 H         1 UNK         0.0600 
    179 H179       -2.6328  -13.8431  -41.0394 H         1 UNK         0.3000 
    180 H180       -3.6663  -16.7036  -42.9124 H         1 UNK         0.0600 
    181 H181       -5.1601  -15.0091  -40.8446 H         1 UNK         0.0600 
    182 H182       -5.0173  -16.7625  -40.8086 H         1 UNK         0.0600 
    183 H183       -5.8883  -15.9860  -42.1203 H         1 UNK         0.0600 
    184 H184       -4.6301  -14.1221  -43.1523 H         1 UNK         0.3000 
    185 H185       -4.2321  -12.9365  -44.9381 H         1 UNK         0.0600 
    186 H186       -1.3190  -12.0243  -44.6232 H         1 UNK         0.0600 
    187 H187       -2.6710  -11.0221  -45.1514 H         1 UNK         0.0600 
    188 H188       -2.6260  -11.6419  -43.5094 H         1 UNK         0.0600 
    189 H189       -2.1992  -12.7764  -46.8358 H         1 UNK         0.3000 
    190 H190       -0.3816  -21.8606  -44.1337 H         1 UNK         0.3000 
    191 H191       -2.8449  -20.8336  -44.5191 H         1 UNK         0.0600 
    192 H192       -1.7637  -20.9837  -42.3351 H         1 UNK         0.0600 
    193 H193       -1.9437  -22.7390  -42.3057 H         1 UNK         0.0600 
    194 H194       -3.3598  -21.6978  -42.2135 H         1 UNK         0.0600 
    195 H195       -2.1642  -24.2097  -45.0956 H         1 UNK         0.3000 
    196 H196       -4.8774  -25.1802  -44.9977 H         1 UNK         0.0600 
    197 H197       -3.8723  -27.1818  -46.1006 H         1 UNK         0.0600 
    198 H198       -2.9147  -26.6734  -44.7194 H         1 UNK         0.0600 
    199 H199       -2.3691  -26.3037  -46.3561 H         1 UNK         0.0600 
    200 H200       -3.0425  -23.4268  -47.4527 H         1 UNK         0.3000 
    201 H201       -5.2093  -23.8900  -49.4747 H         1 UNK         0.0600 
    202 H202       -3.1783  -25.2960  -49.9532 H         1 UNK         0.0600 
    203 H203       -2.1877  -23.8362  -49.9791 H         1 UNK         0.0600 
    204 H204       -3.4510  -24.0753  -51.1825 H         1 UNK         0.0600 
    205 H205       -3.7157  -21.6016  -47.6119 H         1 UNK         0.3000 
    206 H206       -2.8348  -19.5482  -49.0646 H         1 UNK         0.0600 
    207 H207       -2.7922  -19.6193  -46.6318 H         1 UNK         0.0600 
    208 H208       -3.5386  -18.1021  -47.1047 H         1 UNK         0.0600 
    209 H209       -4.5408  -19.4261  -46.5238 H         1 UNK         0.0600 
    210 H210       -6.2563  -20.2413  -48.7100 H         1 UNK         0.3000 
    211 H211       -7.4090  -17.8391  -49.6336 H         1 UNK         0.0600 
    212 H212       -8.4315  -20.7245  -49.7829 H         1 UNK         0.0600 
    213 H213       -9.4217  -19.2838  -49.9837 H         1 UNK         0.0600 
    214 H214       -8.6626  -19.6097  -48.4347 H         1 UNK         0.0600 
    215 H215       -5.6751  -20.2491  -51.4647 H         1 UNK         0.3000 
    216 H216       -6.9038  -19.7784  -54.0282 H         1 UNK         0.0600 
    217 H217       -5.0345  -21.1307  -54.8663 H         1 UNK         0.0600 
    218 H218       -5.6410  -21.8662  -53.3918 H         1 UNK         0.0600 
    219 H219       -4.1550  -20.9204  -53.3585 H         1 UNK         0.0600 
    220 H220       -4.8547  -17.7920  -52.1643 H         1 UNK         0.3000 
    221 H221       -3.8878  -15.8193  -52.4891 H         1 UNK         0.0600 
    222 H222       -5.5424  -15.6336  -55.0586 H         1 UNK         0.0600 
    223 H223       -6.1684  -15.3250  -53.4439 H         1 UNK         0.0600 
    224 H224       -4.9091  -14.2964  -54.1090 H         1 UNK         0.0600 
    225 H225       -2.2188  -17.7802  -53.1176 H         1 UNK         0.3000 
    226 H226       -0.1766  -18.1680  -53.8292 H         1 UNK         0.0600 
    227 H227        1.2673  -16.3710  -54.6296 H         1 UNK         0.0600 
    228 H228        0.2259  -15.7376  -53.3678 H         1 UNK         0.0600 
    229 H229       -0.1102  -15.3702  -55.0597 H         1 UNK         0.0600 
    230 H230       -2.5131  -18.7912  -55.5509 H         1 UNK         0.3000 
    231 H231       -1.4666  -19.1293  -58.2403 H         1 UNK         0.0600 
    232 H232       -3.7155  -20.5839  -56.7372 H         1 UNK         0.0600 
    233 H233       -3.4417  -20.6316  -58.4732 H         1 UNK         0.0600 
    234 H234       -3.9250  -19.1285  -57.7084 H         1 UNK         0.0600 
    235 H235       -1.2818  -21.4538  -59.0867 H         1 UNK         0.3000 
    236 H236        0.8535  -22.8405  -57.7205 H         1 UNK         0.0600 
    237 H237        0.8096  -24.2569  -59.7702 H         1 UNK         0.0600 
    238 H238       -0.6649  -23.4598  -60.3074 H         1 UNK         0.0600 
    239 H239        0.8389  -22.5487  -60.1732 H         1 UNK         0.0600 
    240 H240       -0.6609  -23.1186  -55.7734 H         1 UNK         0.3000 
    241 H241       -2.5604  -25.2747  -55.8160 H         1 UNK         0.0600 
    242 H242        0.9259  -27.1796  -55.1909 H         1 UNK         0.3800 
    243 H243        0.8784  -25.5552  -55.8246 H         1 UNK         0.3800 
    244 H244       -2.9071  -23.5072  -54.2476 H         1 UNK         0.0800 
    245 H245       -2.6532  -24.9690  -53.3484 H         1 UNK         0.0800 
    246 H246       -2.5538  -22.0275  -52.1702 H         1 UNK         0.0800 
    247 H247       -1.8095  -21.3229  -53.5925 H         1 UNK         0.0800 
@<TRIPOS>BOND
     1    1    2 1    
     2    1  127 1    
     3    1  128 1    
     4    1  129 1    
     5    2    3 2    
     6    2    4 am   BACKBONE|DICT|INTERRES
     7    4    5 1    
     8    4  130 1    
     9    5    6 1    
    10    5   65 1    
    11    5  131 1    
    12    6    7 1    
    13    6  132 1    
    14    6  133 1    
    15    7    8 1    
    16    8    9 1    
    17    8  134 1    
    18    8  135 1    
    19    9   10 ar   
    20    9   14 ar   
    21   10   11 ar   
    22   10  136 1    
    23   11   12 ar   
    24   11  126 1    
    25   12   13 ar   
    26   12  137 1    
    27   13   14 ar   
    28   13   15 1    
    29   14  138 1    
    30   15   16 1    
    31   15  139 1    
    32   15  140 1    
    33   16   17 1    
    34   17   18 1    
    35   17  141 1    
    36   17  142 1    
    37   18   19 1    
    38   18   67 1    
    39   18  143 1    
    40   19   20 am   BACKBONE|DICT|INTERRES
    41   19  144 1    
    42   20   21 2    
    43   20   22 1    
    44   22   23 1    
    45   22   24 1    
    46   22  145 1    
    47   23  146 1    
    48   23  147 1    
    49   23  148 1    
    50   24   25 am   BACKBONE|DICT|INTERRES
    51   24  149 1    
    52   25   26 2    
    53   25   27 1    
    54   27   28 1    
    55   27   29 1    
    56   27  150 1    
    57   28  151 1    
    58   28  152 1    
    59   28  153 1    
    60   29   30 am   BACKBONE|DICT|INTERRES
    61   29  154 1    
    62   30   31 2    
    63   30   32 1    
    64   32   33 1    
    65   32   34 1    
    66   32  155 1    
    67   33  156 1    
    68   33  157 1    
    69   33  158 1    
    70   34   35 am   BACKBONE|DICT|INTERRES
    71   34  159 1    
    72   35   36 2    
    73   35   37 1    
    74   37   38 1    
    75   37   39 1    
    76   37  160 1    
    77   38  161 1    
    78   38  162 1    
    79   38  163 1    
    80   39   40 am   BACKBONE|DICT|INTERRES
    81   39  164 1    
    82   40   41 2    
    83   40   42 1    
    84   42   43 1    
    85   42   44 1    
    86   42  165 1    
    87   43  166 1    
    88   43  167 1    
    89   43  168 1    
    90   44   45 am   BACKBONE|DICT|INTERRES
    91   44  169 1    
    92   45   46 2    
    93   45   47 1    
    94   47   48 1    
    95   47   49 1    
    96   47  170 1    
    97   48  171 1    
    98   48  172 1    
    99   48  173 1    
   100   49   50 am   BACKBONE|DICT|INTERRES
   101   49  174 1    
   102   50   51 2    
   103   50   52 1    
   104   52   53 1    
   105   52   54 1    
   106   52  175 1    
   107   53  176 1    
   108   53  177 1    
   109   53  178 1    
   110   54   55 am   BACKBONE|DICT|INTERRES
   111   54  179 1    
   112   55   56 2    
   113   55   57 1    
   114   57   58 1    
   115   57   59 1    
   116   57  180 1    
   117   58  181 1    
   118   58  182 1    
   119   58  183 1    
   120   59   60 am   BACKBONE|DICT|INTERRES
   121   59  184 1    
   122   60   61 2    
   123   60   62 1    
   124   62   63 1    
   125   62   64 1    
   126   62  185 1    
   127   63  186 1    
   128   63  187 1    
   129   63  188 1    
   130   64   65 am   BACKBONE|DICT|INTERRES
   131   64  189 1    
   132   65   66 2    
   133   67   68 2    
   134   67   69 am   BACKBONE|DICT|INTERRES
   135   69   70 1    
   136   69  190 1    
   137   70   71 1    
   138   70   72 1    
   139   70  191 1    
   140   71  192 1    
   141   71  193 1    
   142   71  194 1    
   143   72   73 2    
   144   72   74 am   BACKBONE|DICT|INTERRES
   145   74   75 1    
   146   74  195 1    
   147   75   76 1    
   148   75   77 1    
   149   75  196 1    
   150   76  197 1    
   151   76  198 1    
   152   76  199 1    
   153   77   78 2    
   154   77   79 am   BACKBONE|DICT|INTERRES
   155   79   80 1    
   156   79  200 1    
   157   80   81 1    
   158   80   82 1    
   159   80  201 1    
   160   81  202 1    
   161   81  203 1    
   162   81  204 1    
   163   82   83 2    
   164   82   84 am   BACKBONE|DICT|INTERRES
   165   84   85 1    
   166   84  205 1    
   167   85   86 1    
   168   85   87 1    
   169   85  206 1    
   170   86  207 1    
   171   86  208 1    
   172   86  209 1    
   173   87   88 2    
   174   87   89 am   BACKBONE|DICT|INTERRES
   175   89   90 1    
   176   89  210 1    
   177   90   91 1    
   178   90   92 1    
   179   90  211 1    
   180   91  212 1    
   181   91  213 1    
   182   91  214 1    
   183   92   93 2    
   184   92   94 am   BACKBONE|DICT|INTERRES
   185   94   95 1    
   186   94  215 1    
   187   95   96 1    
   188   95   97 1    
   189   95  216 1    
   190   96  217 1    
   191   96  218 1    
   192   96  219 1    
   193   97   98 2    
   194   97   99 am   BACKBONE|DICT|INTERRES
   195   99  100 1    
   196   99  220 1    
   197  100  101 1    
   198  100  102 1    
   199  100  221 1    
   200  101  222 1    
   201  101  223 1    
   202  101  224 1    
   203  102  103 2    
   204  102  104 am   BACKBONE|DICT|INTERRES
   205  104  105 1    
   206  104  225 1    
   207  105  106 1    
   208  105  107 1    
   209  105  226 1    
   210  106  227 1    
   211  106  228 1    
   212  106  229 1    
   213  107  108 2    
   214  107  109 am   BACKBONE|DICT|INTERRES
   215  109  110 1    
   216  109  230 1    
   217  110  111 1    
   218  110  112 1    
   219  110  231 1    
   220  111  232 1    
   221  111  233 1    
   222  111  234 1    
   223  112  113 2    
   224  112  114 am   BACKBONE|DICT|INTERRES
   225  114  115 1    
   226  114  235 1    
   227  115  116 1    
   228  115  117 1    
   229  115  236 1    
   230  116  237 1    
   231  116  238 1    
   232  116  239 1    
   233  117  118 2    
   234  117  119 am   BACKBONE|DICT|INTERRES
   235  119  120 1    
   236  119  240 1    
   237  120  121 1    
   238  120  124 1    
   239  120  241 1    
   240  121  122 am   BACKBONE|DICT|INTERRES
   241  121  123 2    
   242  122  242 1    
   243  122  243 1    
   244  124  125 1    
   245  124  244 1    
   246  124  245 1    
   247  125  126 1    
   248  126  246 1    
   249  126  247 1    
@<TRIPOS>SUBSTRUCTURE
     1 UNK         1 GROUP             0       ****    0 ROOT    
