@<TRIPOS>MOLECULE
3R540
247   249    1
SMALL
USER_CHARGES


@<TRIPOS>ATOM
      1 CA          5.8183   -9.4363  -50.1861 C.3       0 UNK        -0.1800 
      2 C           5.8149  -10.0735  -48.8041 C.2       0 UNK         0.5000 
      3 O           5.7553   -9.3638  -47.7999 O.2       0 UNK        -0.5000 
      4 N           5.8657  -11.4108  -48.7453 N.am      1 UNK        -0.5000 
      5 CA          5.8758  -12.1984  -47.5050 C.3       1 UNK         0.1400 
      6 C6          6.4393  -13.6247  -47.7260 C.3       23 UNK        -0.0398 
      7 S7          5.4744  -14.6514  -48.8916 S.3       23 UNK        -0.2404 
      8 C8          4.5077  -15.6611  -47.7258 C.3       23 UNK        -0.0205 
      9 C9          3.6548  -16.6820  -48.4565 C.ar      23 UNK        -0.0193 
     10 C10         2.3979  -16.3268  -48.9523 C.ar      23 UNK        -0.1150 
     11 C11         1.5971  -17.2730  -49.5989 C.ar      23 UNK        -0.0193 
     12 C12         2.0751  -18.5766  -49.7638 C.ar      23 UNK        -0.1150 
     13 C13         3.3326  -18.9460  -49.2706 C.ar      23 UNK        -0.0193 
     14 C14         4.1158  -17.9898  -48.6195 C.ar      23 UNK        -0.1150 
     15 C15         3.8724  -20.3649  -49.4321 C.3       23 UNK        -0.0205 
     16 S16         2.6301  -21.6775  -49.1899 S.3       23 UNK        -0.2404 
     17 C17         1.9265  -21.2245  -47.5659 C.3       23 UNK        -0.0398 
     18 CA          0.9000  -22.2479  -47.0315 C.3       11 UNK         0.1400 
     19 N           0.4816  -21.9175  -45.6695 N.am      11 UNK        -0.5000 
     20 C          -0.2476  -22.7155  -44.8785 C.2       10 UNK         0.5000 
     21 O          -0.5957  -23.8543  -45.1889 O.2       10 UNK        -0.5000 
     22 CA         -0.7083  -22.1199  -43.5365 C.3       10 UNK         0.1400 
     23 CB          0.4157  -22.1912  -42.4925 C.3       10 UNK        -0.1800 
     24 N          -1.1795  -20.7393  -43.6687 N.am      10 UNK        -0.5000 
     25 C          -2.2435  -20.3741  -44.3993 C.2       9 UNK         0.5000 
     26 O          -2.9633  -21.1707  -44.9999 O.2       9 UNK        -0.5000 
     27 CA         -2.5371  -18.8690  -44.5132 C.3       9 UNK         0.1400 
     28 CB         -3.2740  -18.3658  -43.2633 C.3       9 UNK        -0.1800 
     29 N          -1.3331  -18.0692  -44.7384 N.am      9 UNK        -0.5000 
     30 C          -0.5522  -18.1525  -45.8257 C.2       8 UNK         0.5000 
     31 O          -0.7790  -18.9008  -46.7756 O.2       8 UNK        -0.5000 
     32 CA          0.7304  -17.3008  -45.8259 C.3       8 UNK         0.1400 
     33 CB          0.4232  -15.8291  -46.1415 C.3       8 UNK        -0.1800 
     34 N           1.4565  -17.3893  -44.5604 N.am      8 UNK        -0.5000 
     35 C           1.9737  -18.5204  -44.0604 C.2       7 UNK         0.5000 
     36 O           1.9399  -19.6075  -44.6377 O.2       7 UNK        -0.5000 
     37 CA          2.5820  -18.4289  -42.6522 C.3       7 UNK         0.1400 
     38 CB          4.0132  -17.8729  -42.7065 C.3       7 UNK        -0.1800 
     39 N           1.7614  -17.6069  -41.7620 N.am      7 UNK        -0.5000 
     40 C           0.5577  -17.9713  -41.2970 C.2       6 UNK         0.5000 
     41 O           0.0263  -19.0523  -41.5489 O.2       6 UNK        -0.5000 
     42 CA         -0.1954  -16.9390  -40.4381 C.3       6 UNK         0.1400 
     43 CB          0.3012  -16.9748  -38.9852 C.3       6 UNK        -0.1800 
     44 N          -0.0774  -15.5767  -40.9595 N.am      6 UNK        -0.5000 
     45 C          -0.5945  -15.1681  -42.1264 C.2       5 UNK         0.5000 
     46 O          -1.2503  -15.8916  -42.8734 O.2       5 UNK        -0.5000 
     47 CA         -0.2926  -13.7221  -42.5555 C.3       5 UNK         0.1400 
     48 CB         -1.3429  -12.7572  -41.9870 C.3       5 UNK        -0.1800 
     49 N           1.0434  -13.2542  -42.1832 N.am      5 UNK        -0.5000 
     50 C           2.1983  -13.8192  -42.5584 C.2       4 UNK         0.5000 
     51 O           2.2694  -14.8788  -43.1847 O.2       4 UNK        -0.5000 
     52 CA          3.4707  -13.0250  -42.2106 C.3       4 UNK         0.1400 
     53 CB          4.7582  -13.8379  -42.4356 C.3       4 UNK        -0.1800 
     54 N           3.5078  -11.8198  -43.0362 N.am      4 UNK        -0.5000 
     55 C           2.8783  -10.6701  -42.7495 C.2       3 UNK         0.5000 
     56 O           2.3312  -10.4498  -41.6680 O.2       3 UNK        -0.5000 
     57 CA          2.7852   -9.6155  -43.8734 C.3       3 UNK         0.1400 
     58 CB          3.9701   -8.6413  -43.7992 C.3       3 UNK        -0.1800 
     59 N           2.7373  -10.2088  -45.2113 N.am      3 UNK        -0.5000 
     60 C           1.7810  -11.0371  -45.6574 C.2       2 UNK         0.5000 
     61 O           0.7332  -11.2553  -45.0489 O.2       2 UNK        -0.5000 
     62 CA          2.0468  -11.7791  -46.9851 C.3       2 UNK         0.1400 
     63 CB          1.1547  -11.2230  -48.1050 C.3       2 UNK        -0.1800 
     64 N           3.4403  -11.7689  -47.4467 N.am      2 UNK        -0.5000 
     65 C           4.5097  -12.2358  -46.7835 C.2       1 UNK         0.5000 
     66 O           4.4518  -12.6870  -45.6406 O.2       1 UNK        -0.5000 
     67 C          -0.3146  -22.4182  -47.9709 C.2       11 UNK         0.5000 
     68 O          -0.3772  -23.4107  -48.6950 O.2       11 UNK        -0.5000 
     69 N          -1.2791  -21.4886  -47.9133 N.am      12 UNK        -0.5000 
     70 CA         -2.5193  -21.5443  -48.6902 C.3       12 UNK         0.1400 
     71 CB         -3.3111  -20.2423  -48.4973 C.3       12 UNK        -0.1800 
     72 C          -3.3846  -22.7744  -48.3542 C.2       12 UNK         0.5000 
     73 O          -3.8991  -23.4273  -49.2632 O.2       12 UNK        -0.5000 
     74 N          -3.4857  -23.1019  -47.0585 N.am      13 UNK        -0.5000 
     75 CA         -4.1636  -24.2951  -46.5513 C.3       13 UNK         0.1400 
     76 CB         -4.2668  -24.2152  -45.0209 C.3       13 UNK        -0.1800 
     77 C          -3.4831  -25.6079  -46.9831 C.2       13 UNK         0.5000 
     78 O          -4.1815  -26.5873  -47.2431 O.2       13 UNK        -0.5000 
     79 N          -2.1453  -25.6057  -47.0661 N.am      14 UNK        -0.5000 
     80 CA         -1.3488  -26.7251  -47.5687 C.3       14 UNK         0.1400 
     81 CB          0.1181  -26.5488  -47.1468 C.3       14 UNK        -0.1800 
     82 C          -1.4685  -26.8919  -49.0953 C.2       14 UNK         0.5000 
     83 O          -1.5518  -28.0247  -49.5717 O.2       14 UNK        -0.5000 
     84 N          -1.4835  -25.7699  -49.8310 N.am      15 UNK        -0.5000 
     85 CA         -1.6666  -25.7191  -51.2832 C.3       15 UNK         0.1400 
     86 CB         -1.3843  -24.2976  -51.7930 C.3       15 UNK        -0.1800 
     87 C          -3.0663  -26.1966  -51.7105 C.2       15 UNK         0.5000 
     88 O          -3.1745  -26.9992  -52.6375 O.2       15 UNK        -0.5000 
     89 N          -4.0973  -25.7221  -50.9961 N.am      16 UNK        -0.5000 
     90 CA         -5.4946  -26.1751  -50.9544 C.3       16 UNK         0.1400 
     91 CB         -5.5646  -27.6254  -50.4391 C.3       16 UNK        -0.1800 
     92 C          -6.3330  -26.0387  -52.2429 C.2       16 UNK         0.5000 
     93 O          -7.5589  -25.9730  -52.1331 O.2       16 UNK        -0.5000 
     94 N          -5.6991  -26.0336  -53.4234 N.am      17 UNK        -0.5000 
     95 CA         -6.3340  -26.0877  -54.7430 C.3       17 UNK         0.1400 
     96 CB         -5.2627  -26.0493  -55.8426 C.3       17 UNK        -0.1800 
     97 C          -7.4035  -24.9993  -54.9553 C.2       17 UNK         0.5000 
     98 O          -7.1247  -23.8089  -54.7760 O.2       17 UNK        -0.5000 
     99 N          -8.6268  -25.4567  -55.2636 N.am      18 UNK        -0.5000 
    100 CA        -9.8667  -24.6888  -55.4485 C.3       18 UNK         0.1400 
    101 CB        -9.7576  -23.8077  -56.7101 C.3       18 UNK        -0.1800 
    102 C        -10.3132  -23.8697  -54.2145 C.2       18 UNK         0.5000 
    103 O        -11.2026  -23.0274  -54.3439 O.2       18 UNK        -0.5000 
    104 N         -9.6700  -24.0970  -53.0565 N.am      19 UNK        -0.5000 
    105 CA        -9.7129  -23.2862  -51.8341 C.3       19 UNK         0.1400 
    106 CB       -11.0965  -23.3856  -51.1590 C.3       19 UNK        -0.1800 
    107 C         -9.2570  -21.8243  -52.0589 C.2       19 UNK         0.5000 
    108 O         -9.6448  -20.9417  -51.2912 O.2       19 UNK        -0.5000 
    109 N         -8.4630  -21.5910  -53.1146 N.am      20 UNK        -0.5000 
    110 CA        -8.1058  -20.2626  -53.6127 C.3       20 UNK         0.1400 
    111 CB        -8.8267  -20.0334  -54.9510 C.3       20 UNK        -0.1800 
    112 C         -6.5915  -20.0698  -53.7848 C.2       20 UNK         0.5000 
    113 O         -6.1558  -18.9209  -53.8776 O.2       20 UNK        -0.5000 
    114 N         -5.8182  -21.1656  -53.8342 N.am      21 UNK        -0.5000 
    115 CA        -4.3634  -21.1854  -54.0099 C.3       21 UNK         0.1400 
    116 CB        -3.8828  -22.6432  -53.9918 C.3       21 UNK        -0.1800 
    117 C         -3.6197  -20.3429  -52.9555 C.2       21 UNK         0.5000 
    118 O         -3.5023  -20.7682  -51.8076 O.2       21 UNK        -0.5000 
    119 N         -3.1680  -19.1518  -53.3669 N.am      22 UNK        -0.5000 
    120 CA        -2.5624  -18.1151  -52.5145 C.3       22 UNK         0.1400 
    121 C         -3.5363  -17.4880  -51.4650 C.2       22 UNK         0.5000 
    122 N         -4.8476  -17.5682  -51.6582 N.am      22 UNK        -0.7600 
    123 O         -3.1108  -16.8942  -50.4790 O.2       22 UNK        -0.5000 
    124 C124       -1.1877  -18.5507  -51.9267 C.3       23 UNK        -0.0398 
    125 S125        0.0045  -17.1647  -51.8757 S.3       23 UNK        -0.2404 
    126 C126        0.2058  -16.8926  -50.0848 C.3       23 UNK        -0.0205 
    127 H127        4.9125   -8.8473  -50.3299 H         1 UNK         0.0600 
    128 H128        5.8669  -10.1847  -50.9774 H         1 UNK         0.0600 
    129 H129        6.6774   -8.7739  -50.2913 H         1 UNK         0.0600 
    130 H130        5.9017  -11.9488  -49.6004 H         1 UNK         0.3000 
    131 H131        6.5583  -11.6983  -46.8142 H         1 UNK         0.0600 
    132 H132        7.4547  -13.5506  -48.1175 H         1 UNK         0.0800 
    133 H133        6.5407  -14.1464  -46.7725 H         1 UNK         0.0800 
    134 H134        5.1825  -16.1652  -47.0320 H         1 UNK         0.0800 
    135 H135        3.8658  -15.0228  -47.1180 H         1 UNK         0.0800 
    136 H136        2.0401  -15.3154  -48.8197 H         1 UNK         0.1150 
    137 H137        1.4576  -19.3067  -50.2674 H         1 UNK         0.1150 
    138 H138        5.0892  -18.2627  -48.2363 H         1 UNK         0.1150 
    139 H139        4.2961  -20.4641  -50.4320 H         1 UNK         0.0800 
    140 H140        4.6901  -20.5416  -48.7315 H         1 UNK         0.0800 
    141 H141        1.4682  -20.2372  -47.6296 H         1 UNK         0.0800 
    142 H142        2.7521  -21.1284  -46.8591 H         1 UNK         0.0800 
    143 H143        1.4019  -23.2165  -46.9790 H         1 UNK         0.0600 
    144 H144        0.7637  -21.0067  -45.3180 H         1 UNK         0.3000 
    145 H145       -1.5437  -22.7236  -43.1762 H         1 UNK         0.0600 
    146 H146        0.0666  -21.8568  -41.5155 H         1 UNK         0.0600 
    147 H147        0.7765  -23.2139  -42.3760 H         1 UNK         0.0600 
    148 H148        1.2675  -21.5715  -42.7734 H         1 UNK         0.0600 
    149 H149       -0.6627  -20.0305  -43.1577 H         1 UNK         0.3000 
    150 H150       -3.1946  -18.7247  -45.3728 H         1 UNK         0.0600 
    151 H151       -4.1751  -18.9516  -43.0775 H         1 UNK         0.0600 
    152 H152       -3.5813  -17.3264  -43.3798 H         1 UNK         0.0600 
    153 H153       -2.6481  -18.4320  -42.3728 H         1 UNK         0.0600 
    154 H154       -1.1037  -17.3900  -44.0173 H         1 UNK         0.3000 
    155 H155        1.3854  -17.6906  -46.6071 H         1 UNK         0.0600 
    156 H156       -0.0702  -15.7334  -47.1092 H         1 UNK         0.0600 
    157 H157        1.3374  -15.2365  -46.1789 H         1 UNK         0.0600 
    158 H158       -0.2328  -15.3839  -45.3941 H         1 UNK         0.0600 
    159 H159        1.5664  -16.5306  -44.0291 H         1 UNK         0.3000 
    160 H160        2.6271  -19.4389  -42.2393 H         1 UNK         0.0600 
    161 H161        4.0449  -16.8704  -43.1335 H         1 UNK         0.0600 
    162 H162        4.6521  -18.5082  -43.3211 H         1 UNK         0.0600 
    163 H163        4.4582  -17.8289  -41.7124 H         1 UNK         0.0600 
    164 H164        2.0938  -16.6721  -41.5743 H         1 UNK         0.3000 
    165 H165       -1.2528  -17.2121  -40.4430 H         1 UNK         0.0600 
    166 H166       -0.2822  -16.3055  -38.3527 H         1 UNK         0.0600 
    167 H167        0.2092  -17.9780  -38.5667 H         1 UNK         0.0600 
    168 H168        1.3490  -16.6818  -38.9083 H         1 UNK         0.0600 
    169 H169        0.4532  -14.9167  -40.4103 H         1 UNK         0.3000 
    170 H170       -0.3546  -13.6844  -43.6447 H         1 UNK         0.0600 
    171 H171       -2.3507  -13.0677  -42.2659 H         1 UNK         0.0600 
    172 H172       -1.3013  -12.7118  -40.8980 H         1 UNK         0.0600 
    173 H173       -1.1971  -11.7475  -42.3721 H         1 UNK         0.0600 
    174 H174        1.0908  -12.3612  -41.7092 H         1 UNK         0.3000 
    175 H175        3.4265  -12.7531  -41.1541 H         1 UNK         0.0600 
    176 H176        4.8536  -14.1747  -43.4683 H         1 UNK         0.0600 
    177 H177        5.6427  -13.2489  -42.1938 H         1 UNK         0.0600 
    178 H178        4.7731  -14.7242  -41.8004 H         1 UNK         0.0600 
    179 H179        3.8766  -11.9534  -43.9744 H         1 UNK         0.3000 
    180 H180        1.8628   -9.0509  -43.7233 H         1 UNK         0.0600 
    181 H181        4.9201   -9.1500  -43.9687 H         1 UNK         0.0600 
    182 H182        4.0225   -8.1639  -42.8198 H         1 UNK         0.0600 
    183 H183        3.8766   -7.8487  -44.5419 H         1 UNK         0.0600 
    184 H184        3.5556  -10.0826  -45.7894 H         1 UNK         0.3000 
    185 H185        1.7725  -12.8226  -46.8190 H         1 UNK         0.0600 
    186 H186        0.1027  -11.2457  -47.8171 H         1 UNK         0.0600 
    187 H187        1.4082  -10.1893  -48.3430 H         1 UNK         0.0600 
    188 H188        1.2514  -11.8127  -49.0169 H         1 UNK         0.0600 
    189 H189        3.5966  -11.4107  -48.3773 H         1 UNK         0.3000 
    190 H190       -1.1467  -20.6688  -47.3260 H         1 UNK         0.3000 
    191 H191       -2.2346  -21.6199  -49.7403 H         1 UNK         0.0600 
    192 H192       -2.7257  -19.3758  -48.8052 H         1 UNK         0.0600 
    193 H193       -4.2204  -20.2475  -49.0997 H         1 UNK         0.0600 
    194 H194       -3.6042  -20.0970  -47.4579 H         1 UNK         0.0600 
    195 H195       -3.0800  -22.4798  -46.3635 H         1 UNK         0.3000 
    196 H196       -5.1763  -24.2998  -46.9596 H         1 UNK         0.0600 
    197 H197       -4.7875  -25.0846  -44.6177 H         1 UNK         0.0600 
    198 H198       -4.8216  -23.3301  -44.7092 H         1 UNK         0.0600 
    199 H199       -3.2828  -24.1746  -44.5532 H         1 UNK         0.0600 
    200 H200       -1.6377  -24.7783  -46.7736 H         1 UNK         0.3000 
    201 H201       -1.7202  -27.6414  -47.1050 H         1 UNK         0.0600 
    202 H202        0.2113  -26.4915  -46.0622 H         1 UNK         0.0600 
    203 H203        0.5560  -25.6436  -47.5671 H         1 UNK         0.0600 
    204 H204        0.7237  -27.3917  -47.4817 H         1 UNK         0.0600 
    205 H205       -1.3264  -24.8813  -49.3613 H         1 UNK         0.3000 
    206 H206       -0.9327  -26.3906  -51.7334 H         1 UNK         0.0600 
    207 H207       -0.3823  -23.9704  -51.5148 H         1 UNK         0.0600 
    208 H208       -1.4477  -24.2582  -52.8804 H         1 UNK         0.0600 
    209 H209       -2.0940  -23.5727  -51.3928 H         1 UNK         0.0600 
    210 H210       -3.8857  -24.9925  -50.3180 H         1 UNK         0.3000 
    211 H211       -5.9770  -25.5390  -50.2107 H         1 UNK         0.0600 
    212 H212       -5.1222  -28.3275  -51.1465 H         1 UNK         0.0600 
    213 H213       -6.5979  -27.9340  -50.2756 H         1 UNK         0.0600 
    214 H214       -5.0402  -27.7353  -49.4906 H         1 UNK         0.0600 
    215 H215       -4.6933  -26.1666  -53.3972 H         1 UNK         0.3000 
    216 H216       -6.8222  -27.0624  -54.8041 H         1 UNK         0.0600 
    217 H217       -5.7165  -26.1313  -56.8310 H         1 UNK         0.0600 
    218 H218       -4.5623  -26.8782  -55.7380 H         1 UNK         0.0600 
    219 H219       -4.6884  -25.1256  -55.8245 H         1 UNK         0.0600 
    220 H220       -8.7415  -26.4577  -55.3436 H         1 UNK         0.3000 
    221 H221      -10.6561  -25.4213  -55.6224 H         1 UNK         0.0600 
    222 H222       -9.0146  -23.0192  -56.5898 H         1 UNK         0.0600 
    223 H223       -9.4779  -24.4003  -57.5811 H         1 UNK         0.0600 
    224 H224      -10.7091  -23.3272  -56.9407 H         1 UNK         0.0600 
    225 H225       -8.9675  -24.8302  -53.0416 H         1 UNK         0.3000 
    226 H226       -8.9824  -23.7263  -51.1541 H         1 UNK         0.0600 
    227 H227      -11.3916  -24.4253  -51.0174 H         1 UNK         0.0600 
    228 H228      -11.0864  -22.9163  -50.1746 H         1 UNK         0.0600 
    229 H229      -11.8715  -22.8933  -51.7468 H         1 UNK         0.0600 
    230 H230       -8.1802  -22.3793  -53.6870 H         1 UNK         0.3000 
    231 H231       -8.4359  -19.4913  -52.9141 H         1 UNK         0.0600 
    232 H232       -8.5128  -20.7568  -55.7041 H         1 UNK         0.0600 
    233 H233       -8.6188  -19.0373  -55.3440 H         1 UNK         0.0600 
    234 H234       -9.9076  -20.1187  -54.8358 H         1 UNK         0.0600 
    235 H235       -6.2633  -22.0728  -53.7902 H         1 UNK         0.3000 
    236 H236       -4.1464  -20.7761  -54.9985 H         1 UNK         0.0600 
    237 H237       -4.3374  -23.2036  -54.8049 H         1 UNK         0.0600 
    238 H238       -2.8020  -22.6993  -54.1225 H         1 UNK         0.0600 
    239 H239       -4.1342  -23.1442  -53.0557 H         1 UNK         0.0600 
    240 H240       -3.3573  -18.8705  -54.3184 H         1 UNK         0.3000 
    241 H241       -2.3740  -17.2988  -53.2125 H         1 UNK         0.0600 
    242 H242       -5.4705  -17.1512  -50.9858 H         1 UNK         0.3800 
    243 H243       -5.2275  -18.0349  -52.4774 H         1 UNK         0.3800 
    244 H244       -1.3029  -19.0219  -50.9493 H         1 UNK         0.0800 
    245 H245       -0.7353  -19.3142  -52.5608 H         1 UNK         0.0800 
    246 H246        0.0033  -15.8404  -49.8798 H         1 UNK         0.0800 
    247 H247       -0.5348  -17.4539  -49.5136 H         1 UNK         0.0800 
@<TRIPOS>BOND
     1    1    2 1    
     2    1  127 1    
     3    1  128 1    
     4    1  129 1    
     5    2    3 2    
     6    2    4 am   BACKBONE|DICT|INTERRES
     7    4    5 1    
     8    4  130 1    
     9    5    6 1    
    10    5   65 1    
    11    5  131 1    
    12    6    7 1    
    13    6  132 1    
    14    6  133 1    
    15    7    8 1    
    16    8    9 1    
    17    8  134 1    
    18    8  135 1    
    19    9   10 ar   
    20    9   14 ar   
    21   10   11 ar   
    22   10  136 1    
    23   11   12 ar   
    24   11  126 1    
    25   12   13 ar   
    26   12  137 1    
    27   13   14 ar   
    28   13   15 1    
    29   14  138 1    
    30   15   16 1    
    31   15  139 1    
    32   15  140 1    
    33   16   17 1    
    34   17   18 1    
    35   17  141 1    
    36   17  142 1    
    37   18   19 1    
    38   18   67 1    
    39   18  143 1    
    40   19   20 am   BACKBONE|DICT|INTERRES
    41   19  144 1    
    42   20   21 2    
    43   20   22 1    
    44   22   23 1    
    45   22   24 1    
    46   22  145 1    
    47   23  146 1    
    48   23  147 1    
    49   23  148 1    
    50   24   25 am   BACKBONE|DICT|INTERRES
    51   24  149 1    
    52   25   26 2    
    53   25   27 1    
    54   27   28 1    
    55   27   29 1    
    56   27  150 1    
    57   28  151 1    
    58   28  152 1    
    59   28  153 1    
    60   29   30 am   BACKBONE|DICT|INTERRES
    61   29  154 1    
    62   30   31 2    
    63   30   32 1    
    64   32   33 1    
    65   32   34 1    
    66   32  155 1    
    67   33  156 1    
    68   33  157 1    
    69   33  158 1    
    70   34   35 am   BACKBONE|DICT|INTERRES
    71   34  159 1    
    72   35   36 2    
    73   35   37 1    
    74   37   38 1    
    75   37   39 1    
    76   37  160 1    
    77   38  161 1    
    78   38  162 1    
    79   38  163 1    
    80   39   40 am   BACKBONE|DICT|INTERRES
    81   39  164 1    
    82   40   41 2    
    83   40   42 1    
    84   42   43 1    
    85   42   44 1    
    86   42  165 1    
    87   43  166 1    
    88   43  167 1    
    89   43  168 1    
    90   44   45 am   BACKBONE|DICT|INTERRES
    91   44  169 1    
    92   45   46 2    
    93   45   47 1    
    94   47   48 1    
    95   47   49 1    
    96   47  170 1    
    97   48  171 1    
    98   48  172 1    
    99   48  173 1    
   100   49   50 am   BACKBONE|DICT|INTERRES
   101   49  174 1    
   102   50   51 2    
   103   50   52 1    
   104   52   53 1    
   105   52   54 1    
   106   52  175 1    
   107   53  176 1    
   108   53  177 1    
   109   53  178 1    
   110   54   55 am   BACKBONE|DICT|INTERRES
   111   54  179 1    
   112   55   56 2    
   113   55   57 1    
   114   57   58 1    
   115   57   59 1    
   116   57  180 1    
   117   58  181 1    
   118   58  182 1    
   119   58  183 1    
   120   59   60 am   BACKBONE|DICT|INTERRES
   121   59  184 1    
   122   60   61 2    
   123   60   62 1    
   124   62   63 1    
   125   62   64 1    
   126   62  185 1    
   127   63  186 1    
   128   63  187 1    
   129   63  188 1    
   130   64   65 am   BACKBONE|DICT|INTERRES
   131   64  189 1    
   132   65   66 2    
   133   67   68 2    
   134   67   69 am   BACKBONE|DICT|INTERRES
   135   69   70 1    
   136   69  190 1    
   137   70   71 1    
   138   70   72 1    
   139   70  191 1    
   140   71  192 1    
   141   71  193 1    
   142   71  194 1    
   143   72   73 2    
   144   72   74 am   BACKBONE|DICT|INTERRES
   145   74   75 1    
   146   74  195 1    
   147   75   76 1    
   148   75   77 1    
   149   75  196 1    
   150   76  197 1    
   151   76  198 1    
   152   76  199 1    
   153   77   78 2    
   154   77   79 am   BACKBONE|DICT|INTERRES
   155   79   80 1    
   156   79  200 1    
   157   80   81 1    
   158   80   82 1    
   159   80  201 1    
   160   81  202 1    
   161   81  203 1    
   162   81  204 1    
   163   82   83 2    
   164   82   84 am   BACKBONE|DICT|INTERRES
   165   84   85 1    
   166   84  205 1    
   167   85   86 1    
   168   85   87 1    
   169   85  206 1    
   170   86  207 1    
   171   86  208 1    
   172   86  209 1    
   173   87   88 2    
   174   87   89 am   BACKBONE|DICT|INTERRES
   175   89   90 1    
   176   89  210 1    
   177   90   91 1    
   178   90   92 1    
   179   90  211 1    
   180   91  212 1    
   181   91  213 1    
   182   91  214 1    
   183   92   93 2    
   184   92   94 am   BACKBONE|DICT|INTERRES
   185   94   95 1    
   186   94  215 1    
   187   95   96 1    
   188   95   97 1    
   189   95  216 1    
   190   96  217 1    
   191   96  218 1    
   192   96  219 1    
   193   97   98 2    
   194   97   99 am   BACKBONE|DICT|INTERRES
   195   99  100 1    
   196   99  220 1    
   197  100  101 1    
   198  100  102 1    
   199  100  221 1    
   200  101  222 1    
   201  101  223 1    
   202  101  224 1    
   203  102  103 2    
   204  102  104 am   BACKBONE|DICT|INTERRES
   205  104  105 1    
   206  104  225 1    
   207  105  106 1    
   208  105  107 1    
   209  105  226 1    
   210  106  227 1    
   211  106  228 1    
   212  106  229 1    
   213  107  108 2    
   214  107  109 am   BACKBONE|DICT|INTERRES
   215  109  110 1    
   216  109  230 1    
   217  110  111 1    
   218  110  112 1    
   219  110  231 1    
   220  111  232 1    
   221  111  233 1    
   222  111  234 1    
   223  112  113 2    
   224  112  114 am   BACKBONE|DICT|INTERRES
   225  114  115 1    
   226  114  235 1    
   227  115  116 1    
   228  115  117 1    
   229  115  236 1    
   230  116  237 1    
   231  116  238 1    
   232  116  239 1    
   233  117  118 2    
   234  117  119 am   BACKBONE|DICT|INTERRES
   235  119  120 1    
   236  119  240 1    
   237  120  121 1    
   238  120  124 1    
   239  120  241 1    
   240  121  122 am   BACKBONE|DICT|INTERRES
   241  121  123 2    
   242  122  242 1    
   243  122  243 1    
   244  124  125 1    
   245  124  244 1    
   246  124  245 1    
   247  125  126 1    
   248  126  246 1    
   249  126  247 1    
@<TRIPOS>SUBSTRUCTURE
     1 UNK         1 GROUP             0       ****    0 ROOT    
