@<TRIPOS>MOLECULE
3R540
247   249    1
SMALL
USER_CHARGES


@<TRIPOS>ATOM
      1 CA         -4.1984  -16.7539  -44.0403 C.3       0 UNK        -0.1800 
      2 C          -3.7937  -15.3049  -44.2711 C.2       0 UNK         0.5000 
      3 O          -4.1337  -14.4317  -43.4724 O.2       0 UNK        -0.5000 
      4 N          -3.0478  -15.0483  -45.3517 N.am      1 UNK        -0.5000 
      5 CA         -2.5294  -13.7356  -45.7560 C.3       1 UNK         0.1400 
      6 C6         -2.2704  -13.6772  -47.2835 C.3       23 UNK        -0.0398 
      7 S7         -3.7880  -13.8941  -48.2777 S.3       23 UNK        -0.2404 
      8 C8         -3.7904  -15.6810  -48.6476 C.3       23 UNK        -0.0205 
      9 C9         -2.5747  -16.1206  -49.4504 C.ar      23 UNK        -0.0193 
     10 C10        -2.4529  -15.7543  -50.7923 C.ar      23 UNK        -0.1150 
     11 C11        -1.3467  -16.1601  -51.5431 C.ar      23 UNK        -0.0193 
     12 C12        -0.3639  -16.9560  -50.9460 C.ar      23 UNK        -0.1150 
     13 C13        -0.4780  -17.3376  -49.6055 C.ar      23 UNK        -0.0193 
     14 C14        -1.5812  -16.9078  -48.8607 C.ar      23 UNK        -0.1150 
     15 C15         0.5963  -18.2031  -48.9598 C.3       23 UNK        -0.0205 
     16 S16         0.2465  -19.9815  -49.1436 S.3       23 UNK        -0.2404 
     17 C17        -1.2463  -20.1554  -48.1137 C.3       23 UNK        -0.0398 
     18 CA         -1.4297  -21.5841  -47.5569 C.3       11 UNK         0.1400 
     19 N          -0.4327  -21.9404  -46.5441 N.am      11 UNK        -0.5000 
     20 C          -0.3025  -23.1589  -45.9987 C.2       10 UNK         0.5000 
     21 O          -0.9872  -24.1311  -46.3177 O.2       10 UNK        -0.5000 
     22 CA          0.7173  -23.2987  -44.8567 C.3       10 UNK         0.1400 
     23 CB          2.1528  -23.3879  -45.3966 C.3       10 UNK        -0.1800 
     24 N           0.6097  -22.1992  -43.8982 N.am      10 UNK        -0.5000 
     25 C          -0.4455  -21.9994  -43.0955 C.2       9 UNK         0.5000 
     26 O          -1.4225  -22.7460  -43.0497 O.2       9 UNK        -0.5000 
     27 CA         -0.4257  -20.7263  -42.2335 C.3       9 UNK         0.1400 
     28 CB          0.3830  -20.9500  -40.9474 C.3       9 UNK        -0.1800 
     29 N           0.1150  -19.5780  -42.9595 N.am      9 UNK        -0.5000 
     30 C          -0.5094  -18.9761  -43.9825 C.2       8 UNK         0.5000 
     31 O          -1.6103  -19.3171  -44.4125 O.2       8 UNK        -0.5000 
     32 CA          0.2398  -17.8236  -44.6720 C.3       8 UNK         0.1400 
     33 CB          0.0398  -16.5253  -43.8870 C.3       8 UNK        -0.1800 
     34 N           1.6743  -18.0577  -44.8109 N.am      8 UNK        -0.5000 
     35 C           2.2429  -19.1141  -45.4066 C.2       7 UNK         0.5000 
     36 O           1.6067  -19.9938  -45.9839 O.2       7 UNK        -0.5000 
     37 CA          3.7744  -19.2344  -45.2953 C.3       7 UNK         0.1400 
     38 CB          4.4389  -18.7420  -46.5892 C.3       7 UNK        -0.1800 
     39 N           4.3487  -18.5100  -44.1555 N.am      7 UNK        -0.5000 
     40 C           4.0554  -18.7183  -42.8619 C.2       6 UNK         0.5000 
     41 O           3.2484  -19.5639  -42.4731 O.2       6 UNK        -0.5000 
     42 CA          4.7512  -17.8051  -41.8345 C.3       6 UNK         0.1400 
     43 CB          5.9557  -18.5248  -41.2093 C.3       6 UNK        -0.1800 
     44 N           5.1981  -16.5297  -42.4047 N.am      6 UNK        -0.5000 
     45 C           4.3875  -15.5127  -42.7248 C.2       5 UNK         0.5000 
     46 O           3.1634  -15.5322  -42.5761 O.2       5 UNK        -0.5000 
     47 CA          5.0530  -14.2775  -43.3431 C.3       5 UNK         0.1400 
     48 CB          4.7668  -14.2048  -44.8522 C.3       5 UNK        -0.1800 
     49 N           4.5279  -13.0814  -42.6929 N.am      5 UNK        -0.5000 
     50 C           5.2609  -12.0349  -42.2924 C.2       4 UNK         0.5000 
     51 O           6.4818  -11.9604  -42.4470 O.2       4 UNK        -0.5000 
     52 CA          4.4941  -10.8833  -41.6037 C.3       4 UNK         0.1400 
     53 CB          5.3315   -9.5942  -41.4654 C.3       4 UNK        -0.1800 
     54 N           3.1999  -10.5951  -42.2332 N.am      4 UNK        -0.5000 
     55 C           2.9705  -10.2080  -43.4968 C.2       3 UNK         0.5000 
     56 O           3.8580  -10.0160  -44.3299 O.2       3 UNK        -0.5000 
     57 CA          1.4863  -10.0434  -43.8895 C.3       3 UNK         0.1400 
     58 CB          1.3005   -9.5730  -45.3434 C.3       3 UNK        -0.1800 
     59 N           0.7511  -11.2950  -43.7100 N.am      3 UNK        -0.5000 
     60 C           0.2982  -11.7909  -42.5544 C.2       2 UNK         0.5000 
     61 O           0.4124  -11.1973  -41.4800 O.2       2 UNK        -0.5000 
     62 CA         -0.3472  -13.1918  -42.6111 C.3       2 UNK         0.1400 
     63 CB         -0.9019  -13.6494  -41.2506 C.3       2 UNK        -0.1800 
     64 N          -1.4100  -13.3214  -43.6121 N.am      2 UNK        -0.5000 
     65 C          -1.2610  -13.3949  -44.9410 C.2       1 UNK         0.5000 
     66 O          -0.1742  -13.2597  -45.5067 O.2       1 UNK        -0.5000 
     67 C          -2.8705  -21.7687  -47.0460 C.2       11 UNK         0.5000 
     68 O          -3.7022  -22.2711  -47.7987 O.2       11 UNK        -0.5000 
     69 N          -3.1403  -21.3909  -45.7884 N.am      12 UNK        -0.5000 
     70 CA         -4.4354  -21.5858  -45.1364 C.3       12 UNK         0.1400 
     71 CB         -4.4732  -20.8096  -43.8113 C.3       12 UNK        -0.1800 
     72 C          -4.7677  -23.0718  -44.9088 C.2       12 UNK         0.5000 
     73 O          -5.8963  -23.4847  -45.1759 O.2       12 UNK        -0.5000 
     74 N          -3.7810  -23.8475  -44.4375 N.am      13 UNK        -0.5000 
     75 CA         -3.9103  -25.2789  -44.1616 C.3       13 UNK         0.1400 
     76 CB         -2.6812  -25.7647  -43.3778 C.3       13 UNK        -0.1800 
     77 C          -4.1119  -26.1232  -45.4323 C.2       13 UNK         0.5000 
     78 O          -4.9870  -26.9897  -45.4534 O.2       13 UNK        -0.5000 
     79 N          -3.3048  -25.8552  -46.4670 N.am      14 UNK        -0.5000 
     80 CA         -3.3457  -26.5673  -47.7462 C.3       14 UNK         0.1400 
     81 CB         -1.9722  -26.4372  -48.4237 C.3       14 UNK        -0.1800 
     82 C          -4.4505  -26.0630  -48.6941 C.2       14 UNK         0.5000 
     83 O          -4.7623  -26.7512  -49.6661 O.2       14 UNK        -0.5000 
     84 N          -4.9772  -24.8575  -48.4275 N.am      15 UNK        -0.5000 
     85 CA         -5.8713  -24.0577  -49.2768 C.3       15 UNK         0.1400 
     86 CB         -7.2150  -24.7749  -49.5201 C.3       15 UNK        -0.1800 
     87 C          -5.1982  -23.5995  -50.5901 C.2       15 UNK         0.5000 
     88 O          -5.8928  -23.2682  -51.5526 O.2       15 UNK        -0.5000 
     89 N          -3.8556  -23.5781  -50.6074 N.am      16 UNK        -0.5000 
     90 CA         -2.9975  -23.3636  -51.7759 C.3       16 UNK         0.1400 
     91 CB         -1.5264  -23.5161  -51.3647 C.3       16 UNK        -0.1800 
     92 C          -3.2108  -22.0196  -52.4886 C.2       16 UNK         0.5000 
     93 O          -2.9997  -21.9437  -53.6984 O.2       16 UNK        -0.5000 
     94 N          -3.6749  -21.0031  -51.7504 N.am      17 UNK        -0.5000 
     95 CA         -4.0573  -19.6912  -52.2770 C.3       17 UNK         0.1400 
     96 CB         -4.4648  -18.7855  -51.1066 C.3       17 UNK        -0.1800 
     97 C          -5.1805  -19.7569  -53.3340 C.2       17 UNK         0.5000 
     98 O          -5.2086  -18.9222  -54.2380 O.2       17 UNK        -0.5000 
     99 N          -6.0593  -20.7618  -53.2173 N.am      18 UNK        -0.5000 
    100 CA        -7.1243  -21.0543  -54.1719 C.3       18 UNK         0.1400 
    101 CB        -8.4487  -21.2260  -53.4105 C.3       18 UNK        -0.1800 
    102 C         -6.7998  -22.3188  -54.9830 C.2       18 UNK         0.5000 
    103 O         -6.9079  -22.2968  -56.2088 O.2       18 UNK        -0.5000 
    104 N         -6.4097  -23.3981  -54.2903 N.am      19 UNK        -0.5000 
    105 CA        -6.2426  -24.7404  -54.8519 C.3       19 UNK         0.1400 
    106 CB        -6.1450  -25.7552  -53.7017 C.3       19 UNK        -0.1800 
    107 C         -5.0374  -24.8887  -55.7965 C.2       19 UNK         0.5000 
    108 O         -5.0921  -25.7113  -56.7116 O.2       19 UNK        -0.5000 
    109 N         -3.9796  -24.1038  -55.5610 N.am      20 UNK        -0.5000 
    110 CA        -2.7420  -24.1087  -56.3435 C.3       20 UNK         0.1400 
    111 CB        -1.5938  -24.6058  -55.4466 C.3       20 UNK        -0.1800 
    112 C         -2.4338  -22.7179  -56.9274 C.2       20 UNK         0.5000 
    113 O         -1.3311  -22.5144  -57.4374 O.2       20 UNK        -0.5000 
    114 N         -3.3859  -21.7766  -56.8160 N.am      21 UNK        -0.5000 
    115 CA        -3.2955  -20.3689  -57.2239 C.3       21 UNK         0.1400 
    116 CB        -3.3692  -20.2574  -58.7605 C.3       21 UNK        -0.1800 
    117 C         -2.0704  -19.6412  -56.6235 C.2       21 UNK         0.5000 
    118 O         -1.3899  -18.8921  -57.3266 O.2       21 UNK        -0.5000 
    119 N         -1.8024  -19.9161  -55.3399 N.am      22 UNK        -0.5000 
    120 CA        -0.6412  -19.4644  -54.5520 C.3       22 UNK         0.1400 
    121 C          0.6781  -20.2410  -54.8477 C.2       22 UNK         0.5000 
    122 N          0.6942  -21.2567  -55.7031 N.am      22 UNK        -0.7600 
    123 O          1.7141  -19.9355  -54.2637 O.2       22 UNK        -0.5000 
    124 C124       -0.4106  -17.9246  -54.5613 C.3       23 UNK        -0.0398 
    125 S125       -1.8932  -16.9404  -54.1451 S.3       23 UNK        -0.2404 
    126 C126       -1.2137  -15.7113  -52.9893 C.3       23 UNK        -0.0205 
    127 H127       -3.7728  -17.1181  -43.1052 H         1 UNK         0.0600 
    128 H128       -5.2833  -16.8373  -43.9793 H         1 UNK         0.0600 
    129 H129       -3.8520  -17.4041  -44.8443 H         1 UNK         0.0600 
    130 H130       -2.7814  -15.8144  -45.9496 H         1 UNK         0.3000 
    131 H131       -3.2746  -12.9736  -45.5173 H         1 UNK         0.0600 
    132 H132       -1.5173  -14.4075  -47.5802 H         1 UNK         0.0800 
    133 H133       -1.8574  -12.7036  -47.5534 H         1 UNK         0.0800 
    134 H134       -4.6903  -15.9143  -49.2185 H         1 UNK         0.0800 
    135 H135       -3.8727  -16.2500  -47.7217 H         1 UNK         0.0800 
    136 H136       -3.2193  -15.1440  -51.2495 H         1 UNK         0.1150 
    137 H137        0.4926  -17.2767  -51.5213 H         1 UNK         0.1150 
    138 H138       -1.6698  -17.1916  -47.8226 H         1 UNK         0.1150 
    139 H139        1.5647  -17.9896  -49.4147 H         1 UNK         0.0800 
    140 H140        0.7019  -17.9561  -47.9034 H         1 UNK         0.0800 
    141 H141       -1.2074  -19.4420  -47.2897 H         1 UNK         0.0800 
    142 H142       -2.0946  -19.8665  -48.7373 H         1 UNK         0.0800 
    143 H143       -1.3036  -22.2874  -48.3813 H         1 UNK         0.0600 
    144 H144        0.2118  -21.2053  -46.2615 H         1 UNK         0.3000 
    145 H145        0.4989  -24.2288  -44.3276 H         1 UNK         0.0600 
    146 H146        2.4389  -22.4935  -45.9497 H         1 UNK         0.0600 
    147 H147        2.8704  -23.5257  -44.5877 H         1 UNK         0.0600 
    148 H148        2.2592  -24.2365  -46.0734 H         1 UNK         0.0600 
    149 H149        1.3479  -21.5107  -43.9066 H         1 UNK         0.3000 
    150 H150       -1.4557  -20.4972  -41.9515 H         1 UNK         0.0600 
    151 H151        0.3612  -20.0666  -40.3091 H         1 UNK         0.0600 
    152 H152        1.4267  -21.1832  -41.1614 H         1 UNK         0.0600 
    153 H153       -0.0266  -21.7794  -40.3694 H         1 UNK         0.0600 
    154 H154        1.0475  -19.2763  -42.7046 H         1 UNK         0.3000 
    155 H155       -0.1822  -17.6973  -45.6700 H         1 UNK         0.0600 
    156 H156       -1.0179  -16.2993  -43.7592 H         1 UNK         0.0600 
    157 H157        0.5017  -15.6893  -44.4101 H         1 UNK         0.0600 
    158 H158        0.4836  -16.5807  -42.8920 H         1 UNK         0.0600 
    159 H159        2.2801  -17.3938  -44.3499 H         1 UNK         0.3000 
    160 H160        4.0075  -20.2934  -45.1677 H         1 UNK         0.0600 
    161 H161        4.2640  -17.6775  -46.7514 H         1 UNK         0.0600 
    162 H162        4.0468  -19.2746  -47.4571 H         1 UNK         0.0600 
    163 H163        5.5162  -18.9073  -46.5682 H         1 UNK         0.0600 
    164 H164        5.0250  -17.7941  -44.3747 H         1 UNK         0.3000 
    165 H165        4.0299  -17.5958  -41.0415 H         1 UNK         0.0600 
    166 H166        6.7206  -18.7522  -41.9530 H         1 UNK         0.0600 
    167 H167        6.4152  -17.9190  -40.4281 H         1 UNK         0.0600 
    168 H168        5.6528  -19.4674  -40.7512 H         1 UNK         0.0600 
    169 H169        6.1924  -16.4308  -42.5537 H         1 UNK         0.3000 
    170 H170        6.1321  -14.3511  -43.1922 H         1 UNK         0.0600 
    171 H171        5.1438  -15.0894  -45.3668 H         1 UNK         0.0600 
    172 H172        3.6973  -14.1344  -45.0567 H         1 UNK         0.0600 
    173 H173        5.2488  -13.3361  -45.3011 H         1 UNK         0.0600 
    174 H174        3.5376  -13.0992  -42.4929 H         1 UNK         0.3000 
    175 H175        4.2693  -11.2348  -40.5958 H         1 UNK         0.0600 
    176 H176        4.7683   -8.8111  -40.9579 H         1 UNK         0.0600 
    177 H177        6.2334   -9.7744  -40.8794 H         1 UNK         0.0600 
    178 H178        5.6444   -9.2072  -42.4356 H         1 UNK         0.0600 
    179 H179        2.3822  -10.7442  -41.6499 H         1 UNK         0.3000 
    180 H180        1.0580   -9.2813  -43.2351 H         1 UNK         0.0600 
    181 H181        0.2464   -9.4203  -45.5755 H         1 UNK         0.0600 
    182 H182        1.8109   -8.6248  -45.5172 H         1 UNK         0.0600 
    183 H183        1.6976  -10.2980  -46.0550 H         1 UNK         0.0600 
    184 H184        0.6249  -11.8714  -44.5385 H         1 UNK         0.3000 
    185 H185        0.4575  -13.8784  -42.8782 H         1 UNK         0.0600 
    186 H186       -1.2815  -14.6701  -41.3041 H         1 UNK         0.0600 
    187 H187       -0.1264  -13.6352  -40.4836 H         1 UNK         0.0600 
    188 H188       -1.7149  -13.0062  -40.9119 H         1 UNK         0.0600 
    189 H189       -2.3470  -13.4652  -43.2500 H         1 UNK         0.3000 
    190 H190       -2.4245  -20.9196  -45.2442 H         1 UNK         0.3000 
    191 H191       -5.2054  -21.1708  -45.7903 H         1 UNK         0.0600 
    192 H192       -5.4333  -20.9373  -43.3099 H         1 UNK         0.0600 
    193 H193       -4.3340  -19.7420  -43.9774 H         1 UNK         0.0600 
    194 H194       -3.6959  -21.1445  -43.1243 H         1 UNK         0.0600 
    195 H195       -2.8909  -23.4201  -44.1993 H         1 UNK         0.3000 
    196 H196       -4.7890  -25.4193  -43.5286 H         1 UNK         0.0600 
    197 H197       -2.7512  -26.8310  -43.1597 H         1 UNK         0.0600 
    198 H198       -2.5919  -25.2435  -42.4245 H         1 UNK         0.0600 
    199 H199       -1.7578  -25.6017  -43.9348 H         1 UNK         0.0600 
    200 H200       -2.5773  -25.1511  -46.3602 H         1 UNK         0.3000 
    201 H201       -3.5313  -27.6270  -47.5583 H         1 UNK         0.0600 
    202 H202       -1.1814  -26.8417  -47.7916 H         1 UNK         0.0600 
    203 H203       -1.7274  -25.3965  -48.6378 H         1 UNK         0.0600 
    204 H204       -1.9448  -26.9828  -49.3679 H         1 UNK         0.0600 
    205 H205       -4.6236  -24.3673  -47.6159 H         1 UNK         0.3000 
    206 H206       -6.0863  -23.1479  -48.7152 H         1 UNK         0.0600 
    207 H207       -7.6583  -25.1104  -48.5826 H         1 UNK         0.0600 
    208 H208       -7.9324  -24.1057  -49.9966 H         1 UNK         0.0600 
    209 H209       -7.1028  -25.6427  -50.1704 H         1 UNK         0.0600 
    210 H210       -3.3891  -23.7951  -49.7390 H         1 UNK         0.3000 
    211 H211       -3.2316  -24.1503  -52.4955 H         1 UNK         0.0600 
    212 H212       -0.8676  -23.4204  -52.2288 H         1 UNK         0.0600 
    213 H213       -1.3363  -24.4940  -50.9228 H         1 UNK         0.0600 
    214 H214       -1.2277  -22.7533  -50.6462 H         1 UNK         0.0600 
    215 H215       -3.8394  -21.1666  -50.7681 H         1 UNK         0.3000 
    216 H216       -3.1786  -19.2561  -52.7541 H         1 UNK         0.0600 
    217 H217       -4.7153  -17.7839  -51.4585 H         1 UNK         0.0600 
    218 H218       -3.6505  -18.6816  -50.3900 H         1 UNK         0.0600 
    219 H219       -5.3335  -19.1768  -50.5758 H         1 UNK         0.0600 
    220 H220       -5.9365  -21.4291  -52.4640 H         1 UNK         0.3000 
    221 H221       -7.2487  -20.2300  -54.8773 H         1 UNK         0.0600 
    222 H222       -8.3923  -22.0268  -52.6716 H         1 UNK         0.0600 
    223 H223       -8.7204  -20.3092  -52.8872 H         1 UNK         0.0600 
    224 H224       -9.2648  -21.4645  -54.0937 H         1 UNK         0.0600 
    225 H225       -6.3205  -23.3298  -53.2780 H         1 UNK         0.3000 
    226 H226       -7.1399  -24.9718  -55.4298 H         1 UNK         0.0600 
    227 H227       -6.0873  -26.7752  -54.0836 H         1 UNK         0.0600 
    228 H228       -5.2600  -25.5854  -53.0876 H         1 UNK         0.0600 
    229 H229       -7.0179  -25.7010  -53.0508 H         1 UNK         0.0600 
    230 H230       -4.0112  -23.4410  -54.7956 H         1 UNK         0.3000 
    231 H231       -2.8251  -24.7863  -57.1951 H         1 UNK         0.0600 
    232 H232       -0.6694  -24.7133  -56.0153 H         1 UNK         0.0600 
    233 H233       -1.8228  -25.5804  -55.0156 H         1 UNK         0.0600 
    234 H234       -1.3939  -23.9150  -54.6277 H         1 UNK         0.0600 
    235 H235       -4.2604  -22.0516  -56.3926 H         1 UNK         0.3000 
    236 H236       -4.1752  -19.8715  -56.8124 H         1 UNK         0.0600 
    237 H237       -2.4993  -20.7075  -59.2398 H         1 UNK         0.0600 
    238 H238       -4.2595  -20.7522  -59.1486 H         1 UNK         0.0600 
    239 H239       -3.4156  -19.2145  -59.0761 H         1 UNK         0.0600 
    240 H240       -2.3861  -20.6026  -54.8693 H         1 UNK         0.3000 
    241 H241       -0.8862  -19.7375  -53.5252 H         1 UNK         0.0600 
    242 H242        1.5608  -21.7441  -55.8644 H         1 UNK         0.3800 
    243 H243       -0.1309  -21.5277  -56.2274 H         1 UNK         0.3800 
    244 H244       -0.0496  -17.5949  -55.5360 H         1 UNK         0.0800 
    245 H245        0.3845  -17.6733  -53.8590 H         1 UNK         0.0800 
    246 H246       -0.1720  -15.4925  -53.2277 H         1 UNK         0.0800 
    247 H247       -1.7516  -14.7729  -53.1326 H         1 UNK         0.0800 
@<TRIPOS>BOND
     1    1    2 1    
     2    1  127 1    
     3    1  128 1    
     4    1  129 1    
     5    2    3 2    
     6    2    4 am   BACKBONE|DICT|INTERRES
     7    4    5 1    
     8    4  130 1    
     9    5    6 1    
    10    5   65 1    
    11    5  131 1    
    12    6    7 1    
    13    6  132 1    
    14    6  133 1    
    15    7    8 1    
    16    8    9 1    
    17    8  134 1    
    18    8  135 1    
    19    9   10 ar   
    20    9   14 ar   
    21   10   11 ar   
    22   10  136 1    
    23   11   12 ar   
    24   11  126 1    
    25   12   13 ar   
    26   12  137 1    
    27   13   14 ar   
    28   13   15 1    
    29   14  138 1    
    30   15   16 1    
    31   15  139 1    
    32   15  140 1    
    33   16   17 1    
    34   17   18 1    
    35   17  141 1    
    36   17  142 1    
    37   18   19 1    
    38   18   67 1    
    39   18  143 1    
    40   19   20 am   BACKBONE|DICT|INTERRES
    41   19  144 1    
    42   20   21 2    
    43   20   22 1    
    44   22   23 1    
    45   22   24 1    
    46   22  145 1    
    47   23  146 1    
    48   23  147 1    
    49   23  148 1    
    50   24   25 am   BACKBONE|DICT|INTERRES
    51   24  149 1    
    52   25   26 2    
    53   25   27 1    
    54   27   28 1    
    55   27   29 1    
    56   27  150 1    
    57   28  151 1    
    58   28  152 1    
    59   28  153 1    
    60   29   30 am   BACKBONE|DICT|INTERRES
    61   29  154 1    
    62   30   31 2    
    63   30   32 1    
    64   32   33 1    
    65   32   34 1    
    66   32  155 1    
    67   33  156 1    
    68   33  157 1    
    69   33  158 1    
    70   34   35 am   BACKBONE|DICT|INTERRES
    71   34  159 1    
    72   35   36 2    
    73   35   37 1    
    74   37   38 1    
    75   37   39 1    
    76   37  160 1    
    77   38  161 1    
    78   38  162 1    
    79   38  163 1    
    80   39   40 am   BACKBONE|DICT|INTERRES
    81   39  164 1    
    82   40   41 2    
    83   40   42 1    
    84   42   43 1    
    85   42   44 1    
    86   42  165 1    
    87   43  166 1    
    88   43  167 1    
    89   43  168 1    
    90   44   45 am   BACKBONE|DICT|INTERRES
    91   44  169 1    
    92   45   46 2    
    93   45   47 1    
    94   47   48 1    
    95   47   49 1    
    96   47  170 1    
    97   48  171 1    
    98   48  172 1    
    99   48  173 1    
   100   49   50 am   BACKBONE|DICT|INTERRES
   101   49  174 1    
   102   50   51 2    
   103   50   52 1    
   104   52   53 1    
   105   52   54 1    
   106   52  175 1    
   107   53  176 1    
   108   53  177 1    
   109   53  178 1    
   110   54   55 am   BACKBONE|DICT|INTERRES
   111   54  179 1    
   112   55   56 2    
   113   55   57 1    
   114   57   58 1    
   115   57   59 1    
   116   57  180 1    
   117   58  181 1    
   118   58  182 1    
   119   58  183 1    
   120   59   60 am   BACKBONE|DICT|INTERRES
   121   59  184 1    
   122   60   61 2    
   123   60   62 1    
   124   62   63 1    
   125   62   64 1    
   126   62  185 1    
   127   63  186 1    
   128   63  187 1    
   129   63  188 1    
   130   64   65 am   BACKBONE|DICT|INTERRES
   131   64  189 1    
   132   65   66 2    
   133   67   68 2    
   134   67   69 am   BACKBONE|DICT|INTERRES
   135   69   70 1    
   136   69  190 1    
   137   70   71 1    
   138   70   72 1    
   139   70  191 1    
   140   71  192 1    
   141   71  193 1    
   142   71  194 1    
   143   72   73 2    
   144   72   74 am   BACKBONE|DICT|INTERRES
   145   74   75 1    
   146   74  195 1    
   147   75   76 1    
   148   75   77 1    
   149   75  196 1    
   150   76  197 1    
   151   76  198 1    
   152   76  199 1    
   153   77   78 2    
   154   77   79 am   BACKBONE|DICT|INTERRES
   155   79   80 1    
   156   79  200 1    
   157   80   81 1    
   158   80   82 1    
   159   80  201 1    
   160   81  202 1    
   161   81  203 1    
   162   81  204 1    
   163   82   83 2    
   164   82   84 am   BACKBONE|DICT|INTERRES
   165   84   85 1    
   166   84  205 1    
   167   85   86 1    
   168   85   87 1    
   169   85  206 1    
   170   86  207 1    
   171   86  208 1    
   172   86  209 1    
   173   87   88 2    
   174   87   89 am   BACKBONE|DICT|INTERRES
   175   89   90 1    
   176   89  210 1    
   177   90   91 1    
   178   90   92 1    
   179   90  211 1    
   180   91  212 1    
   181   91  213 1    
   182   91  214 1    
   183   92   93 2    
   184   92   94 am   BACKBONE|DICT|INTERRES
   185   94   95 1    
   186   94  215 1    
   187   95   96 1    
   188   95   97 1    
   189   95  216 1    
   190   96  217 1    
   191   96  218 1    
   192   96  219 1    
   193   97   98 2    
   194   97   99 am   BACKBONE|DICT|INTERRES
   195   99  100 1    
   196   99  220 1    
   197  100  101 1    
   198  100  102 1    
   199  100  221 1    
   200  101  222 1    
   201  101  223 1    
   202  101  224 1    
   203  102  103 2    
   204  102  104 am   BACKBONE|DICT|INTERRES
   205  104  105 1    
   206  104  225 1    
   207  105  106 1    
   208  105  107 1    
   209  105  226 1    
   210  106  227 1    
   211  106  228 1    
   212  106  229 1    
   213  107  108 2    
   214  107  109 am   BACKBONE|DICT|INTERRES
   215  109  110 1    
   216  109  230 1    
   217  110  111 1    
   218  110  112 1    
   219  110  231 1    
   220  111  232 1    
   221  111  233 1    
   222  111  234 1    
   223  112  113 2    
   224  112  114 am   BACKBONE|DICT|INTERRES
   225  114  115 1    
   226  114  235 1    
   227  115  116 1    
   228  115  117 1    
   229  115  236 1    
   230  116  237 1    
   231  116  238 1    
   232  116  239 1    
   233  117  118 2    
   234  117  119 am   BACKBONE|DICT|INTERRES
   235  119  120 1    
   236  119  240 1    
   237  120  121 1    
   238  120  124 1    
   239  120  241 1    
   240  121  122 am   BACKBONE|DICT|INTERRES
   241  121  123 2    
   242  122  242 1    
   243  122  243 1    
   244  124  125 1    
   245  124  244 1    
   246  124  245 1    
   247  125  126 1    
   248  126  246 1    
   249  126  247 1    
@<TRIPOS>SUBSTRUCTURE
     1 UNK         1 GROUP             0       ****    0 ROOT    
