@<TRIPOS>MOLECULE
3R540
247   249    1
SMALL
USER_CHARGES


@<TRIPOS>ATOM
      1 CA         -0.5410   -8.9296  -48.1014 C.3       0 UNK        -0.1800 
      2 C           0.1503  -10.2286  -47.7126 C.2       0 UNK         0.5000 
      3 O          -0.3912  -10.9901  -46.9117 O.2       0 UNK        -0.5000 
      4 N           1.3400  -10.4767  -48.2789 N.am      1 UNK        -0.5000 
      5 CA          2.1800  -11.6674  -48.0668 C.3       1 UNK         0.1400 
      6 C6          1.5311  -12.9909  -48.5572 C.3       23 UNK        -0.0398 
      7 S7          0.9827  -12.9164  -50.3008 S.3       23 UNK        -0.2404 
      8 C8         -0.8080  -13.2355  -50.1426 C.3       23 UNK        -0.0205 
      9 C9         -1.1576  -14.7160  -50.2620 C.ar      23 UNK        -0.0193 
     10 C10        -2.0840  -15.1438  -51.2204 C.ar      23 UNK        -0.1150 
     11 C11        -2.4167  -16.4973  -51.3372 C.ar      23 UNK        -0.0193 
     12 C12        -1.8107  -17.4281  -50.4871 C.ar      23 UNK        -0.1150 
     13 C13        -0.8830  -17.0172  -49.5292 C.ar      23 UNK        -0.0193 
     14 C14        -0.5711  -15.6613  -49.4138 C.ar      23 UNK        -0.1150 
     15 C15        -0.1846  -18.0321  -48.6396 C.3       23 UNK        -0.0205 
     16 S16        -0.8501  -18.0201  -46.9477 S.3       23 UNK        -0.2404 
     17 C17        -2.0829  -19.3637  -46.9936 C.3       23 UNK        -0.0398 
     18 CA         -1.4498  -20.7758  -46.8899 C.3       11 UNK         0.1400 
     19 N          -0.4159  -20.8748  -45.8581 N.am      11 UNK        -0.5000 
     20 C           0.4435  -21.8940  -45.7293 C.2       10 UNK         0.5000 
     21 O           0.4696  -22.8694  -46.4777 O.2       10 UNK        -0.5000 
     22 CA          1.4001  -21.8305  -44.5285 C.3       10 UNK         0.1400 
     23 CB          2.6610  -21.0265  -44.8792 C.3       10 UNK        -0.1800 
     24 N           0.7430  -21.2580  -43.3520 N.am      10 UNK        -0.5000 
     25 C          -0.2183  -21.8945  -42.6647 C.2       9 UNK         0.5000 
     26 O          -0.6021  -23.0353  -42.9263 O.2       9 UNK        -0.5000 
     27 CA         -0.9013  -21.1136  -41.5296 C.3       9 UNK         0.1400 
     28 CB         -0.1203  -21.2766  -40.2181 C.3       9 UNK        -0.1800 
     29 N          -1.0698  -19.6930  -41.8442 N.am      9 UNK        -0.5000 
     30 C          -1.9093  -19.2330  -42.7851 C.2       8 UNK         0.5000 
     31 O          -2.5937  -19.9783  -43.4870 O.2       8 UNK        -0.5000 
     32 CA         -1.9820  -17.7132  -43.0374 C.3       8 UNK         0.1400 
     33 CB         -3.4340  -17.1968  -43.0816 C.3       8 UNK        -0.1800 
     34 N          -1.1410  -16.9053  -42.1493 N.am      8 UNK        -0.5000 
     35 C          -1.2995  -16.6336  -40.8460 C.2       7 UNK         0.5000 
     36 O          -2.2659  -16.9971  -40.1749 O.2       7 UNK        -0.5000 
     37 CA         -0.1453  -15.8367  -40.1930 C.3       7 UNK         0.1400 
     38 CB         -0.1210  -15.9615  -38.6549 C.3       7 UNK        -0.1800 
     39 N           1.1694  -16.1663  -40.7682 N.am      7 UNK        -0.5000 
     40 C           1.7546  -17.3748  -40.7784 C.2       6 UNK         0.5000 
     41 O           1.2665  -18.3703  -40.2445 O.2       6 UNK        -0.5000 
     42 CA          3.0597  -17.4906  -41.5939 C.3       6 UNK         0.1400 
     43 CB          3.5848  -18.9382  -41.6808 C.3       6 UNK        -0.1800 
     44 N           2.9251  -16.9126  -42.9368 N.am      6 UNK        -0.5000 
     45 C           2.0278  -17.2464  -43.8793 C.2       5 UNK         0.5000 
     46 O           1.1890  -18.1385  -43.7400 O.2       5 UNK        -0.5000 
     47 CA          2.0294  -16.4208  -45.1818 C.3       5 UNK         0.1400 
     48 CB          0.8721  -15.4097  -45.1624 C.3       5 UNK        -0.1800 
     49 N           3.2755  -15.6934  -45.4250 N.am      5 UNK        -0.5000 
     50 C           4.4422  -16.2634  -45.7546 C.2       4 UNK         0.5000 
     51 O           4.5851  -17.4718  -45.9419 O.2       4 UNK        -0.5000 
     52 CA          5.6616  -15.3285  -45.8656 C.3       4 UNK         0.1400 
     53 CB          5.7617  -14.7436  -47.2828 C.3       4 UNK        -0.1800 
     54 N           5.6604  -14.2293  -44.8962 N.am      4 UNK        -0.5000 
     55 C           5.6502  -14.3437  -43.5616 C.2       3 UNK         0.5000 
     56 O           5.5982  -15.4230  -42.9720 O.2       3 UNK        -0.5000 
     57 CA          5.6596  -13.0401  -42.7364 C.3       3 UNK         0.1400 
     58 CB          7.0880  -12.4843  -42.5796 C.3       3 UNK        -0.1800 
     59 N           4.7215  -12.0176  -43.2213 N.am      3 UNK        -0.5000 
     60 C           4.7577  -11.3199  -44.3643 C.2       2 UNK         0.5000 
     61 O           5.6755  -11.3774  -45.1866 O.2       2 UNK        -0.5000 
     62 CA          3.5271  -10.4426  -44.6574 C.3       2 UNK         0.1400 
     63 CB          3.8449   -8.9609  -44.4069 C.3       2 UNK        -0.1800 
     64 N           3.0383  -10.6041  -46.0282 N.am      2 UNK        -0.5000 
     65 C           2.6880  -11.7632  -46.6083 C.2       1 UNK         0.5000 
     66 O           2.7431  -12.8559  -46.0383 O.2       1 UNK        -0.5000 
     67 C          -2.5265  -21.8592  -46.6907 C.2       11 UNK         0.5000 
     68 O          -2.8996  -22.5256  -47.6528 O.2       11 UNK        -0.5000 
     69 N          -2.9616  -22.0575  -45.4376 N.am      12 UNK        -0.5000 
     70 CA         -3.8924  -23.1125  -45.0369 C.3       12 UNK         0.1400 
     71 CB         -4.2632  -22.9374  -43.5567 C.3       12 UNK        -0.1800 
     72 C          -3.3403  -24.5251  -45.3028 C.2       12 UNK         0.5000 
     73 O          -4.0640  -25.3639  -45.8402 O.2       12 UNK        -0.5000 
     74 N          -2.0602  -24.7494  -44.9699 N.am      13 UNK        -0.5000 
     75 CA         -1.3428  -26.0012  -45.2279 C.3       13 UNK         0.1400 
     76 CB          0.0223  -25.9621  -44.5248 C.3       13 UNK        -0.1800 
     77 C          -1.1738  -26.3057  -46.7299 C.2       13 UNK         0.5000 
     78 O          -1.2775  -27.4651  -47.1315 O.2       13 UNK        -0.5000 
     79 N          -0.9463  -25.2587  -47.5331 N.am      14 UNK        -0.5000 
     80 CA         -0.8249  -25.3224  -48.9907 C.3       14 UNK         0.1400 
     81 CB         -0.0154  -24.1035  -49.4654 C.3       14 UNK        -0.1800 
     82 C          -2.1798  -25.3779  -49.7271 C.2       14 UNK         0.5000 
     83 O          -2.1830  -25.4618  -50.9556 O.2       14 UNK        -0.5000 
     84 N          -3.2988  -25.2627  -48.9956 N.am      15 UNK        -0.5000 
     85 CA         -4.6957  -25.1381  -49.4426 C.3       15 UNK         0.1400 
     86 CB         -5.1276  -26.3370  -50.3080 C.3       15 UNK        -0.1800 
     87 C          -5.0230  -23.7906  -50.1231 C.2       15 UNK         0.5000 
     88 O          -6.1314  -23.2825  -49.9478 O.2       15 UNK        -0.5000 
     89 N          -4.0494  -23.2234  -50.8467 N.am      16 UNK        -0.5000 
     90 CA         -3.9661  -21.8635  -51.3757 C.3       16 UNK         0.1400 
     91 CB         -3.6978  -20.8575  -50.2387 C.3       16 UNK        -0.1800 
     92 C          -5.1506  -21.4493  -52.2622 C.2       16 UNK         0.5000 
     93 O          -5.1063  -21.6784  -53.4725 O.2       16 UNK        -0.5000 
     94 N          -6.1658  -20.8260  -51.6525 N.am      17 UNK        -0.5000 
     95 CA         -7.3922  -20.3732  -52.3039 C.3       17 UNK         0.1400 
     96 CB         -8.1186  -19.3870  -51.3778 C.3       17 UNK        -0.1800 
     97 C          -8.3196  -21.5374  -52.6926 C.2       17 UNK         0.5000 
     98 O          -9.0345  -21.4244  -53.6875 O.2       17 UNK        -0.5000 
     99 N          -8.2655  -22.6464  -51.9389 N.am      18 UNK        -0.5000 
    100 CA        -8.9945  -23.8794  -52.2486 C.3       18 UNK         0.1400 
    101 CB        -9.0919  -24.7517  -50.9889 C.3       18 UNK        -0.1800 
    102 C         -8.3509  -24.6541  -53.4147 C.2       18 UNK         0.5000 
    103 O         -9.0622  -25.3189  -54.1683 O.2       18 UNK        -0.5000 
    104 N         -7.0250  -24.5208  -53.5657 N.am      19 UNK        -0.5000 
    105 CA        -6.2698  -25.0004  -54.7260 C.3       19 UNK         0.1400 
    106 CB        -4.7959  -25.1748  -54.3246 C.3       19 UNK        -0.1800 
    107 C         -6.3840  -24.0487  -55.9345 C.2       19 UNK         0.5000 
    108 O         -6.1285  -24.4721  -57.0619 O.2       19 UNK        -0.5000 
    109 N         -6.7430  -22.7835  -55.6655 N.am      20 UNK        -0.5000 
    110 CA        -6.8098  -21.6410  -56.5813 C.3       20 UNK         0.1400 
    111 CB        -7.9201  -21.8431  -57.6329 C.3       20 UNK        -0.1800 
    112 C         -5.4352  -21.3037  -57.1970 C.2       20 UNK         0.5000 
    113 O         -5.3569  -20.9385  -58.3718 O.2       20 UNK        -0.5000 
    114 N         -4.3744  -21.4589  -56.3929 N.am      21 UNK        -0.5000 
    115 CA        -2.9812  -21.3649  -56.8360 C.3       21 UNK         0.1400 
    116 CB        -2.4594  -22.7867  -57.1101 C.3       21 UNK        -0.1800 
    117 C         -2.0629  -20.6306  -55.8429 C.2       21 UNK         0.5000 
    118 O         -0.9210  -20.3421  -56.2018 O.2       21 UNK        -0.5000 
    119 N         -2.5441  -20.3597  -54.6207 N.am      22 UNK        -0.5000 
    120 CA        -1.7870  -19.7368  -53.5134 C.3       22 UNK         0.1400 
    121 C         -0.6288  -20.6029  -52.9228 C.2       22 UNK         0.5000 
    122 N         -0.4987  -21.8758  -53.2755 N.am      22 UNK        -0.7600 
    123 O          0.1352  -20.1307  -52.0868 O.2       22 UNK        -0.5000 
    124 C124       -1.3416  -18.2739  -53.8004 C.3       23 UNK        -0.0398 
    125 S125       -2.7398  -17.1260  -54.0516 S.3       23 UNK        -0.2404 
    126 C126       -3.4377  -16.9540  -52.3722 C.3       23 UNK        -0.0205 
    127 H127        0.0479   -8.3538  -48.8159 H         1 UNK         0.0600 
    128 H128       -0.7030   -8.3118  -47.2180 H         1 UNK         0.0600 
    129 H129       -1.5101   -9.1419  -48.5530 H         1 UNK         0.0600 
    130 H130        1.7125   -9.8051  -48.9356 H         1 UNK         0.3000 
    131 H131        3.0745  -11.5090  -48.6711 H         1 UNK         0.0600 
    132 H132        2.2423  -13.8146  -48.4735 H         1 UNK         0.0800 
    133 H133        0.6914  -13.2525  -47.9131 H         1 UNK         0.0800 
    134 H134       -1.3153  -12.6672  -50.9235 H         1 UNK         0.0800 
    135 H135       -1.1853  -12.8447  -49.1967 H         1 UNK         0.0800 
    136 H136       -2.5492  -14.4246  -51.8799 H         1 UNK         0.1150 
    137 H137       -2.0405  -18.4773  -50.5808 H         1 UNK         0.1150 
    138 H138        0.1433  -15.3525  -48.6664 H         1 UNK         0.1150 
    139 H139        0.8782  -17.7900  -48.5936 H         1 UNK         0.0800 
    140 H140       -0.2440  -19.0332  -49.0687 H         1 UNK         0.0800 
    141 H141       -2.6755  -19.2717  -47.9050 H         1 UNK         0.0800 
    142 H142       -2.7727  -19.1902  -46.1657 H         1 UNK         0.0800 
    143 H143       -0.9626  -20.9859  -47.8442 H         1 UNK         0.0600 
    144 H144       -0.3634  -20.1112  -45.1998 H         1 UNK         0.3000 
    145 H145        1.7067  -22.8509  -44.2888 H         1 UNK         0.0600 
    146 H146        3.1861  -21.4803  -45.7205 H         1 UNK         0.0600 
    147 H147        3.3586  -20.9964  -44.0427 H         1 UNK         0.0600 
    148 H148        2.4254  -20.0008  -45.1618 H         1 UNK         0.0600 
    149 H149        0.9618  -20.2957  -43.1227 H         1 UNK         0.3000 
    150 H150       -1.8952  -21.5413  -41.3819 H         1 UNK         0.0600 
    151 H151        0.9171  -20.9580  -40.3235 H         1 UNK         0.0600 
    152 H152       -0.1077  -22.3207  -39.9031 H         1 UNK         0.0600 
    153 H153       -0.5711  -20.6974  -39.4120 H         1 UNK         0.0600 
    154 H154       -0.4930  -19.0399  -41.3271 H         1 UNK         0.3000 
    155 H155       -1.5656  -17.5707  -44.0343 H         1 UNK         0.0600 
    156 H156       -3.9633  -17.3867  -42.1478 H         1 UNK         0.0600 
    157 H157       -3.9967  -17.6873  -43.8767 H         1 UNK         0.0600 
    158 H158       -3.4664  -16.1250  -43.2773 H         1 UNK         0.0600 
    159 H159       -0.2703  -16.6104  -42.5666 H         1 UNK         0.3000 
    160 H160       -0.3308  -14.7888  -40.4331 H         1 UNK         0.0600 
    161 H161       -0.0122  -16.9972  -38.3321 H         1 UNK         0.0600 
    162 H162       -1.0443  -15.5797  -38.2176 H         1 UNK         0.0600 
    163 H163        0.7007  -15.3883  -38.2259 H         1 UNK         0.0600 
    164 H164        1.6398  -15.4106  -41.2460 H         1 UNK         0.3000 
    165 H165        3.8099  -16.8957  -41.0710 H         1 UNK         0.0600 
    166 H166        3.8178  -19.3280  -40.6893 H         1 UNK         0.0600 
    167 H167        2.8517  -19.6082  -42.1285 H         1 UNK         0.0600 
    168 H168        4.4967  -18.9921  -42.2754 H         1 UNK         0.0600 
    169 H169        3.6082  -16.2004  -43.1657 H         1 UNK         0.3000 
    170 H170        1.8710  -17.1163  -46.0080 H         1 UNK         0.0600 
    171 H171        0.7726  -14.9125  -46.1266 H         1 UNK         0.0600 
    172 H172        1.0205  -14.6408  -44.4034 H         1 UNK         0.0600 
    173 H173       -0.0809  -15.8957  -44.9552 H         1 UNK         0.0600 
    174 H174        3.2282  -14.6799  -45.3707 H         1 UNK         0.3000 
    175 H175        6.5536  -15.9293  -45.6779 H         1 UNK         0.0600 
    176 H176        5.7890  -15.5355  -48.0325 H         1 UNK         0.0600 
    177 H177        4.9106  -14.1015  -47.5132 H         1 UNK         0.0600 
    178 H178        6.6694  -14.1518  -47.4021 H         1 UNK         0.0600 
    179 H179        5.6867  -13.2866  -45.2743 H         1 UNK         0.3000 
    180 H180        5.3079  -13.3048  -41.7379 H         1 UNK         0.0600 
    181 H181        7.5406  -12.2336  -43.5391 H         1 UNK         0.0600 
    182 H182        7.7368  -13.2175  -42.0991 H         1 UNK         0.0600 
    183 H183        7.0963  -11.5877  -41.9599 H         1 UNK         0.0600 
    184 H184        3.9051  -11.8987  -42.6375 H         1 UNK         0.3000 
    185 H185        2.7155  -10.7386  -43.9896 H         1 UNK         0.0600 
    186 H186        4.1905   -8.8028  -43.3844 H         1 UNK         0.0600 
    187 H187        4.6259   -8.5989  -45.0769 H         1 UNK         0.0600 
    188 H188        2.9624   -8.3370  -44.5505 H         1 UNK         0.0600 
    189 H189        2.9645   -9.7608  -46.5773 H         1 UNK         0.3000 
    190 H190       -2.6460  -21.4295  -44.7026 H         1 UNK         0.3000 
    191 H191       -4.8008  -22.9941  -45.6313 H         1 UNK         0.0600 
    192 H192       -4.7220  -21.9646  -43.3782 H         1 UNK         0.0600 
    193 H193       -4.9780  -23.6979  -43.2402 H         1 UNK         0.0600 
    194 H194       -3.3894  -23.0174  -42.9097 H         1 UNK         0.0600 
    195 H195       -1.5426  -24.0191  -44.4921 H         1 UNK         0.3000 
    196 H196       -1.9257  -26.8143  -44.7903 H         1 UNK         0.0600 
    197 H197        0.5680  -26.8940  -44.6778 H         1 UNK         0.0600 
    198 H198       -0.0920  -25.8248  -43.4494 H         1 UNK         0.0600 
    199 H199        0.6458  -25.1505  -44.9007 H         1 UNK         0.0600 
    200 H200       -0.8145  -24.3440  -47.1137 H         1 UNK         0.3000 
    201 H201       -0.2716  -26.2242  -49.2598 H         1 UNK         0.0600 
    202 H202        0.1490  -24.1319  -50.5432 H         1 UNK         0.0600 
    203 H203        0.9654  -24.0722  -48.9906 H         1 UNK         0.0600 
    204 H204       -0.5284  -23.1685  -49.2361 H         1 UNK         0.0600 
    205 H205       -3.1714  -25.1316  -48.0002 H         1 UNK         0.3000 
    206 H206       -5.2911  -25.1666  -48.5288 H         1 UNK         0.0600 
    207 H207       -4.9523  -27.2784  -49.7875 H         1 UNK         0.0600 
    208 H208       -6.1904  -26.2910  -50.5419 H         1 UNK         0.0600 
    209 H209       -4.5915  -26.3751  -51.2548 H         1 UNK         0.0600 
    210 H210       -3.2193  -23.7917  -50.9797 H         1 UNK         0.3000 
    211 H211       -3.0949  -21.8672  -52.0270 H         1 UNK         0.0600 
    212 H212       -2.6807  -20.9680  -49.8634 H         1 UNK         0.0600 
    213 H213       -3.8082  -19.8288  -50.5781 H         1 UNK         0.0600 
    214 H214       -4.3798  -20.9941  -49.3990 H         1 UNK         0.0600 
    215 H215       -6.1238  -20.7207  -50.6488 H         1 UNK         0.3000 
    216 H216       -7.1191  -19.8450  -53.2201 H         1 UNK         0.0600 
    217 H217       -8.4039  -19.8552  -50.4348 H         1 UNK         0.0600 
    218 H218       -9.0287  -19.0096  -51.8461 H         1 UNK         0.0600 
    219 H219       -7.4906  -18.5256  -51.1493 H         1 UNK         0.0600 
    220 H220       -7.6316  -22.6776  -51.1455 H         1 UNK         0.3000 
    221 H221      -10.0105  -23.6159  -52.5506 H         1 UNK         0.0600 
    222 H222       -8.1091  -25.0265  -50.6099 H         1 UNK         0.0600 
    223 H223       -9.6221  -24.2309  -50.1914 H         1 UNK         0.0600 
    224 H224       -9.6362  -25.6746  -51.1930 H         1 UNK         0.0600 
    225 H225       -6.5201  -23.9588  -52.8972 H         1 UNK         0.3000 
    226 H226       -6.6587  -25.9740  -55.0316 H         1 UNK         0.0600 
    227 H227       -4.6881  -25.9245  -53.5422 H         1 UNK         0.0600 
    228 H228       -4.1962  -25.5083  -55.1726 H         1 UNK         0.0600 
    229 H229       -4.3585  -24.2445  -53.9615 H         1 UNK         0.0600 
    230 H230       -6.8890  -22.5524  -54.6937 H         1 UNK         0.3000 
    231 H231       -7.0873  -20.7798  -55.9720 H         1 UNK         0.0600 
    232 H232       -7.6841  -22.6536  -58.3229 H         1 UNK         0.0600 
    233 H233       -8.0649  -20.9399  -58.2267 H         1 UNK         0.0600 
    234 H234       -8.8734  -22.0736  -57.1571 H         1 UNK         0.0600 
    235 H235       -4.5431  -21.7521  -55.4369 H         1 UNK         0.3000 
    236 H236       -2.9241  -20.7948  -57.7655 H         1 UNK         0.0600 
    237 H237       -2.4981  -23.4075  -56.2142 H         1 UNK         0.0600 
    238 H238       -3.0506  -23.2800  -57.8820 H         1 UNK         0.0600 
    239 H239       -1.4252  -22.7695  -57.4566 H         1 UNK         0.0600 
    240 H240       -3.4978  -20.6197  -54.4085 H         1 UNK         0.3000 
    241 H241       -2.4977  -19.6829  -52.6927 H         1 UNK         0.0600 
    242 H242        0.2488  -22.4199  -52.8757 H         1 UNK         0.3800 
    243 H243       -1.1019  -22.2873  -53.9676 H         1 UNK         0.3800 
    244 H244       -0.7062  -18.2349  -54.6852 H         1 UNK         0.0800 
    245 H245       -0.7233  -17.8777  -52.9947 H         1 UNK         0.0800 
    246 H246       -4.2548  -16.2322  -52.4113 H         1 UNK         0.0800 
    247 H247       -3.8951  -17.8963  -52.0700 H         1 UNK         0.0800 
@<TRIPOS>BOND
     1    1    2 1    
     2    1  127 1    
     3    1  128 1    
     4    1  129 1    
     5    2    3 2    
     6    2    4 am   BACKBONE|DICT|INTERRES
     7    4    5 1    
     8    4  130 1    
     9    5    6 1    
    10    5   65 1    
    11    5  131 1    
    12    6    7 1    
    13    6  132 1    
    14    6  133 1    
    15    7    8 1    
    16    8    9 1    
    17    8  134 1    
    18    8  135 1    
    19    9   10 ar   
    20    9   14 ar   
    21   10   11 ar   
    22   10  136 1    
    23   11   12 ar   
    24   11  126 1    
    25   12   13 ar   
    26   12  137 1    
    27   13   14 ar   
    28   13   15 1    
    29   14  138 1    
    30   15   16 1    
    31   15  139 1    
    32   15  140 1    
    33   16   17 1    
    34   17   18 1    
    35   17  141 1    
    36   17  142 1    
    37   18   19 1    
    38   18   67 1    
    39   18  143 1    
    40   19   20 am   BACKBONE|DICT|INTERRES
    41   19  144 1    
    42   20   21 2    
    43   20   22 1    
    44   22   23 1    
    45   22   24 1    
    46   22  145 1    
    47   23  146 1    
    48   23  147 1    
    49   23  148 1    
    50   24   25 am   BACKBONE|DICT|INTERRES
    51   24  149 1    
    52   25   26 2    
    53   25   27 1    
    54   27   28 1    
    55   27   29 1    
    56   27  150 1    
    57   28  151 1    
    58   28  152 1    
    59   28  153 1    
    60   29   30 am   BACKBONE|DICT|INTERRES
    61   29  154 1    
    62   30   31 2    
    63   30   32 1    
    64   32   33 1    
    65   32   34 1    
    66   32  155 1    
    67   33  156 1    
    68   33  157 1    
    69   33  158 1    
    70   34   35 am   BACKBONE|DICT|INTERRES
    71   34  159 1    
    72   35   36 2    
    73   35   37 1    
    74   37   38 1    
    75   37   39 1    
    76   37  160 1    
    77   38  161 1    
    78   38  162 1    
    79   38  163 1    
    80   39   40 am   BACKBONE|DICT|INTERRES
    81   39  164 1    
    82   40   41 2    
    83   40   42 1    
    84   42   43 1    
    85   42   44 1    
    86   42  165 1    
    87   43  166 1    
    88   43  167 1    
    89   43  168 1    
    90   44   45 am   BACKBONE|DICT|INTERRES
    91   44  169 1    
    92   45   46 2    
    93   45   47 1    
    94   47   48 1    
    95   47   49 1    
    96   47  170 1    
    97   48  171 1    
    98   48  172 1    
    99   48  173 1    
   100   49   50 am   BACKBONE|DICT|INTERRES
   101   49  174 1    
   102   50   51 2    
   103   50   52 1    
   104   52   53 1    
   105   52   54 1    
   106   52  175 1    
   107   53  176 1    
   108   53  177 1    
   109   53  178 1    
   110   54   55 am   BACKBONE|DICT|INTERRES
   111   54  179 1    
   112   55   56 2    
   113   55   57 1    
   114   57   58 1    
   115   57   59 1    
   116   57  180 1    
   117   58  181 1    
   118   58  182 1    
   119   58  183 1    
   120   59   60 am   BACKBONE|DICT|INTERRES
   121   59  184 1    
   122   60   61 2    
   123   60   62 1    
   124   62   63 1    
   125   62   64 1    
   126   62  185 1    
   127   63  186 1    
   128   63  187 1    
   129   63  188 1    
   130   64   65 am   BACKBONE|DICT|INTERRES
   131   64  189 1    
   132   65   66 2    
   133   67   68 2    
   134   67   69 am   BACKBONE|DICT|INTERRES
   135   69   70 1    
   136   69  190 1    
   137   70   71 1    
   138   70   72 1    
   139   70  191 1    
   140   71  192 1    
   141   71  193 1    
   142   71  194 1    
   143   72   73 2    
   144   72   74 am   BACKBONE|DICT|INTERRES
   145   74   75 1    
   146   74  195 1    
   147   75   76 1    
   148   75   77 1    
   149   75  196 1    
   150   76  197 1    
   151   76  198 1    
   152   76  199 1    
   153   77   78 2    
   154   77   79 am   BACKBONE|DICT|INTERRES
   155   79   80 1    
   156   79  200 1    
   157   80   81 1    
   158   80   82 1    
   159   80  201 1    
   160   81  202 1    
   161   81  203 1    
   162   81  204 1    
   163   82   83 2    
   164   82   84 am   BACKBONE|DICT|INTERRES
   165   84   85 1    
   166   84  205 1    
   167   85   86 1    
   168   85   87 1    
   169   85  206 1    
   170   86  207 1    
   171   86  208 1    
   172   86  209 1    
   173   87   88 2    
   174   87   89 am   BACKBONE|DICT|INTERRES
   175   89   90 1    
   176   89  210 1    
   177   90   91 1    
   178   90   92 1    
   179   90  211 1    
   180   91  212 1    
   181   91  213 1    
   182   91  214 1    
   183   92   93 2    
   184   92   94 am   BACKBONE|DICT|INTERRES
   185   94   95 1    
   186   94  215 1    
   187   95   96 1    
   188   95   97 1    
   189   95  216 1    
   190   96  217 1    
   191   96  218 1    
   192   96  219 1    
   193   97   98 2    
   194   97   99 am   BACKBONE|DICT|INTERRES
   195   99  100 1    
   196   99  220 1    
   197  100  101 1    
   198  100  102 1    
   199  100  221 1    
   200  101  222 1    
   201  101  223 1    
   202  101  224 1    
   203  102  103 2    
   204  102  104 am   BACKBONE|DICT|INTERRES
   205  104  105 1    
   206  104  225 1    
   207  105  106 1    
   208  105  107 1    
   209  105  226 1    
   210  106  227 1    
   211  106  228 1    
   212  106  229 1    
   213  107  108 2    
   214  107  109 am   BACKBONE|DICT|INTERRES
   215  109  110 1    
   216  109  230 1    
   217  110  111 1    
   218  110  112 1    
   219  110  231 1    
   220  111  232 1    
   221  111  233 1    
   222  111  234 1    
   223  112  113 2    
   224  112  114 am   BACKBONE|DICT|INTERRES
   225  114  115 1    
   226  114  235 1    
   227  115  116 1    
   228  115  117 1    
   229  115  236 1    
   230  116  237 1    
   231  116  238 1    
   232  116  239 1    
   233  117  118 2    
   234  117  119 am   BACKBONE|DICT|INTERRES
   235  119  120 1    
   236  119  240 1    
   237  120  121 1    
   238  120  124 1    
   239  120  241 1    
   240  121  122 am   BACKBONE|DICT|INTERRES
   241  121  123 2    
   242  122  242 1    
   243  122  243 1    
   244  124  125 1    
   245  124  244 1    
   246  124  245 1    
   247  125  126 1    
   248  126  246 1    
   249  126  247 1    
@<TRIPOS>SUBSTRUCTURE
     1 UNK         1 GROUP             0       ****    0 ROOT    
