@<TRIPOS>MOLECULE
3R540
247   249    1
SMALL
USER_CHARGES


@<TRIPOS>ATOM
      1 CA         -1.9652   -8.7875  -49.5104 C.3       0 UNK        -0.1800 
      2 C          -0.6014   -9.4114  -49.2488 C.2       0 UNK         0.5000 
      3 O           0.4194   -8.7372  -49.3898 O.2       0 UNK        -0.5000 
      4 N          -0.5811  -10.6961  -48.8767 N.am      1 UNK        -0.5000 
      5 CA          0.6210  -11.4413  -48.4951 C.3       1 UNK         0.1400 
      6 C6          0.4163  -12.9771  -48.6198 C.3       23 UNK        -0.0398 
      7 S7         -0.9864  -13.6484  -47.6519 S.3       23 UNK        -0.2404 
      8 C8         -2.3008  -13.7278  -48.9130 C.3       23 UNK        -0.0205 
      9 C9         -2.5589  -15.1444  -49.4091 C.ar      23 UNK        -0.0193 
     10 C10        -1.5590  -15.8671  -50.0654 C.ar      23 UNK        -0.1150 
     11 C11        -1.8057  -17.1566  -50.5464 C.ar      23 UNK        -0.0193 
     12 C12        -3.0792  -17.7168  -50.3745 C.ar      23 UNK        -0.1150 
     13 C13        -4.0983  -16.9985  -49.7355 C.ar      23 UNK        -0.0193 
     14 C14        -3.8224  -15.7185  -49.2478 C.ar      23 UNK        -0.1150 
     15 C15        -5.5269  -17.5311  -49.6299 C.3       23 UNK        -0.0205 
     16 S16        -5.6743  -19.3354  -49.4258 S.3       23 UNK        -0.2404 
     17 C17        -5.3332  -19.5529  -47.6468 C.3       23 UNK        -0.0398 
     18 CA         -4.6468  -20.9142  -47.4013 C.3       11 UNK         0.1400 
     19 N          -3.3005  -20.9567  -47.9772 N.am      11 UNK        -0.5000 
     20 C          -2.5752  -22.0671  -48.1471 C.2       10 UNK         0.5000 
     21 O          -2.9760  -23.1936  -47.8549 O.2       10 UNK        -0.5000 
     22 CA         -1.1493  -21.8903  -48.6958 C.3       10 UNK         0.1400 
     23 CB         -1.1748  -22.0157  -50.2243 C.3       10 UNK        -0.1800 
     24 N          -0.4927  -20.6301  -48.3239 N.am      10 UNK        -0.5000 
     25 C          -0.3328  -20.1663  -47.0764 C.2       9 UNK         0.5000 
     26 O          -0.8202  -20.7013  -46.0778 O.2       9 UNK        -0.5000 
     27 CA          0.4710  -18.8655  -46.9190 C.3       9 UNK         0.1400 
     28 CB         -0.4677  -17.6512  -46.9606 C.3       9 UNK        -0.1800 
     29 N           1.2020  -18.8608  -45.6541 N.am      9 UNK        -0.5000 
     30 C           2.2668  -19.6290  -45.3829 C.2       8 UNK         0.5000 
     31 O           2.8124  -20.3511  -46.2182 O.2       8 UNK        -0.5000 
     32 CA          2.8264  -19.5835  -43.9476 C.3       8 UNK         0.1400 
     33 CB          4.2368  -18.9717  -43.9314 C.3       8 UNK        -0.1800 
     34 N           1.9666  -18.8203  -43.0410 N.am      8 UNK        -0.5000 
     35 C           0.9799  -19.3457  -42.3022 C.2       7 UNK         0.5000 
     36 O           0.7156  -20.5473  -42.2701 O.2       7 UNK        -0.5000 
     37 CA          0.1421  -18.3656  -41.4614 C.3       7 UNK         0.1400 
     38 CB          0.7543  -18.2026  -40.0633 C.3       7 UNK        -0.1800 
     39 N           0.0190  -17.0520  -42.0955 N.am      7 UNK        -0.5000 
     40 C          -0.8300  -16.7717  -43.0933 C.2       6 UNK         0.5000 
     41 O          -1.6177  -17.5987  -43.5504 O.2       6 UNK        -0.5000 
     42 CA         -0.7776  -15.3567  -43.7126 C.3       6 UNK         0.1400 
     43 CB         -2.1630  -14.8612  -44.1746 C.3       6 UNK        -0.1800 
     44 N          -0.1128  -14.3474  -42.8824 N.am      6 UNK        -0.5000 
     45 C          -0.4751  -13.8976  -41.6728 C.2       5 UNK         0.5000 
     46 O          -1.4759  -14.2772  -41.0624 O.2       5 UNK        -0.5000 
     47 CA          0.4809  -12.8594  -41.0483 C.3       5 UNK         0.1400 
     48 CB          0.1279  -12.4917  -39.5914 C.3       5 UNK        -0.1800 
     49 N           1.8851  -13.2716  -41.1742 N.am      5 UNK        -0.5000 
     50 C           2.4674  -14.3486  -40.6256 C.2       4 UNK         0.5000 
     51 O           1.9016  -15.1094  -39.8406 O.2       4 UNK        -0.5000 
     52 CA          3.9185  -14.6328  -41.0750 C.3       4 UNK         0.1400 
     53 CB          4.4473  -15.9987  -40.5859 C.3       4 UNK        -0.1800 
     54 N           4.0936  -14.5044  -42.5281 N.am      4 UNK        -0.5000 
     55 C           3.4464  -15.2015  -43.4742 C.2       3 UNK         0.5000 
     56 O           2.6128  -16.0755  -43.2317 O.2       3 UNK        -0.5000 
     57 CA          3.7632  -14.8238  -44.9371 C.3       3 UNK         0.1400 
     58 CB          2.8053  -15.4892  -45.9466 C.3       3 UNK        -0.1800 
     59 N           3.8034  -13.3782  -45.1924 N.am      3 UNK        -0.5000 
     60 C           2.8699  -12.4690  -44.8708 C.2       2 UNK         0.5000 
     61 O           1.8969  -12.6995  -44.1530 O.2       2 UNK        -0.5000 
     62 CA          3.0161  -11.0837  -45.5215 C.3       2 UNK         0.1400 
     63 CB          4.4788  -10.6155  -45.6408 C.3       2 UNK        -0.1800 
     64 N           2.4115  -11.1475  -46.8502 N.am      2 UNK        -0.5000 
     65 C           1.0972  -11.0369  -47.0829 C.2       1 UNK         0.5000 
     66 O           0.2792  -10.6659  -46.2363 O.2       1 UNK        -0.5000 
     67 C          -4.6988  -21.3431  -45.9179 C.2       11 UNK         0.5000 
     68 O          -5.7581  -21.7783  -45.4651 O.2       11 UNK        -0.5000 
     69 N          -3.5661  -21.2654  -45.2073 N.am      12 UNK        -0.5000 
     70 CA         -3.3984  -21.7903  -43.8550 C.3       12 UNK         0.1400 
     71 CB         -2.7828  -20.7021  -42.9626 C.3       12 UNK        -0.1800 
     72 C          -2.5118  -23.0458  -43.8707 C.2       12 UNK         0.5000 
     73 O          -2.8992  -24.0706  -43.3095 O.2       12 UNK        -0.5000 
     74 N          -1.3416  -22.9482  -44.5155 N.am      13 UNK        -0.5000 
     75 CA         -0.2735  -23.9483  -44.4755 C.3       13 UNK         0.1400 
     76 CB          1.0193  -23.3149  -45.0110 C.3       13 UNK        -0.1800 
     77 C          -0.5857  -25.2490  -45.2362 C.2       13 UNK         0.5000 
     78 O          -0.0807  -26.3035  -44.8489 O.2       13 UNK        -0.5000 
     79 N          -1.3980  -25.1570  -46.2956 N.am      14 UNK        -0.5000 
     80 CA         -1.7999  -26.2797  -47.1461 C.3       14 UNK         0.1400 
     81 CB         -1.2355  -26.0580  -48.5624 C.3       14 UNK        -0.1800 
     82 C          -3.3298  -26.4478  -47.1704 C.2       14 UNK         0.5000 
     83 O          -3.8421  -27.1518  -48.0402 O.2       14 UNK        -0.5000 
     84 N          -4.0426  -25.7716  -46.2541 N.am      15 UNK        -0.5000 
     85 CA         -5.5065  -25.7338  -46.1244 C.3       15 UNK         0.1400 
     86 CB         -6.0261  -27.0812  -45.5827 C.3       15 UNK        -0.1800 
     87 C          -6.2320  -25.2917  -47.4177 C.2       15 UNK         0.5000 
     88 O          -7.3379  -25.7567  -47.6975 O.2       15 UNK        -0.5000 
     89 N          -5.5716  -24.4163  -48.1890 N.am      16 UNK        -0.5000 
     90 CA         -5.9684  -23.8747  -49.4904 C.3       16 UNK         0.1400 
     91 CB         -7.3220  -23.1364  -49.4179 C.3       16 UNK        -0.1800 
     92 C          -5.9066  -24.8818  -50.6563 C.2       16 UNK         0.5000 
     93 O          -6.3725  -24.5533  -51.7474 O.2       16 UNK        -0.5000 
     94 N          -5.2901  -26.0578  -50.4589 N.am      17 UNK        -0.5000 
     95 CA         -5.0997  -27.0589  -51.5159 C.3       17 UNK         0.1400 
     96 CB         -4.6602  -28.3919  -50.8930 C.3       17 UNK        -0.1800 
     97 C          -4.0900  -26.6114  -52.5920 C.2       17 UNK         0.5000 
     98 O          -4.2234  -27.0038  -53.7513 O.2       17 UNK        -0.5000 
     99 N          -3.1140  -25.7869  -52.1888 N.am      18 UNK        -0.5000 
    100 CA        -2.0651  -25.2316  -53.0468 C.3       18 UNK         0.1400 
    101 CB        -0.7094  -25.4113  -52.3414 C.3       18 UNK        -0.1800 
    102 C         -2.3165  -23.7532  -53.4090 C.2       18 UNK         0.5000 
    103 O         -1.4443  -23.1281  -54.0126 O.2       18 UNK        -0.5000 
    104 N         -3.4914  -23.2061  -53.0537 N.am      19 UNK        -0.5000 
    105 CA        -3.8522  -21.7932  -53.2415 C.3       19 UNK         0.1400 
    106 CB        -5.1854  -21.4983  -52.5413 C.3       19 UNK        -0.1800 
    107 C         -3.8975  -21.3247  -54.7096 C.2       19 UNK         0.5000 
    108 O         -3.7948  -20.1258  -54.9639 O.2       19 UNK        -0.5000 
    109 N         -4.0049  -22.2688  -55.6541 N.am      20 UNK        -0.5000 
    110 CA        -3.9173  -22.0284  -57.0959 C.3       20 UNK         0.1400 
    111 CB        -4.2665  -23.3289  -57.8356 C.3       20 UNK        -0.1800 
    112 C         -2.5424  -21.4972  -57.5576 C.2       20 UNK         0.5000 
    113 O         -2.4680  -20.8680  -58.6137 O.2       20 UNK        -0.5000 
    114 N         -1.4853  -21.7490  -56.7708 N.am      21 UNK        -0.5000 
    115 CA        -0.1297  -21.2607  -57.0278 C.3       21 UNK         0.1400 
    116 CB         0.8724  -22.1980  -56.3351 C.3       21 UNK        -0.1800 
    117 C          0.0910  -19.8052  -56.5665 C.2       21 UNK         0.5000 
    118 O          1.0778  -19.1930  -56.9782 O.2       21 UNK        -0.5000 
    119 N         -0.7954  -19.2830  -55.7090 N.am      22 UNK        -0.5000 
    120 CA        -0.7182  -17.9280  -55.1422 C.3       22 UNK         0.1400 
    121 C         -1.0577  -16.8262  -56.1835 C.2       22 UNK         0.5000 
    122 N         -0.4135  -15.6698  -56.1020 N.am      22 UNK        -0.7600 
    123 O         -1.9250  -16.9913  -57.0386 O.2       22 UNK        -0.5000 
    124 C124       -1.6099  -17.7819  -53.8834 C.3       23 UNK        -0.0398 
    125 S125       -1.1825  -18.9995  -52.5914 S.3       23 UNK        -0.2404 
    126 C126       -0.6668  -17.9288  -51.2101 C.3       23 UNK        -0.0205 
    127 H127       -2.7741   -9.5029  -49.3595 H         1 UNK         0.0600 
    128 H128       -2.0209   -8.4230  -50.5362 H         1 UNK         0.0600 
    129 H129       -2.1270   -7.9447  -48.8384 H         1 UNK         0.0600 
    130 H130       -1.4522  -11.1795  -48.7159 H         1 UNK         0.3000 
    131 H131        1.4132  -11.1661  -49.1952 H         1 UNK         0.0600 
    132 H132        1.3192  -13.5054  -48.3085 H         1 UNK         0.0800 
    133 H133        0.2856  -13.2381  -49.6702 H         1 UNK         0.0800 
    134 H134       -2.0619  -13.0908  -49.7652 H         1 UNK         0.0800 
    135 H135       -3.2082  -13.3103  -48.4740 H         1 UNK         0.0800 
    136 H136       -0.5808  -15.4264  -50.1918 H         1 UNK         0.1150 
    137 H137       -3.2834  -18.7061  -50.7571 H         1 UNK         0.1150 
    138 H138       -4.6067  -15.1529  -48.7643 H         1 UNK         0.1150 
    139 H139       -6.0592  -17.0442  -48.8112 H         1 UNK         0.0800 
    140 H140       -6.0527  -17.2516  -50.5435 H         1 UNK         0.0800 
    141 H141       -6.2865  -19.4912  -47.1187 H         1 UNK         0.0800 
    142 H142       -4.7146  -18.7339  -47.2757 H         1 UNK         0.0800 
    143 H143       -5.2359  -21.6638  -47.9249 H         1 UNK         0.0600 
    144 H144       -2.8982  -20.0714  -48.2463 H         1 UNK         0.3000 
    145 H145       -0.5449  -22.7052  -48.2927 H         1 UNK         0.0600 
    146 H146       -0.1689  -22.0272  -50.6441 H         1 UNK         0.0600 
    147 H147       -1.6675  -22.9381  -50.5303 H         1 UNK         0.0600 
    148 H148       -1.7230  -21.1919  -50.6807 H         1 UNK         0.0600 
    149 H149       -0.0613  -20.1245  -49.0826 H         1 UNK         0.3000 
    150 H150        1.1885  -18.7859  -47.7382 H         1 UNK         0.0600 
    151 H151       -1.0300  -17.6256  -47.8925 H         1 UNK         0.0600 
    152 H152        0.0858  -16.7150  -46.8909 H         1 UNK         0.0600 
    153 H153       -1.1969  -17.6750  -46.1513 H         1 UNK         0.0600 
    154 H154        0.7805  -18.3561  -44.8896 H         1 UNK         0.3000 
    155 H155        2.9062  -20.6136  -43.5948 H         1 UNK         0.0600 
    156 H156        4.2505  -17.9727  -44.3653 H         1 UNK         0.0600 
    157 H157        4.9328  -19.5844  -44.5056 H         1 UNK         0.0600 
    158 H158        4.6267  -18.9022  -42.9157 H         1 UNK         0.0600 
    159 H159        2.1237  -17.8137  -43.0153 H         1 UNK         0.3000 
    160 H160       -0.8559  -18.7931  -41.3433 H         1 UNK         0.0600 
    161 H161        1.7736  -17.8193  -40.1128 H         1 UNK         0.0600 
    162 H162        0.7891  -19.1585  -39.5393 H         1 UNK         0.0600 
    163 H163        0.1676  -17.5161  -39.4524 H         1 UNK         0.0600 
    164 H164        0.6689  -16.3354  -41.7991 H         1 UNK         0.3000 
    165 H165       -0.1596  -15.4531  -44.6045 H         1 UNK         0.0600 
    166 H166       -2.8722  -14.8131  -43.3481 H         1 UNK         0.0600 
    167 H167       -2.0971  -13.8690  -44.6211 H         1 UNK         0.0600 
    168 H168       -2.5843  -15.5251  -44.9305 H         1 UNK         0.0600 
    169 H169        0.7179  -13.9310  -43.2969 H         1 UNK         0.3000 
    170 H170        0.3755  -11.9535  -41.6471 H         1 UNK         0.0600 
    171 H171       -0.8711  -12.0584  -39.5326 H         1 UNK         0.0600 
    172 H172        0.1429  -13.3612  -38.9339 H         1 UNK         0.0600 
    173 H173        0.8247  -11.7555  -39.1908 H         1 UNK         0.0600 
    174 H174        2.4154  -12.7586  -41.8655 H         1 UNK         0.3000 
    175 H175        4.5353  -13.8585  -40.6166 H         1 UNK         0.0600 
    176 H176        3.8637  -16.8292  -40.9837 H         1 UNK         0.0600 
    177 H177        5.4847  -16.1481  -40.8848 H         1 UNK         0.0600 
    178 H178        4.4112  -16.0657  -39.4980 H         1 UNK         0.0600 
    179 H179        4.7429  -13.7922  -42.8314 H         1 UNK         0.3000 
    180 H180        4.7659  -15.2058  -45.1339 H         1 UNK         0.0600 
    181 H181        1.7823  -15.1352  -45.8242 H         1 UNK         0.0600 
    182 H182        2.7993  -16.5725  -45.8338 H         1 UNK         0.0600 
    183 H183        3.1068  -15.2771  -46.9722 H         1 UNK         0.0600 
    184 H184        4.5770  -13.0667  -45.7624 H         1 UNK         0.3000 
    185 H185        2.4815  -10.3625  -44.8993 H         1 UNK         0.0600 
    186 H186        5.0593  -11.2279  -46.3314 H         1 UNK         0.0600 
    187 H187        4.5259   -9.5869  -45.9989 H         1 UNK         0.0600 
    188 H188        4.9782  -10.6411  -44.6712 H         1 UNK         0.0600 
    189 H189        3.0160  -11.4518  -47.5997 H         1 UNK         0.3000 
    190 H190       -2.7234  -20.9241  -45.6589 H         1 UNK         0.3000 
    191 H191       -4.3609  -22.0703  -43.4220 H         1 UNK         0.0600 
    192 H192       -2.6003  -21.0743  -41.9539 H         1 UNK         0.0600 
    193 H193       -3.4453  -19.8406  -42.8794 H         1 UNK         0.0600 
    194 H194       -1.8312  -20.3486  -43.3607 H         1 UNK         0.0600 
    195 H195       -1.1098  -22.0713  -44.9789 H         1 UNK         0.3000 
    196 H196       -0.1085  -24.2150  -43.4295 H         1 UNK         0.0600 
    197 H197        0.9148  -23.0002  -46.0500 H         1 UNK         0.0600 
    198 H198        1.2976  -22.4404  -44.4233 H         1 UNK         0.0600 
    199 H199        1.8519  -24.0176  -44.9616 H         1 UNK         0.0600 
    200 H200       -1.7906  -24.2569  -46.5467 H         1 UNK         0.3000 
    201 H201       -1.3960  -27.2190  -46.7641 H         1 UNK         0.0600 
    202 H202       -1.6661  -25.1764  -49.0361 H         1 UNK         0.0600 
    203 H203       -1.4446  -26.9115  -49.2087 H         1 UNK         0.0600 
    204 H204       -0.1534  -25.9298  -48.5394 H         1 UNK         0.0600 
    205 H205       -3.5291  -25.2263  -45.5759 H         1 UNK         0.3000 
    206 H206       -5.7271  -24.9680  -45.3792 H         1 UNK         0.0600 
    207 H207       -5.5131  -27.3596  -44.6622 H         1 UNK         0.0600 
    208 H208       -7.0913  -27.0291  -45.3551 H         1 UNK         0.0600 
    209 H209       -5.8835  -27.8873  -46.3032 H         1 UNK         0.0600 
    210 H210       -4.6480  -24.1253  -47.8782 H         1 UNK         0.3000 
    211 H211       -5.2065  -23.1319  -49.7230 H         1 UNK         0.0600 
    212 H212       -7.4911  -22.5454  -50.3188 H         1 UNK         0.0600 
    213 H213       -7.3622  -22.4510  -48.5719 H         1 UNK         0.0600 
    214 H214       -8.1574  -23.8305  -49.3252 H         1 UNK         0.0600 
    215 H215       -4.9244  -26.2899  -49.5405 H         1 UNK         0.3000 
    216 H216       -6.0614  -27.2183  -52.0082 H         1 UNK         0.0600 
    217 H217       -3.6728  -28.3173  -50.4362 H         1 UNK         0.0600 
    218 H218       -4.6110  -29.1768  -51.6487 H         1 UNK         0.0600 
    219 H219       -5.3614  -28.7213  -50.1259 H         1 UNK         0.0600 
    220 H220       -3.0889  -25.5237  -51.2148 H         1 UNK         0.3000 
    221 H221       -2.0212  -25.7793  -53.9903 H         1 UNK         0.0600 
    222 H222       -0.5142  -26.4629  -52.1308 H         1 UNK         0.0600 
    223 H223       -0.6651  -24.8702  -51.3969 H         1 UNK         0.0600 
    224 H224        0.1106  -25.0511  -52.9641 H         1 UNK         0.0600 
    225 H225       -4.1879  -23.7965  -52.6215 H         1 UNK         0.3000 
    226 H226       -3.0829  -21.1986  -52.7486 H         1 UNK         0.0600 
    227 H227       -5.9945  -22.1135  -52.9360 H         1 UNK         0.0600 
    228 H228       -5.1126  -21.6739  -51.4700 H         1 UNK         0.0600 
    229 H229       -5.4738  -20.4540  -52.6701 H         1 UNK         0.0600 
    230 H230       -4.0877  -23.2301  -55.3584 H         1 UNK         0.3000 
    231 H231       -4.6628  -21.2740  -57.3556 H         1 UNK         0.0600 
    232 H232       -3.5643  -24.1284  -57.5960 H         1 UNK         0.0600 
    233 H233       -4.2415  -23.1829  -58.9164 H         1 UNK         0.0600 
    234 H234       -5.2688  -23.6727  -57.5791 H         1 UNK         0.0600 
    235 H235       -1.6195  -22.2641  -55.9070 H         1 UNK         0.3000 
    236 H236        0.0630  -21.2981  -58.1021 H         1 UNK         0.0600 
    237 H237        0.7401  -23.2300  -56.6605 H         1 UNK         0.0600 
    238 H238        1.8991  -21.9128  -56.5679 H         1 UNK         0.0600 
    239 H239        0.7641  -22.1711  -55.2502 H         1 UNK         0.0600 
    240 H240       -1.6110  -19.8225  -55.4515 H         1 UNK         0.3000 
    241 H241        0.3159  -17.7725  -54.8276 H         1 UNK         0.0600 
    242 H242       -0.6334  -14.9403  -56.7627 H         1 UNK         0.3800 
    243 H243        0.3000  -15.5068  -55.4081 H         1 UNK         0.3800 
    244 H244       -2.6628  -17.9068  -54.1390 H         1 UNK         0.0800 
    245 H245       -1.5214  -16.7757  -53.4702 H         1 UNK         0.0800 
    246 H246        0.1019  -17.2442  -51.5724 H         1 UNK         0.0800 
    247 H247       -0.1891  -18.5492  -50.4530 H         1 UNK         0.0800 
@<TRIPOS>BOND
     1    1    2 1    
     2    1  127 1    
     3    1  128 1    
     4    1  129 1    
     5    2    3 2    
     6    2    4 am   BACKBONE|DICT|INTERRES
     7    4    5 1    
     8    4  130 1    
     9    5    6 1    
    10    5   65 1    
    11    5  131 1    
    12    6    7 1    
    13    6  132 1    
    14    6  133 1    
    15    7    8 1    
    16    8    9 1    
    17    8  134 1    
    18    8  135 1    
    19    9   10 ar   
    20    9   14 ar   
    21   10   11 ar   
    22   10  136 1    
    23   11   12 ar   
    24   11  126 1    
    25   12   13 ar   
    26   12  137 1    
    27   13   14 ar   
    28   13   15 1    
    29   14  138 1    
    30   15   16 1    
    31   15  139 1    
    32   15  140 1    
    33   16   17 1    
    34   17   18 1    
    35   17  141 1    
    36   17  142 1    
    37   18   19 1    
    38   18   67 1    
    39   18  143 1    
    40   19   20 am   BACKBONE|DICT|INTERRES
    41   19  144 1    
    42   20   21 2    
    43   20   22 1    
    44   22   23 1    
    45   22   24 1    
    46   22  145 1    
    47   23  146 1    
    48   23  147 1    
    49   23  148 1    
    50   24   25 am   BACKBONE|DICT|INTERRES
    51   24  149 1    
    52   25   26 2    
    53   25   27 1    
    54   27   28 1    
    55   27   29 1    
    56   27  150 1    
    57   28  151 1    
    58   28  152 1    
    59   28  153 1    
    60   29   30 am   BACKBONE|DICT|INTERRES
    61   29  154 1    
    62   30   31 2    
    63   30   32 1    
    64   32   33 1    
    65   32   34 1    
    66   32  155 1    
    67   33  156 1    
    68   33  157 1    
    69   33  158 1    
    70   34   35 am   BACKBONE|DICT|INTERRES
    71   34  159 1    
    72   35   36 2    
    73   35   37 1    
    74   37   38 1    
    75   37   39 1    
    76   37  160 1    
    77   38  161 1    
    78   38  162 1    
    79   38  163 1    
    80   39   40 am   BACKBONE|DICT|INTERRES
    81   39  164 1    
    82   40   41 2    
    83   40   42 1    
    84   42   43 1    
    85   42   44 1    
    86   42  165 1    
    87   43  166 1    
    88   43  167 1    
    89   43  168 1    
    90   44   45 am   BACKBONE|DICT|INTERRES
    91   44  169 1    
    92   45   46 2    
    93   45   47 1    
    94   47   48 1    
    95   47   49 1    
    96   47  170 1    
    97   48  171 1    
    98   48  172 1    
    99   48  173 1    
   100   49   50 am   BACKBONE|DICT|INTERRES
   101   49  174 1    
   102   50   51 2    
   103   50   52 1    
   104   52   53 1    
   105   52   54 1    
   106   52  175 1    
   107   53  176 1    
   108   53  177 1    
   109   53  178 1    
   110   54   55 am   BACKBONE|DICT|INTERRES
   111   54  179 1    
   112   55   56 2    
   113   55   57 1    
   114   57   58 1    
   115   57   59 1    
   116   57  180 1    
   117   58  181 1    
   118   58  182 1    
   119   58  183 1    
   120   59   60 am   BACKBONE|DICT|INTERRES
   121   59  184 1    
   122   60   61 2    
   123   60   62 1    
   124   62   63 1    
   125   62   64 1    
   126   62  185 1    
   127   63  186 1    
   128   63  187 1    
   129   63  188 1    
   130   64   65 am   BACKBONE|DICT|INTERRES
   131   64  189 1    
   132   65   66 2    
   133   67   68 2    
   134   67   69 am   BACKBONE|DICT|INTERRES
   135   69   70 1    
   136   69  190 1    
   137   70   71 1    
   138   70   72 1    
   139   70  191 1    
   140   71  192 1    
   141   71  193 1    
   142   71  194 1    
   143   72   73 2    
   144   72   74 am   BACKBONE|DICT|INTERRES
   145   74   75 1    
   146   74  195 1    
   147   75   76 1    
   148   75   77 1    
   149   75  196 1    
   150   76  197 1    
   151   76  198 1    
   152   76  199 1    
   153   77   78 2    
   154   77   79 am   BACKBONE|DICT|INTERRES
   155   79   80 1    
   156   79  200 1    
   157   80   81 1    
   158   80   82 1    
   159   80  201 1    
   160   81  202 1    
   161   81  203 1    
   162   81  204 1    
   163   82   83 2    
   164   82   84 am   BACKBONE|DICT|INTERRES
   165   84   85 1    
   166   84  205 1    
   167   85   86 1    
   168   85   87 1    
   169   85  206 1    
   170   86  207 1    
   171   86  208 1    
   172   86  209 1    
   173   87   88 2    
   174   87   89 am   BACKBONE|DICT|INTERRES
   175   89   90 1    
   176   89  210 1    
   177   90   91 1    
   178   90   92 1    
   179   90  211 1    
   180   91  212 1    
   181   91  213 1    
   182   91  214 1    
   183   92   93 2    
   184   92   94 am   BACKBONE|DICT|INTERRES
   185   94   95 1    
   186   94  215 1    
   187   95   96 1    
   188   95   97 1    
   189   95  216 1    
   190   96  217 1    
   191   96  218 1    
   192   96  219 1    
   193   97   98 2    
   194   97   99 am   BACKBONE|DICT|INTERRES
   195   99  100 1    
   196   99  220 1    
   197  100  101 1    
   198  100  102 1    
   199  100  221 1    
   200  101  222 1    
   201  101  223 1    
   202  101  224 1    
   203  102  103 2    
   204  102  104 am   BACKBONE|DICT|INTERRES
   205  104  105 1    
   206  104  225 1    
   207  105  106 1    
   208  105  107 1    
   209  105  226 1    
   210  106  227 1    
   211  106  228 1    
   212  106  229 1    
   213  107  108 2    
   214  107  109 am   BACKBONE|DICT|INTERRES
   215  109  110 1    
   216  109  230 1    
   217  110  111 1    
   218  110  112 1    
   219  110  231 1    
   220  111  232 1    
   221  111  233 1    
   222  111  234 1    
   223  112  113 2    
   224  112  114 am   BACKBONE|DICT|INTERRES
   225  114  115 1    
   226  114  235 1    
   227  115  116 1    
   228  115  117 1    
   229  115  236 1    
   230  116  237 1    
   231  116  238 1    
   232  116  239 1    
   233  117  118 2    
   234  117  119 am   BACKBONE|DICT|INTERRES
   235  119  120 1    
   236  119  240 1    
   237  120  121 1    
   238  120  124 1    
   239  120  241 1    
   240  121  122 am   BACKBONE|DICT|INTERRES
   241  121  123 2    
   242  122  242 1    
   243  122  243 1    
   244  124  125 1    
   245  124  244 1    
   246  124  245 1    
   247  125  126 1    
   248  126  246 1    
   249  126  247 1    
@<TRIPOS>SUBSTRUCTURE
     1 UNK         1 GROUP             0       ****    0 ROOT    
