@<TRIPOS>MOLECULE
3R540
247   249    1
SMALL
USER_CHARGES


@<TRIPOS>ATOM
      1 CA          3.1176  -10.6981  -45.9607 C.3       0 UNK        -0.1800 
      2 C           2.2221  -11.6375  -46.7529 C.2       0 UNK         0.5000 
      3 O           1.0033  -11.6191  -46.5675 O.2       0 UNK        -0.5000 
      4 N           2.8126  -12.4712  -47.6185 N.am      1 UNK        -0.5000 
      5 CA          2.1233  -13.4400  -48.4792 C.3       1 UNK         0.1400 
      6 C6          3.1171  -14.2905  -49.3049 C.3       23 UNK        -0.0398 
      7 S7          4.0098  -15.4811  -48.2473 S.3       23 UNK        -0.2404 
      8 C8          4.0727  -16.9570  -49.3239 C.3       23 UNK        -0.0205 
      9 C9          2.8247  -17.8444  -49.3274 C.ar      23 UNK        -0.0193 
     10 C10         1.5418  -17.3570  -49.0444 C.ar      23 UNK        -0.1150 
     11 C11         0.4275  -18.1988  -49.0857 C.ar      23 UNK        -0.0193 
     12 C12         0.5983  -19.5426  -49.4179 C.ar      23 UNK        -0.1150 
     13 C13         1.8677  -20.0507  -49.7011 C.ar      23 UNK        -0.0193 
     14 C14         2.9722  -19.1960  -49.6571 C.ar      23 UNK        -0.1150 
     15 C15         2.0497  -21.5178  -50.0630 C.3       23 UNK        -0.0205 
     16 S16         2.6207  -22.4990  -48.6388 S.3       23 UNK        -0.2404 
     17 C17         1.1421  -22.5041  -47.5725 C.3       23 UNK        -0.0398 
     18 CA          0.6400  -23.9304  -47.2564 C.3       11 UNK         0.1400 
     19 N           1.6122  -24.6939  -46.4700 N.am      11 UNK        -0.5000 
     20 C           1.5408  -26.0073  -46.2188 C.2       10 UNK         0.5000 
     21 O           0.6516  -26.7394  -46.6496 O.2       10 UNK        -0.5000 
     22 CA          2.6243  -26.5883  -45.2924 C.3       10 UNK         0.1400 
     23 CB          3.9033  -26.8988  -46.0839 C.3       10 UNK        -0.1800 
     24 N           2.9464  -25.6922  -44.1803 N.am      10 UNK        -0.5000 
     25 C           2.0991  -25.3824  -43.1883 C.2       9 UNK         0.5000 
     26 O           0.9672  -25.8548  -43.0832 O.2       9 UNK        -0.5000 
     27 CA          2.5794  -24.3216  -42.1785 C.3       9 UNK         0.1400 
     28 CB          3.4330  -24.9685  -41.0778 C.3       9 UNK        -0.1800 
     29 N           3.3311  -23.2248  -42.8006 N.am      9 UNK        -0.5000 
     30 C           2.8295  -22.4005  -43.7294 C.2       8 UNK         0.5000 
     31 O           1.6825  -22.4998  -44.1720 O.2       8 UNK        -0.5000 
     32 CA          3.7806  -21.3297  -44.2976 C.3       8 UNK         0.1400 
     33 CB          4.7530  -21.9603  -45.3068 C.3       8 UNK        -0.1800 
     34 N           3.0271  -20.2702  -44.9701 N.am      8 UNK        -0.5000 
     35 C           2.3660  -19.3005  -44.3291 C.2       7 UNK         0.5000 
     36 O           2.4601  -19.0874  -43.1164 O.2       7 UNK        -0.5000 
     37 CA          1.4116  -18.4493  -45.1765 C.3       7 UNK         0.1400 
     38 CB          0.0446  -19.1479  -45.3095 C.3       7 UNK        -0.1800 
     39 N           1.2475  -17.1556  -44.5229 N.am      7 UNK        -0.5000 
     40 C           0.8393  -16.0353  -45.1232 C.2       6 UNK         0.5000 
     41 O           0.5181  -15.9708  -46.3113 O.2       6 UNK        -0.5000 
     42 CA          0.8124  -14.7640  -44.2582 C.3       6 UNK         0.1400 
     43 CB          2.2247  -14.1714  -44.1320 C.3       6 UNK        -0.1800 
     44 N          -0.0679  -13.7686  -44.8671 N.am      6 UNK        -0.5000 
     45 C          -1.3939  -13.7351  -44.7056 C.2       5 UNK         0.5000 
     46 O          -2.0108  -14.4334  -43.8981 O.2       5 UNK        -0.5000 
     47 CA         -2.1655  -12.7766  -45.6243 C.3       5 UNK         0.1400 
     48 CB         -2.9968  -13.5734  -46.6424 C.3       5 UNK        -0.1800 
     49 N          -3.0669  -11.9346  -44.8391 N.am      5 UNK        -0.5000 
     50 C          -2.8282  -10.7869  -44.1806 C.2       4 UNK         0.5000 
     51 O          -3.6697  -10.3407  -43.4023 O.2       4 UNK        -0.5000 
     52 CA         -1.5382   -9.9549  -44.3927 C.3       4 UNK         0.1400 
     53 CB         -0.3669  -10.4382  -43.5223 C.3       4 UNK        -0.1800 
     54 N          -1.1113   -9.8110  -45.7830 N.am      4 UNK        -0.5000 
     55 C          -1.7675   -9.1101  -46.7169 C.2       3 UNK         0.5000 
     56 O          -2.7966   -8.4699  -46.4995 O.2       3 UNK        -0.5000 
     57 CA         -1.1744   -9.1355  -48.1328 C.3       3 UNK         0.1400 
     58 CB          0.1683   -8.3877  -48.1814 C.3       3 UNK        -0.1800 
     59 N          -0.9775  -10.5108  -48.5906 N.am      3 UNK        -0.5000 
     60 C          -1.7377  -11.1294  -49.5047 C.2       2 UNK         0.5000 
     61 O          -2.7242  -10.6067  -50.0250 O.2       2 UNK        -0.5000 
     62 CA         -1.3652  -12.5752  -49.9112 C.3       2 UNK         0.1400 
     63 CB         -1.2572  -12.7194  -51.4441 C.3       2 UNK        -0.1800 
     64 N          -0.1741  -13.1201  -49.2434 N.am      2 UNK        -0.5000 
     65 C           1.1029  -12.7393  -49.3967 C.2       1 UNK         0.5000 
     66 O           1.4851  -11.8606  -50.1710 O.2       1 UNK        -0.5000 
     67 C          -0.7292  -23.8758  -46.5519 C.2       11 UNK         0.5000 
     68 O          -1.7569  -24.0633  -47.2043 O.2       11 UNK        -0.5000 
     69 N          -0.7160  -23.6528  -45.2307 N.am      12 UNK        -0.5000 
     70 CA         -1.8993  -23.6659  -44.3732 C.3       12 UNK         0.1400 
     71 CB         -1.5196  -23.1815  -42.9660 C.3       12 UNK        -0.1800 
     72 C          -2.5715  -25.0502  -44.3258 C.2       12 UNK         0.5000 
     73 O          -3.7924  -25.1314  -44.4605 O.2       12 UNK        -0.5000 
     74 N          -1.7636  -26.1130  -44.1931 N.am      13 UNK        -0.5000 
     75 CA         -2.2096  -27.5089  -44.2227 C.3       13 UNK         0.1400 
     76 CB         -1.0431  -28.4281  -43.8306 C.3       13 UNK        -0.1800 
     77 C          -2.7999  -27.9283  -45.5835 C.2       13 UNK         0.5000 
     78 O          -3.7857  -28.6655  -45.6168 O.2       13 UNK        -0.5000 
     79 N          -2.2086  -27.4282  -46.6769 N.am      14 UNK        -0.5000 
     80 CA         -2.6753  -27.6264  -48.0514 C.3       14 UNK         0.1400 
     81 CB         -1.5250  -27.2962  -49.0163 C.3       14 UNK        -0.1800 
     82 C          -3.9249  -26.7957  -48.4117 C.2       14 UNK         0.5000 
     83 O          -4.5235  -27.0477  -49.4581 O.2       14 UNK        -0.5000 
     84 N          -4.2804  -25.8192  -47.5624 N.am      15 UNK        -0.5000 
     85 CA         -5.3462  -24.8275  -47.7355 C.3       15 UNK         0.1400 
     86 CB         -6.7364  -25.4954  -47.7542 C.3       15 UNK        -0.1800 
     87 C          -5.0948  -23.9077  -48.9481 C.2       15 UNK         0.5000 
     88 O          -6.0216  -23.5808  -49.6926 O.2       15 UNK        -0.5000 
     89 N          -3.8330  -23.4870  -49.1151 N.am      16 UNK        -0.5000 
     90 CA         -3.3518  -22.6524  -50.2186 C.3       16 UNK         0.1400 
     91 CB         -1.8409  -22.4552  -50.0627 C.3       16 UNK        -0.1800 
     92 C          -4.0538  -21.2863  -50.3271 C.2       16 UNK         0.5000 
     93 O          -4.2202  -20.7804  -51.4364 O.2       16 UNK        -0.5000 
     94 N          -4.4818  -20.7341  -49.1839 N.am      17 UNK        -0.5000 
     95 CA         -5.2458  -19.4895  -49.0991 C.3       17 UNK         0.1400 
     96 CB         -5.2483  -18.9964  -47.6448 C.3       17 UNK        -0.1800 
     97 C          -6.6820  -19.6252  -49.6383 C.2       17 UNK         0.5000 
     98 O          -7.2011  -18.6676  -50.2116 O.2       17 UNK        -0.5000 
     99 N          -7.2877  -20.8111  -49.4786 N.am      18 UNK        -0.5000 
    100 CA        -8.6053  -21.1395  -50.0278 C.3       18 UNK         0.1400 
    101 CB        -9.2131  -22.3165  -49.2494 C.3       18 UNK        -0.1800 
    102 C         -8.5230  -21.4588  -51.5309 C.2       18 UNK         0.5000 
    103 O         -9.4305  -21.0999  -52.2816 O.2       18 UNK        -0.5000 
    104 N         -7.4183  -22.0954  -51.9453 N.am      19 UNK        -0.5000 
    105 CA        -7.0884  -22.3820  -53.3434 C.3       19 UNK         0.1400 
    106 CB        -5.9700  -23.4353  -53.3777 C.3       19 UNK        -0.1800 
    107 C         -6.6669  -21.1323  -54.1463 C.2       19 UNK         0.5000 
    108 O         -6.6686  -21.1839  -55.3767 O.2       19 UNK        -0.5000 
    109 N         -6.2985  -20.0524  -53.4393 N.am      20 UNK        -0.5000 
    110 CA        -5.7440  -18.7907  -53.9418 C.3       20 UNK         0.1400 
    111 CB        -6.7674  -18.0386  -54.8175 C.3       20 UNK        -0.1800 
    112 C         -4.3741  -18.9858  -54.6272 C.2       20 UNK         0.5000 
    113 O         -4.0803  -18.3449  -55.6377 O.2       20 UNK        -0.5000 
    114 N         -3.5556  -19.8748  -54.0509 N.am      21 UNK        -0.5000 
    115 CA        -2.2294  -20.2549  -54.5415 C.3       21 UNK         0.1400 
    116 CB        -1.9816  -21.7249  -54.1652 C.3       21 UNK        -0.1800 
    117 C         -1.1009  -19.3441  -54.0119 C.2       21 UNK         0.5000 
    118 O          0.0599  -19.5562  -54.3638 O.2       21 UNK        -0.5000 
    119 N         -1.4514  -18.3594  -53.1752 N.am      22 UNK        -0.5000 
    120 CA        -0.5367  -17.4118  -52.5135 C.3       22 UNK         0.1400 
    121 C          0.1945  -16.4112  -53.4567 C.2       22 UNK         0.5000 
    122 N         -0.2161  -16.2522  -54.7090 N.am      22 UNK        -0.7600 
    123 O          1.1507  -15.7636  -53.0403 O.2       22 UNK        -0.5000 
    124 C124       -1.2531  -16.6361  -51.3782 C.3       23 UNK        -0.0398 
    125 S125       -2.0880  -17.7331  -50.1851 S.3       23 UNK        -0.2404 
    126 C126       -0.9605  -17.6624  -48.7619 C.3       23 UNK        -0.0205 
    127 H127        4.1724  -10.8606  -46.1826 H         1 UNK         0.0600 
    128 H128        2.9662  -10.8525  -44.8924 H         1 UNK         0.0600 
    129 H129        2.8747   -9.6617  -46.1936 H         1 UNK         0.0600 
    130 H130        3.8159  -12.4373  -47.7265 H         1 UNK         0.3000 
    131 H131        1.5718  -14.1093  -47.8175 H         1 UNK         0.0600 
    132 H132        2.5982  -14.8389  -50.0938 H         1 UNK         0.0800 
    133 H133        3.8424  -13.6542  -49.8147 H         1 UNK         0.0800 
    134 H134        4.9271  -17.5519  -48.9972 H         1 UNK         0.0800 
    135 H135        4.2922  -16.6507  -50.3476 H         1 UNK         0.0800 
    136 H136        1.3948  -16.3229  -48.7809 H         1 UNK         0.1150 
    137 H137       -0.2669  -20.1841  -49.4614 H         1 UNK         0.1150 
    138 H138        3.9537  -19.5892  -49.8827 H         1 UNK         0.1150 
    139 H139        2.7835  -21.6037  -50.8657 H         1 UNK         0.0800 
    140 H140        1.1234  -21.9402  -50.4546 H         1 UNK         0.0800 
    141 H141        0.3552  -21.9267  -48.0508 H         1 UNK         0.0800 
    142 H142        1.3839  -21.9658  -46.6582 H         1 UNK         0.0800 
    143 H143        0.4917  -24.4555  -48.2025 H         1 UNK         0.0600 
    144 H144        2.3583  -24.1634  -46.0480 H         1 UNK         0.3000 
    145 H145        2.2426  -27.5235  -44.8774 H         1 UNK         0.0600 
    146 H146        3.6941  -27.5789  -46.9108 H         1 UNK         0.0600 
    147 H147        4.6513  -27.3780  -45.4520 H         1 UNK         0.0600 
    148 H148        4.3476  -25.9962  -46.5056 H         1 UNK         0.0600 
    149 H149        3.8578  -25.2590  -44.1890 H         1 UNK         0.3000 
    150 H150        1.6918  -23.8905  -41.7106 H         1 UNK         0.0600 
    151 H151        4.3569  -25.3886  -41.4773 H         1 UNK         0.0600 
    152 H152        2.8895  -25.7772  -40.5874 H         1 UNK         0.0600 
    153 H153        3.6985  -24.2440  -40.3076 H         1 UNK         0.0600 
    154 H154        4.2827  -23.0954  -42.4880 H         1 UNK         0.3000 
    155 H155        4.3552  -20.8973  -43.4757 H         1 UNK         0.0600 
    156 H156        4.2263  -22.4521  -46.1244 H         1 UNK         0.0600 
    157 H157        5.3860  -22.7089  -44.8291 H         1 UNK         0.0600 
    158 H158        5.4140  -21.2090  -45.7396 H         1 UNK         0.0600 
    159 H159        2.8861  -20.3857  -45.9624 H         1 UNK         0.3000 
    160 H160        1.8509  -18.2998  -46.1656 H         1 UNK         0.0600 
    161 H161       -0.3618  -19.4219  -44.3350 H         1 UNK         0.0600 
    162 H162        0.1255  -20.0606  -45.8991 H         1 UNK         0.0600 
    163 H163       -0.6863  -18.5072  -45.7998 H         1 UNK         0.0600 
    164 H164        1.5373  -17.1458  -43.5526 H         1 UNK         0.3000 
    165 H165        0.4457  -15.0163  -43.2609 H         1 UNK         0.0600 
    166 H166        2.8749  -14.8350  -43.5611 H         1 UNK         0.0600 
    167 H167        2.6896  -14.0255  -45.1072 H         1 UNK         0.0600 
    168 H168        2.2085  -13.2106  -43.6170 H         1 UNK         0.0600 
    169 H169        0.3593  -13.1569  -45.5542 H         1 UNK         0.3000 
    170 H170       -1.4608  -12.1893  -46.2005 H         1 UNK         0.0600 
    171 H171       -3.7524  -14.1904  -46.1542 H         1 UNK         0.0600 
    172 H172       -2.3637  -14.2401  -47.2293 H         1 UNK         0.0600 
    173 H173       -3.5082  -12.9084  -47.3386 H         1 UNK         0.0600 
    174 H174       -3.9453  -12.3848  -44.6304 H         1 UNK         0.3000 
    175 H175       -1.7774   -8.9493  -44.0391 H         1 UNK         0.0600 
    176 H176       -0.6952  -10.6687  -42.5080 H         1 UNK         0.0600 
    177 H177        0.1115  -11.3266  -43.9253 H         1 UNK         0.0600 
    178 H178        0.4000   -9.6673  -43.4459 H         1 UNK         0.0600 
    179 H179       -0.2802  -10.3280  -46.0524 H         1 UNK         0.3000 
    180 H180       -1.8672   -8.6074  -48.7914 H         1 UNK         0.0600 
    181 H181        0.9234   -8.8603  -47.5536 H         1 UNK         0.0600 
    182 H182        0.0544   -7.3580  -47.8401 H         1 UNK         0.0600 
    183 H183        0.5586   -8.3518  -49.1986 H         1 UNK         0.0600 
    184 H184       -0.1996  -11.0153  -48.1842 H         1 UNK         0.3000 
    185 H185       -2.1969  -13.2018  -49.5870 H         1 UNK         0.0600 
    186 H186       -2.2195  -12.5324  -51.9218 H         1 UNK         0.0600 
    187 H187       -0.5441  -12.0127  -51.8690 H         1 UNK         0.0600 
    188 H188       -0.9418  -13.7209  -51.7323 H         1 UNK         0.0600 
    189 H189       -0.3663  -13.8385  -48.5599 H         1 UNK         0.3000 
    190 H190        0.1717  -23.4470  -44.7788 H         1 UNK         0.3000 
    191 H191       -2.6198  -22.9598  -44.7912 H         1 UNK         0.0600 
    192 H192       -1.0920  -22.1790  -42.9975 H         1 UNK         0.0600 
    193 H193       -2.3952  -23.1433  -42.3171 H         1 UNK         0.0600 
    194 H194       -0.7897  -23.8398  -42.4949 H         1 UNK         0.0600 
    195 H195       -0.7719  -25.9574  -44.0384 H         1 UNK         0.3000 
    196 H196       -2.9960  -27.6217  -43.4736 H         1 UNK         0.0600 
    197 H197       -1.3541  -29.4734  -43.8229 H         1 UNK         0.0600 
    198 H198       -0.6732  -28.1914  -42.8329 H         1 UNK         0.0600 
    199 H199       -0.2085  -28.3383  -44.5264 H         1 UNK         0.0600 
    200 H200       -1.3536  -26.8922  -46.5661 H         1 UNK         0.3000 
    201 H201       -2.9355  -28.6790  -48.1793 H         1 UNK         0.0600 
    202 H202       -1.8197  -27.4632  -50.0530 H         1 UNK         0.0600 
    203 H203       -0.6550  -27.9239  -48.8226 H         1 UNK         0.0600 
    204 H204       -1.2140  -26.2547  -48.9273 H         1 UNK         0.0600 
    205 H205       -3.7051  -25.6916  -46.7399 H         1 UNK         0.3000 
    206 H206       -5.3042  -24.1854  -46.8547 H         1 UNK         0.0600 
    207 H207       -6.8709  -26.1488  -46.8922 H         1 UNK         0.0600 
    208 H208       -7.5278  -24.7462  -47.7188 H         1 UNK         0.0600 
    209 H209       -6.8914  -26.0900  -48.6548 H         1 UNK         0.0600 
    210 H210       -3.1309  -23.7902  -48.4431 H         1 UNK         0.3000 
    211 H211       -3.5338  -23.1941  -51.1478 H         1 UNK         0.0600 
    212 H212       -1.4364  -21.8155  -50.8471 H         1 UNK         0.0600 
    213 H213       -1.3086  -23.4057  -50.1043 H         1 UNK         0.0600 
    214 H214       -1.6194  -21.9849  -49.1064 H         1 UNK         0.0600 
    215 H215       -4.2944  -21.2175  -48.3184 H         1 UNK         0.3000 
    216 H216       -4.7456  -18.7381  -49.7113 H         1 UNK         0.0600 
    217 H217       -4.2333  -18.8146  -47.2905 H         1 UNK         0.0600 
    218 H218       -5.7162  -19.7183  -46.9744 H         1 UNK         0.0600 
    219 H219       -5.7961  -18.0577  -47.5522 H         1 UNK         0.0600 
    220 H220       -6.7725  -21.5732  -49.0593 H         1 UNK         0.3000 
    221 H221       -9.2641  -20.2776  -49.9016 H         1 UNK         0.0600 
    222 H222       -8.6330  -23.2306  -49.3753 H         1 UNK         0.0600 
    223 H223       -9.2704  -22.0983  -48.1829 H         1 UNK         0.0600 
    224 H224      -10.2267  -22.5255  -49.5936 H         1 UNK         0.0600 
    225 H225       -6.7593  -22.4180  -51.2451 H         1 UNK         0.3000 
    226 H226       -7.9728  -22.8037  -53.8253 H         1 UNK         0.0600 
    227 H227       -6.2442  -24.3257  -52.8114 H         1 UNK         0.0600 
    228 H228       -5.7623  -23.7503  -54.4010 H         1 UNK         0.0600 
    229 H229       -5.0409  -23.0452  -52.9629 H         1 UNK         0.0600 
    230 H230       -6.2868  -20.1543  -52.4338 H         1 UNK         0.3000 
    231 H231       -5.5544  -18.1759  -53.0606 H         1 UNK         0.0600 
    232 H232       -6.9587  -18.5565  -55.7575 H         1 UNK         0.0600 
    233 H233       -6.4083  -17.0388  -55.0642 H         1 UNK         0.0600 
    234 H234       -7.7187  -17.9221  -54.2983 H         1 UNK         0.0600 
    235 H235       -3.8571  -20.3127  -53.1821 H         1 UNK         0.3000 
    236 H236       -2.2152  -20.1812  -55.6308 H         1 UNK         0.0600 
    237 H237       -1.9964  -21.8700  -53.0862 H         1 UNK         0.0600 
    238 H238       -2.7427  -22.3743  -54.5983 H         1 UNK         0.0600 
    239 H239       -1.0143  -22.0703  -54.5319 H         1 UNK         0.0600 
    240 H240       -2.4244  -18.2822  -52.9214 H         1 UNK         0.3000 
    241 H241        0.2517  -18.0115  -52.0549 H         1 UNK         0.0600 
    242 H242        0.2663  -15.6033  -55.3105 H         1 UNK         0.3800 
    243 H243       -0.9975  -16.7801  -55.0638 H         1 UNK         0.3800 
    244 H244       -0.5483  -15.9978  -50.8424 H         1 UNK         0.0800 
    245 H245       -2.0087  -15.9692  -51.7967 H         1 UNK         0.0800 
    246 H246       -0.9126  -16.6355  -48.3987 H         1 UNK         0.0800 
    247 H247       -1.3929  -18.2546  -47.9562 H         1 UNK         0.0800 
@<TRIPOS>BOND
     1    1    2 1    
     2    1  127 1    
     3    1  128 1    
     4    1  129 1    
     5    2    3 2    
     6    2    4 am   BACKBONE|DICT|INTERRES
     7    4    5 1    
     8    4  130 1    
     9    5    6 1    
    10    5   65 1    
    11    5  131 1    
    12    6    7 1    
    13    6  132 1    
    14    6  133 1    
    15    7    8 1    
    16    8    9 1    
    17    8  134 1    
    18    8  135 1    
    19    9   10 ar   
    20    9   14 ar   
    21   10   11 ar   
    22   10  136 1    
    23   11   12 ar   
    24   11  126 1    
    25   12   13 ar   
    26   12  137 1    
    27   13   14 ar   
    28   13   15 1    
    29   14  138 1    
    30   15   16 1    
    31   15  139 1    
    32   15  140 1    
    33   16   17 1    
    34   17   18 1    
    35   17  141 1    
    36   17  142 1    
    37   18   19 1    
    38   18   67 1    
    39   18  143 1    
    40   19   20 am   BACKBONE|DICT|INTERRES
    41   19  144 1    
    42   20   21 2    
    43   20   22 1    
    44   22   23 1    
    45   22   24 1    
    46   22  145 1    
    47   23  146 1    
    48   23  147 1    
    49   23  148 1    
    50   24   25 am   BACKBONE|DICT|INTERRES
    51   24  149 1    
    52   25   26 2    
    53   25   27 1    
    54   27   28 1    
    55   27   29 1    
    56   27  150 1    
    57   28  151 1    
    58   28  152 1    
    59   28  153 1    
    60   29   30 am   BACKBONE|DICT|INTERRES
    61   29  154 1    
    62   30   31 2    
    63   30   32 1    
    64   32   33 1    
    65   32   34 1    
    66   32  155 1    
    67   33  156 1    
    68   33  157 1    
    69   33  158 1    
    70   34   35 am   BACKBONE|DICT|INTERRES
    71   34  159 1    
    72   35   36 2    
    73   35   37 1    
    74   37   38 1    
    75   37   39 1    
    76   37  160 1    
    77   38  161 1    
    78   38  162 1    
    79   38  163 1    
    80   39   40 am   BACKBONE|DICT|INTERRES
    81   39  164 1    
    82   40   41 2    
    83   40   42 1    
    84   42   43 1    
    85   42   44 1    
    86   42  165 1    
    87   43  166 1    
    88   43  167 1    
    89   43  168 1    
    90   44   45 am   BACKBONE|DICT|INTERRES
    91   44  169 1    
    92   45   46 2    
    93   45   47 1    
    94   47   48 1    
    95   47   49 1    
    96   47  170 1    
    97   48  171 1    
    98   48  172 1    
    99   48  173 1    
   100   49   50 am   BACKBONE|DICT|INTERRES
   101   49  174 1    
   102   50   51 2    
   103   50   52 1    
   104   52   53 1    
   105   52   54 1    
   106   52  175 1    
   107   53  176 1    
   108   53  177 1    
   109   53  178 1    
   110   54   55 am   BACKBONE|DICT|INTERRES
   111   54  179 1    
   112   55   56 2    
   113   55   57 1    
   114   57   58 1    
   115   57   59 1    
   116   57  180 1    
   117   58  181 1    
   118   58  182 1    
   119   58  183 1    
   120   59   60 am   BACKBONE|DICT|INTERRES
   121   59  184 1    
   122   60   61 2    
   123   60   62 1    
   124   62   63 1    
   125   62   64 1    
   126   62  185 1    
   127   63  186 1    
   128   63  187 1    
   129   63  188 1    
   130   64   65 am   BACKBONE|DICT|INTERRES
   131   64  189 1    
   132   65   66 2    
   133   67   68 2    
   134   67   69 am   BACKBONE|DICT|INTERRES
   135   69   70 1    
   136   69  190 1    
   137   70   71 1    
   138   70   72 1    
   139   70  191 1    
   140   71  192 1    
   141   71  193 1    
   142   71  194 1    
   143   72   73 2    
   144   72   74 am   BACKBONE|DICT|INTERRES
   145   74   75 1    
   146   74  195 1    
   147   75   76 1    
   148   75   77 1    
   149   75  196 1    
   150   76  197 1    
   151   76  198 1    
   152   76  199 1    
   153   77   78 2    
   154   77   79 am   BACKBONE|DICT|INTERRES
   155   79   80 1    
   156   79  200 1    
   157   80   81 1    
   158   80   82 1    
   159   80  201 1    
   160   81  202 1    
   161   81  203 1    
   162   81  204 1    
   163   82   83 2    
   164   82   84 am   BACKBONE|DICT|INTERRES
   165   84   85 1    
   166   84  205 1    
   167   85   86 1    
   168   85   87 1    
   169   85  206 1    
   170   86  207 1    
   171   86  208 1    
   172   86  209 1    
   173   87   88 2    
   174   87   89 am   BACKBONE|DICT|INTERRES
   175   89   90 1    
   176   89  210 1    
   177   90   91 1    
   178   90   92 1    
   179   90  211 1    
   180   91  212 1    
   181   91  213 1    
   182   91  214 1    
   183   92   93 2    
   184   92   94 am   BACKBONE|DICT|INTERRES
   185   94   95 1    
   186   94  215 1    
   187   95   96 1    
   188   95   97 1    
   189   95  216 1    
   190   96  217 1    
   191   96  218 1    
   192   96  219 1    
   193   97   98 2    
   194   97   99 am   BACKBONE|DICT|INTERRES
   195   99  100 1    
   196   99  220 1    
   197  100  101 1    
   198  100  102 1    
   199  100  221 1    
   200  101  222 1    
   201  101  223 1    
   202  101  224 1    
   203  102  103 2    
   204  102  104 am   BACKBONE|DICT|INTERRES
   205  104  105 1    
   206  104  225 1    
   207  105  106 1    
   208  105  107 1    
   209  105  226 1    
   210  106  227 1    
   211  106  228 1    
   212  106  229 1    
   213  107  108 2    
   214  107  109 am   BACKBONE|DICT|INTERRES
   215  109  110 1    
   216  109  230 1    
   217  110  111 1    
   218  110  112 1    
   219  110  231 1    
   220  111  232 1    
   221  111  233 1    
   222  111  234 1    
   223  112  113 2    
   224  112  114 am   BACKBONE|DICT|INTERRES
   225  114  115 1    
   226  114  235 1    
   227  115  116 1    
   228  115  117 1    
   229  115  236 1    
   230  116  237 1    
   231  116  238 1    
   232  116  239 1    
   233  117  118 2    
   234  117  119 am   BACKBONE|DICT|INTERRES
   235  119  120 1    
   236  119  240 1    
   237  120  121 1    
   238  120  124 1    
   239  120  241 1    
   240  121  122 am   BACKBONE|DICT|INTERRES
   241  121  123 2    
   242  122  242 1    
   243  122  243 1    
   244  124  125 1    
   245  124  244 1    
   246  124  245 1    
   247  125  126 1    
   248  126  246 1    
   249  126  247 1    
@<TRIPOS>SUBSTRUCTURE
     1 UNK         1 GROUP             0       ****    0 ROOT    
