@<TRIPOS>MOLECULE
3R540
247   249    1
SMALL
USER_CHARGES


@<TRIPOS>ATOM
      1 CA          0.2904  -15.1097  -53.3145 C.3       0 UNK        -0.1800 
      2 C           0.6578  -14.5473  -51.9483 C.2       0 UNK         0.5000 
      3 O           0.5879  -13.3352  -51.7423 O.2       0 UNK        -0.5000 
      4 N           1.0624  -15.4234  -51.0223 N.am      1 UNK        -0.5000 
      5 CA          1.3902  -15.0902  -49.6334 C.3       1 UNK         0.1400 
      6 C6          2.1983  -16.2315  -48.9629 C.3       23 UNK        -0.0398 
      7 S7          3.9814  -16.1165  -49.3348 S.3       23 UNK        -0.2404 
      8 C8          4.1486  -17.0044  -50.9220 C.3       23 UNK        -0.0205 
      9 C9          3.8527  -18.4979  -50.8369 C.ar      23 UNK        -0.0193 
     10 C10         3.0450  -19.1047  -51.8039 C.ar      23 UNK        -0.1150 
     11 C11         2.7794  -20.4776  -51.7575 C.ar      23 UNK        -0.0193 
     12 C12         3.3397  -21.2463  -50.7323 C.ar      23 UNK        -0.1150 
     13 C13         4.1710  -20.6583  -49.7731 C.ar      23 UNK        -0.0193 
     14 C14         4.4251  -19.2859  -49.8337 C.ar      23 UNK        -0.1150 
     15 C15         4.8126  -21.5086  -48.6836 C.3       23 UNK        -0.0205 
     16 S16         4.2457  -21.0594  -47.0107 S.3       23 UNK        -0.2404 
     17 C17         2.4632  -21.4081  -47.1258 C.3       23 UNK        -0.0398 
     18 CA          2.0897  -22.8056  -46.5810 C.3       11 UNK         0.1400 
     19 N           2.2394  -22.8684  -45.1287 N.am      11 UNK        -0.5000 
     20 C           2.4765  -23.9710  -44.4113 C.2       10 UNK         0.5000 
     21 O           2.6401  -25.0866  -44.9098 O.2       10 UNK        -0.5000 
     22 CA          2.5408  -23.7759  -42.8796 C.3       10 UNK         0.1400 
     23 CB          3.1328  -24.9868  -42.1286 C.3       10 UNK        -0.1800 
     24 N           3.2150  -22.5286  -42.5001 N.am      10 UNK        -0.5000 
     25 C           4.4965  -22.1877  -42.7022 C.2       9 UNK         0.5000 
     26 O           5.3477  -22.9514  -43.1594 O.2       9 UNK        -0.5000 
     27 CA          4.9033  -20.7401  -42.3505 C.3       9 UNK         0.1400 
     28 CB          5.1189  -19.9178  -43.6296 C.3       9 UNK        -0.1800 
     29 N           3.9320  -20.0369  -41.5096 N.am      9 UNK        -0.5000 
     30 C           3.7735  -20.2272  -40.1932 C.2       8 UNK         0.5000 
     31 O           4.4547  -21.0074  -39.5271 O.2       8 UNK        -0.5000 
     32 CA          2.6454  -19.4275  -39.5131 C.3       8 UNK         0.1400 
     33 CB          3.1195  -18.0152  -39.1377 C.3       8 UNK        -0.1800 
     34 N           1.4476  -19.3329  -40.3492 N.am      8 UNK        -0.5000 
     35 C           0.6413  -20.3658  -40.6325 C.2       7 UNK         0.5000 
     36 O           0.7937  -21.4995  -40.1773 O.2       7 UNK        -0.5000 
     37 CA         -0.5042  -20.0987  -41.6242 C.3       7 UNK         0.1400 
     38 CB         -1.7222  -19.5057  -40.9009 C.3       7 UNK        -0.1800 
     39 N          -0.1047  -19.2192  -42.7233 N.am      7 UNK        -0.5000 
     40 C           0.8068  -19.5397  -43.6519 C.2       6 UNK         0.5000 
     41 O           1.3869  -20.6213  -43.6915 O.2       6 UNK        -0.5000 
     42 CA          1.1635  -18.4700  -44.6945 C.3       6 UNK         0.1400 
     43 CB          0.1423  -18.4672  -45.8375 C.3       6 UNK        -0.1800 
     44 N           1.2580  -17.1304  -44.1287 N.am      6 UNK        -0.5000 
     45 C           2.1184  -16.7511  -43.1759 C.2       5 UNK         0.5000 
     46 O           2.9593  -17.4953  -42.6717 O.2       5 UNK        -0.5000 
     47 CA          1.9694  -15.3075  -42.6713 C.3       5 UNK         0.1400 
     48 CB          2.6243  -14.3157  -43.6452 C.3       5 UNK        -0.1800 
     49 N           0.5626  -14.9526  -42.4832 N.am      5 UNK        -0.5000 
     50 C          -0.2141  -15.4385  -41.5051 C.2       4 UNK         0.5000 
     51 O           0.1874  -16.2037  -40.6273 O.2       4 UNK        -0.5000 
     52 CA         -1.6961  -15.0203  -41.5357 C.3       4 UNK         0.1400 
     53 CB         -1.8805  -13.6265  -40.9168 C.3       4 UNK        -0.1800 
     54 N          -2.2621  -15.0309  -42.8872 N.am      4 UNK        -0.5000 
     55 C          -2.4652  -16.1435  -43.6061 C.2       3 UNK         0.5000 
     56 O          -2.1939  -17.2732  -43.2046 O.2       3 UNK        -0.5000 
     57 CA         -3.0316  -15.9687  -45.0274 C.3       3 UNK         0.1400 
     58 CB         -4.5651  -15.8940  -44.9939 C.3       3 UNK        -0.1800 
     59 N          -2.4998  -14.8166  -45.7624 N.am      3 UNK        -0.5000 
     60 C          -1.2027  -14.6029  -46.0197 C.2       2 UNK         0.5000 
     61 O          -0.2846  -15.2632  -45.5312 O.2       2 UNK        -0.5000 
     62 CA         -0.8625  -13.4456  -46.9730 C.3       2 UNK         0.1400 
     63 CB         -0.4271  -12.2083  -46.1734 C.3       2 UNK        -0.1800 
     64 N           0.2102  -13.8225  -47.8961 N.am      2 UNK        -0.5000 
     65 C           0.1062  -14.7705  -48.8383 C.2       1 UNK         0.5000 
     66 O          -0.9351  -15.3868  -49.0754 O.2       1 UNK        -0.5000 
     67 C           0.6441  -23.1393  -46.9929 C.2       11 UNK         0.5000 
     68 O          -0.2979  -22.8689  -46.2433 O.2       11 UNK        -0.5000 
     69 N           0.4953  -23.6441  -48.2263 N.am      12 UNK        -0.5000 
     70 CA         -0.7867  -23.9451  -48.8717 C.3       12 UNK         0.1400 
     71 CB         -0.5196  -24.6465  -50.2117 C.3       12 UNK        -0.1800 
     72 C          -1.6822  -22.7104  -49.0918 C.2       12 UNK         0.5000 
     73 O          -2.9035  -22.8550  -49.1229 O.2       12 UNK        -0.5000 
     74 N          -1.0685  -21.5223  -49.1991 N.am      13 UNK        -0.5000 
     75 CA         -1.7211  -20.2225  -49.3830 C.3       13 UNK         0.1400 
     76 CB         -0.6445  -19.1252  -49.4111 C.3       13 UNK        -0.1800 
     77 C          -2.7979  -19.8947  -48.3279 C.2       13 UNK         0.5000 
     78 O          -3.7942  -19.2556  -48.6618 O.2       13 UNK        -0.5000 
     79 N          -2.6083  -20.3696  -47.0876 N.am      14 UNK        -0.5000 
     80 CA         -3.5670  -20.2069  -45.9925 C.3       14 UNK         0.1400 
     81 CB         -2.8856  -20.5635  -44.6647 C.3       14 UNK        -0.1800 
     82 C          -4.8470  -21.0433  -46.1754 C.2       14 UNK         0.5000 
     83 O          -5.9160  -20.6122  -45.7428 O.2       14 UNK        -0.5000 
     84 N          -4.7174  -22.2180  -46.8056 N.am      15 UNK        -0.5000 
     85 CA         -5.8299  -23.1156  -47.1116 C.3       15 UNK         0.1400 
     86 CB         -5.3165  -24.5636  -47.1580 C.3       15 UNK        -0.1800 
     87 C          -6.5065  -22.7330  -48.4378 C.2       15 UNK         0.5000 
     88 O          -7.7338  -22.7763  -48.5292 O.2       15 UNK        -0.5000 
     89 N          -5.6923  -22.3667  -49.4365 N.am      16 UNK        -0.5000 
     90 CA         -6.1258  -21.9513  -50.7688 C.3       16 UNK         0.1400 
     91 CB         -4.8987  -21.8997  -51.6902 C.3       16 UNK        -0.1800 
     92 C          -6.8691  -20.6029  -50.7586 C.2       16 UNK         0.5000 
     93 O          -7.8933  -20.4678  -51.4303 O.2       16 UNK        -0.5000 
     94 N          -6.3576  -19.6441  -49.9711 N.am      17 UNK        -0.5000 
     95 CA         -6.8491  -18.2744  -49.8230 C.3       17 UNK         0.1400 
     96 CB         -8.2010  -18.2600  -49.0741 C.3       17 UNK        -0.1800 
     97 C          -6.8526  -17.5372  -51.1785 C.2       17 UNK         0.5000 
     98 O          -5.8018  -17.4523  -51.8145 O.2       17 UNK        -0.5000 
     99 N          -8.0134  -17.0237  -51.6024 N.am      18 UNK        -0.5000 
    100 CA        -8.1955  -16.3244  -52.8755 C.3       18 UNK         0.1400 
    101 CB        -9.4310  -15.4169  -52.7589 C.3       18 UNK        -0.1800 
    102 C         -8.3328  -17.2675  -54.0897 C.2       18 UNK         0.5000 
    103 O         -8.2516  -16.7919  -55.2236 O.2       18 UNK        -0.5000 
    104 N         -8.5673  -18.5638  -53.8496 N.am      19 UNK        -0.5000 
    105 CA        -8.7391  -19.5850  -54.8813 C.3       19 UNK         0.1400 
    106 CB        -9.8247  -20.5687  -54.4108 C.3       19 UNK        -0.1800 
    107 C         -7.4191  -20.3262  -55.1587 C.2       19 UNK         0.5000 
    108 O         -6.4657  -20.2069  -54.3870 O.2       19 UNK        -0.5000 
    109 N         -7.4146  -21.1089  -56.2484 N.am      20 UNK        -0.5000 
    110 CA        -6.3471  -22.0177  -56.6848 C.3       20 UNK         0.1400 
    111 CB        -6.2777  -23.2343  -55.7328 C.3       20 UNK        -0.1800 
    112 C         -4.9857  -21.3125  -56.8887 C.2       20 UNK         0.5000 
    113 O         -4.9534  -20.1423  -57.2784 O.2       20 UNK        -0.5000 
    114 N         -3.8862  -22.0364  -56.6465 N.am      21 UNK        -0.5000 
    115 CA        -2.5346  -21.4879  -56.5884 C.3       21 UNK         0.1400 
    116 CB        -1.5194  -22.6183  -56.8185 C.3       21 UNK        -0.1800 
    117 C         -2.3072  -20.8240  -55.2201 C.2       21 UNK         0.5000 
    118 O         -2.6860  -21.4050  -54.2025 O.2       21 UNK        -0.5000 
    119 N         -1.6970  -19.6333  -55.2395 N.am      22 UNK        -0.5000 
    120 CA        -1.3251  -18.7724  -54.0986 C.3       22 UNK         0.1400 
    121 C         -2.4351  -18.3616  -53.0811 C.2       22 UNK         0.5000 
    122 N         -3.7040  -18.6723  -53.3028 N.am      22 UNK        -0.7600 
    123 O         -2.1452  -17.6742  -52.1075 O.2       22 UNK        -0.5000 
    124 C124        0.0343  -19.1461  -53.4380 C.3       23 UNK        -0.0398 
    125 S125        0.1566  -20.7998  -52.6699 S.3       23 UNK        -0.2404 
    126 C126        1.9379  -21.1453  -52.8406 C.3       23 UNK        -0.0205 
    127 H127        0.7168  -16.1004  -53.4684 H         1 UNK         0.0600 
    128 H128        0.6625  -14.4584  -54.1053 H         1 UNK         0.0600 
    129 H129       -0.7929  -15.1822  -53.4105 H         1 UNK         0.0600 
    130 H130        1.0395  -16.4082  -51.2366 H         1 UNK         0.3000 
    131 H131        2.0005  -14.1840  -49.6392 H         1 UNK         0.0600 
    132 H132        2.1168  -16.1799  -47.8750 H         1 UNK         0.0800 
    133 H133        1.8144  -17.2148  -49.2396 H         1 UNK         0.0800 
    134 H134        5.1734  -16.8828  -51.2744 H         1 UNK         0.0800 
    135 H135        3.5159  -16.5222  -51.6675 H         1 UNK         0.0800 
    136 H136        2.6395  -18.5087  -52.6075 H         1 UNK         0.1150 
    137 H137        3.1482  -22.3094  -50.6961 H         1 UNK         0.1150 
    138 H138        5.0713  -18.8316  -49.0957 H         1 UNK         0.1150 
    139 H139        4.6193  -22.5691  -48.8516 H         1 UNK         0.0800 
    140 H140        5.8954  -21.3852  -48.7314 H         1 UNK         0.0800 
    141 H141        2.1434  -21.2839  -48.1602 H         1 UNK         0.0800 
    142 H142        1.9406  -20.6347  -46.5673 H         1 UNK         0.0800 
    143 H143        2.7509  -23.5466  -47.0359 H         1 UNK         0.0600 
    144 H144        2.0385  -22.0085  -44.6216 H         1 UNK         0.3000 
    145 H145        1.5067  -23.6639  -42.5503 H         1 UNK         0.0600 
    146 H146        3.1576  -24.8092  -41.0534 H         1 UNK         0.0600 
    147 H147        2.5303  -25.8803  -42.2957 H         1 UNK         0.0600 
    148 H148        4.1477  -25.2138  -42.4557 H         1 UNK         0.0600 
    149 H149        2.5984  -21.7929  -42.1804 H         1 UNK         0.3000 
    150 H150        5.8536  -20.7899  -41.8151 H         1 UNK         0.0600 
    151 H151        5.8545  -20.3891  -44.2825 H         1 UNK         0.0600 
    152 H152        5.4820  -18.9160  -43.3993 H         1 UNK         0.0600 
    153 H153        4.1934  -19.8149  -44.1966 H         1 UNK         0.0600 
    154 H154        3.3731  -19.3224  -41.9661 H         1 UNK         0.3000 
    155 H155        2.3762  -19.9489  -38.5921 H         1 UNK         0.0600 
    156 H156        3.9889  -18.0579  -38.4806 H         1 UNK         0.0600 
    157 H157        2.3394  -17.4650  -38.6111 H         1 UNK         0.0600 
    158 H158        3.4009  -17.4346  -40.0165 H         1 UNK         0.0600 
    159 H159        1.2488  -18.4321  -40.7646 H         1 UNK         0.3000 
    160 H160       -0.8000  -21.0579  -42.0545 H         1 UNK         0.0600 
    161 H161       -1.5122  -18.5099  -40.5090 H         1 UNK         0.0600 
    162 H162       -2.0251  -20.1340  -40.0623 H         1 UNK         0.0600 
    163 H163       -2.5776  -19.4278  -41.5718 H         1 UNK         0.0600 
    164 H164       -0.6005  -18.3362  -42.8010 H         1 UNK         0.3000 
    165 H165        2.1419  -18.7221  -45.1074 H         1 UNK         0.0600 
    166 H166        0.4698  -17.8234  -46.6535 H         1 UNK         0.0600 
    167 H167       -0.0058  -19.4700  -46.2360 H         1 UNK         0.0600 
    168 H168       -0.8292  -18.1085  -45.5040 H         1 UNK         0.0600 
    169 H169        0.6233  -16.4338  -44.5157 H         1 UNK         0.3000 
    170 H170        2.4798  -15.2316  -41.7088 H         1 UNK         0.0600 
    171 H171        3.6809  -14.5480  -43.7842 H         1 UNK         0.0600 
    172 H172        2.1520  -14.3389  -44.6280 H         1 UNK         0.0600 
    173 H173        2.5628  -13.2948  -43.2682 H         1 UNK         0.0600 
    174 H174        0.1382  -14.3830  -43.2004 H         1 UNK         0.3000 
    175 H175       -2.2539  -15.7373  -40.9292 H         1 UNK         0.0600 
    176 H176       -1.4804  -13.5943  -39.9025 H         1 UNK         0.0600 
    177 H177       -1.3701  -12.8558  -41.4959 H         1 UNK         0.0600 
    178 H178       -2.9355  -13.3584  -40.8572 H         1 UNK         0.0600 
    179 H179       -2.5034  -14.1397  -43.2948 H         1 UNK         0.3000 
    180 H180       -2.7604  -16.8598  -45.5954 H         1 UNK         0.0600 
    181 H181       -4.9865  -16.7534  -44.4703 H         1 UNK         0.0600 
    182 H182       -4.9140  -14.9948  -44.4847 H         1 UNK         0.0600 
    183 H183       -4.9824  -15.8947  -46.0011 H         1 UNK         0.0600 
    184 H184       -3.1843  -14.2095  -46.1895 H         1 UNK         0.3000 
    185 H185       -1.7471  -13.1927  -47.5611 H         1 UNK         0.0600 
    186 H186       -1.2142  -11.8876  -45.4896 H         1 UNK         0.0600 
    187 H187        0.4647  -12.4065  -45.5771 H         1 UNK         0.0600 
    188 H188       -0.2098  -11.3682  -46.8333 H         1 UNK         0.0600 
    189 H189        1.1037  -13.3792  -47.7416 H         1 UNK         0.3000 
    190 H190        1.3190  -23.8418  -48.7759 H         1 UNK         0.3000 
    191 H191       -1.3337  -24.6336  -48.2243 H         1 UNK         0.0600 
    192 H192        0.0434  -24.0086  -50.8948 H         1 UNK         0.0600 
    193 H193       -1.4551  -24.9104  -50.7073 H         1 UNK         0.0600 
    194 H194        0.0429  -25.5696  -50.0705 H         1 UNK         0.0600 
    195 H195       -0.0611  -21.5155  -49.1962 H         1 UNK         0.3000 
    196 H196       -2.2146  -20.2368  -50.3565 H         1 UNK         0.0600 
    197 H197       -1.0947  -18.1323  -49.4504 H         1 UNK         0.0600 
    198 H198       -0.0030  -19.2172  -50.2851 H         1 UNK         0.0600 
    199 H199       -0.0015  -19.1651  -48.5354 H         1 UNK         0.0600 
    200 H200       -1.7888  -20.9302  -46.8982 H         1 UNK         0.3000 
    201 H201       -3.8639  -19.1568  -45.9496 H         1 UNK         0.0600 
    202 H202       -2.0631  -19.8839  -44.4595 H         1 UNK         0.0600 
    203 H203       -2.4906  -21.5803  -44.6697 H         1 UNK         0.0600 
    204 H204       -3.5822  -20.4818  -43.8293 H         1 UNK         0.0600 
    205 H205       -3.8161  -22.4691  -47.1905 H         1 UNK         0.3000 
    206 H206       -6.5783  -23.0507  -46.3187 H         1 UNK         0.0600 
    207 H207       -4.8744  -24.8547  -46.2051 H         1 UNK         0.0600 
    208 H208       -6.1313  -25.2586  -47.3644 H         1 UNK         0.0600 
    209 H209       -4.5624  -24.7033  -47.9333 H         1 UNK         0.0600 
    210 H210       -4.6876  -22.4179  -49.2853 H         1 UNK         0.3000 
    211 H211       -6.8100  -22.7100  -51.1542 H         1 UNK         0.0600 
    212 H212       -5.1869  -21.6737  -52.7154 H         1 UNK         0.0600 
    213 H213       -4.3723  -22.8540  -51.7080 H         1 UNK         0.0600 
    214 H214       -4.1891  -21.1335  -51.3773 H         1 UNK         0.0600 
    215 H215       -5.4797  -19.8251  -49.4943 H         1 UNK         0.3000 
    216 H216       -6.1216  -17.7547  -49.1980 H         1 UNK         0.0600 
    217 H217       -8.5278  -17.2400  -48.8688 H         1 UNK         0.0600 
    218 H218       -8.1131  -18.7651  -48.1118 H         1 UNK         0.0600 
    219 H219       -8.9916  -18.7602  -49.6342 H         1 UNK         0.0600 
    220 H220       -8.8372  -17.1510  -51.0329 H         1 UNK         0.3000 
    221 H221       -7.3258  -15.6887  -53.0552 H         1 UNK         0.0600 
    222 H222      -10.3385  -15.9943  -52.5781 H         1 UNK         0.0600 
    223 H223       -9.3196  -14.7008  -51.9445 H         1 UNK         0.0600 
    224 H224       -9.5841  -14.8433  -53.6740 H         1 UNK         0.0600 
    225 H225       -8.5029  -18.9078  -52.8990 H         1 UNK         0.3000 
    226 H226       -9.0750  -19.1237  -55.8124 H         1 UNK         0.0600 
    227 H227      -10.7595  -20.0504  -54.1964 H         1 UNK         0.0600 
    228 H228      -10.0392  -21.3172  -55.1742 H         1 UNK         0.0600 
    229 H229       -9.5227  -21.1005  -53.5079 H         1 UNK         0.0600 
    230 H230       -8.2352  -21.1032  -56.8374 H         1 UNK         0.3000 
    231 H231       -6.6454  -22.3840  -57.6679 H         1 UNK         0.0600 
    232 H232       -7.2660  -23.6682  -55.5798 H         1 UNK         0.0600 
    233 H233       -5.8833  -22.9598  -54.7535 H         1 UNK         0.0600 
    234 H234       -5.6467  -24.0259  -56.1382 H         1 UNK         0.0600 
    235 H235       -3.9985  -22.9729  -56.2873 H         1 UNK         0.3000 
    236 H236       -2.4104  -20.7472  -57.3814 H         1 UNK         0.0600 
    237 H237       -1.6670  -23.0898  -57.7903 H         1 UNK         0.0600 
    238 H238       -0.4985  -22.2349  -56.7938 H         1 UNK         0.0600 
    239 H239       -1.5968  -23.3923  -56.0537 H         1 UNK         0.0600 
    240 H240       -1.4608  -19.2487  -56.1428 H         1 UNK         0.3000 
    241 H241       -1.1319  -17.8185  -54.5912 H         1 UNK         0.0600 
    242 H242       -3.9704  -19.2888  -54.0547 H         1 UNK         0.3800 
    243 H243       -4.4185  -18.3153  -52.6726 H         1 UNK         0.3800 
    244 H244        0.8104  -19.0675  -54.1997 H         1 UNK         0.0800 
    245 H245        0.2982  -18.4084  -52.6802 H         1 UNK         0.0800 
    246 H246        2.0750  -22.2270  -52.8042 H         1 UNK         0.0800 
    247 H247        2.2895  -20.8374  -53.8260 H         1 UNK         0.0800 
@<TRIPOS>BOND
     1    1    2 1    
     2    1  127 1    
     3    1  128 1    
     4    1  129 1    
     5    2    3 2    
     6    2    4 am   BACKBONE|DICT|INTERRES
     7    4    5 1    
     8    4  130 1    
     9    5    6 1    
    10    5   65 1    
    11    5  131 1    
    12    6    7 1    
    13    6  132 1    
    14    6  133 1    
    15    7    8 1    
    16    8    9 1    
    17    8  134 1    
    18    8  135 1    
    19    9   10 ar   
    20    9   14 ar   
    21   10   11 ar   
    22   10  136 1    
    23   11   12 ar   
    24   11  126 1    
    25   12   13 ar   
    26   12  137 1    
    27   13   14 ar   
    28   13   15 1    
    29   14  138 1    
    30   15   16 1    
    31   15  139 1    
    32   15  140 1    
    33   16   17 1    
    34   17   18 1    
    35   17  141 1    
    36   17  142 1    
    37   18   19 1    
    38   18   67 1    
    39   18  143 1    
    40   19   20 am   BACKBONE|DICT|INTERRES
    41   19  144 1    
    42   20   21 2    
    43   20   22 1    
    44   22   23 1    
    45   22   24 1    
    46   22  145 1    
    47   23  146 1    
    48   23  147 1    
    49   23  148 1    
    50   24   25 am   BACKBONE|DICT|INTERRES
    51   24  149 1    
    52   25   26 2    
    53   25   27 1    
    54   27   28 1    
    55   27   29 1    
    56   27  150 1    
    57   28  151 1    
    58   28  152 1    
    59   28  153 1    
    60   29   30 am   BACKBONE|DICT|INTERRES
    61   29  154 1    
    62   30   31 2    
    63   30   32 1    
    64   32   33 1    
    65   32   34 1    
    66   32  155 1    
    67   33  156 1    
    68   33  157 1    
    69   33  158 1    
    70   34   35 am   BACKBONE|DICT|INTERRES
    71   34  159 1    
    72   35   36 2    
    73   35   37 1    
    74   37   38 1    
    75   37   39 1    
    76   37  160 1    
    77   38  161 1    
    78   38  162 1    
    79   38  163 1    
    80   39   40 am   BACKBONE|DICT|INTERRES
    81   39  164 1    
    82   40   41 2    
    83   40   42 1    
    84   42   43 1    
    85   42   44 1    
    86   42  165 1    
    87   43  166 1    
    88   43  167 1    
    89   43  168 1    
    90   44   45 am   BACKBONE|DICT|INTERRES
    91   44  169 1    
    92   45   46 2    
    93   45   47 1    
    94   47   48 1    
    95   47   49 1    
    96   47  170 1    
    97   48  171 1    
    98   48  172 1    
    99   48  173 1    
   100   49   50 am   BACKBONE|DICT|INTERRES
   101   49  174 1    
   102   50   51 2    
   103   50   52 1    
   104   52   53 1    
   105   52   54 1    
   106   52  175 1    
   107   53  176 1    
   108   53  177 1    
   109   53  178 1    
   110   54   55 am   BACKBONE|DICT|INTERRES
   111   54  179 1    
   112   55   56 2    
   113   55   57 1    
   114   57   58 1    
   115   57   59 1    
   116   57  180 1    
   117   58  181 1    
   118   58  182 1    
   119   58  183 1    
   120   59   60 am   BACKBONE|DICT|INTERRES
   121   59  184 1    
   122   60   61 2    
   123   60   62 1    
   124   62   63 1    
   125   62   64 1    
   126   62  185 1    
   127   63  186 1    
   128   63  187 1    
   129   63  188 1    
   130   64   65 am   BACKBONE|DICT|INTERRES
   131   64  189 1    
   132   65   66 2    
   133   67   68 2    
   134   67   69 am   BACKBONE|DICT|INTERRES
   135   69   70 1    
   136   69  190 1    
   137   70   71 1    
   138   70   72 1    
   139   70  191 1    
   140   71  192 1    
   141   71  193 1    
   142   71  194 1    
   143   72   73 2    
   144   72   74 am   BACKBONE|DICT|INTERRES
   145   74   75 1    
   146   74  195 1    
   147   75   76 1    
   148   75   77 1    
   149   75  196 1    
   150   76  197 1    
   151   76  198 1    
   152   76  199 1    
   153   77   78 2    
   154   77   79 am   BACKBONE|DICT|INTERRES
   155   79   80 1    
   156   79  200 1    
   157   80   81 1    
   158   80   82 1    
   159   80  201 1    
   160   81  202 1    
   161   81  203 1    
   162   81  204 1    
   163   82   83 2    
   164   82   84 am   BACKBONE|DICT|INTERRES
   165   84   85 1    
   166   84  205 1    
   167   85   86 1    
   168   85   87 1    
   169   85  206 1    
   170   86  207 1    
   171   86  208 1    
   172   86  209 1    
   173   87   88 2    
   174   87   89 am   BACKBONE|DICT|INTERRES
   175   89   90 1    
   176   89  210 1    
   177   90   91 1    
   178   90   92 1    
   179   90  211 1    
   180   91  212 1    
   181   91  213 1    
   182   91  214 1    
   183   92   93 2    
   184   92   94 am   BACKBONE|DICT|INTERRES
   185   94   95 1    
   186   94  215 1    
   187   95   96 1    
   188   95   97 1    
   189   95  216 1    
   190   96  217 1    
   191   96  218 1    
   192   96  219 1    
   193   97   98 2    
   194   97   99 am   BACKBONE|DICT|INTERRES
   195   99  100 1    
   196   99  220 1    
   197  100  101 1    
   198  100  102 1    
   199  100  221 1    
   200  101  222 1    
   201  101  223 1    
   202  101  224 1    
   203  102  103 2    
   204  102  104 am   BACKBONE|DICT|INTERRES
   205  104  105 1    
   206  104  225 1    
   207  105  106 1    
   208  105  107 1    
   209  105  226 1    
   210  106  227 1    
   211  106  228 1    
   212  106  229 1    
   213  107  108 2    
   214  107  109 am   BACKBONE|DICT|INTERRES
   215  109  110 1    
   216  109  230 1    
   217  110  111 1    
   218  110  112 1    
   219  110  231 1    
   220  111  232 1    
   221  111  233 1    
   222  111  234 1    
   223  112  113 2    
   224  112  114 am   BACKBONE|DICT|INTERRES
   225  114  115 1    
   226  114  235 1    
   227  115  116 1    
   228  115  117 1    
   229  115  236 1    
   230  116  237 1    
   231  116  238 1    
   232  116  239 1    
   233  117  118 2    
   234  117  119 am   BACKBONE|DICT|INTERRES
   235  119  120 1    
   236  119  240 1    
   237  120  121 1    
   238  120  124 1    
   239  120  241 1    
   240  121  122 am   BACKBONE|DICT|INTERRES
   241  121  123 2    
   242  122  242 1    
   243  122  243 1    
   244  124  125 1    
   245  124  244 1    
   246  124  245 1    
   247  125  126 1    
   248  126  246 1    
   249  126  247 1    
@<TRIPOS>SUBSTRUCTURE
     1 UNK         1 GROUP             0       ****    0 ROOT    
