@<TRIPOS>MOLECULE
3R540
247   249    1
SMALL
USER_CHARGES


@<TRIPOS>ATOM
      1 CA          5.8578  -12.4933  -45.6296 C.3       0 UNK        -0.1800 
      2 C           5.6444  -13.6884  -46.5476 C.2       0 UNK         0.5000 
      3 O           5.7975  -14.8293  -46.1136 O.2       0 UNK        -0.5000 
      4 N           5.2900  -13.4299  -47.8093 N.am      1 UNK        -0.5000 
      5 CA          4.9808  -14.4288  -48.8270 C.3       1 UNK         0.1400 
      6 C6          6.2678  -15.0622  -49.4326 C.3       23 UNK        -0.0398 
      7 S7          6.0135  -16.2340  -50.8181 S.3       23 UNK        -0.2404 
      8 C8          5.8121  -17.8336  -49.9633 C.3       23 UNK        -0.0205 
      9 C9          4.6244  -17.8205  -49.0132 C.ar      23 UNK        -0.0193 
     10 C10         3.3320  -17.6212  -49.5049 C.ar      23 UNK        -0.1150 
     11 C11         2.2461  -17.4888  -48.6308 C.ar      23 UNK        -0.0193 
     12 C12         2.4665  -17.5975  -47.2545 C.ar      23 UNK        -0.1150 
     13 C13         3.7494  -17.8395  -46.7508 C.ar      23 UNK        -0.0193 
     14 C14         4.8235  -17.9462  -47.6373 C.ar      23 UNK        -0.1150 
     15 C15         4.0038  -17.9459  -45.2512 C.3       23 UNK        -0.0205 
     16 S16         2.8292  -19.0348  -44.3825 S.3       23 UNK        -0.2404 
     17 C17         2.8953  -20.5646  -45.3783 C.3       23 UNK        -0.0398 
     18 CA          2.8657  -21.8547  -44.5234 C.3       11 UNK         0.1400 
     19 N           1.7190  -21.8867  -43.6067 N.am      11 UNK        -0.5000 
     20 C           1.5665  -22.7400  -42.5840 C.2       10 UNK         0.5000 
     21 O           2.4243  -23.5499  -42.2317 O.2       10 UNK        -0.5000 
     22 CA          0.2032  -22.7157  -41.8710 C.3       10 UNK         0.1400 
     23 CB          0.1937  -21.6793  -40.7364 C.3       10 UNK        -0.1800 
     24 N          -0.8810  -22.4291  -42.8138 N.am      10 UNK        -0.5000 
     25 C          -1.4183  -23.3346  -43.6427 C.2       9 UNK         0.5000 
     26 O          -1.1071  -24.5254  -43.6420 O.2       9 UNK        -0.5000 
     27 CA         -2.4534  -22.8325  -44.6668 C.3       9 UNK         0.1400 
     28 CB         -3.8770  -22.9434  -44.1028 C.3       9 UNK        -0.1800 
     29 N          -2.2135  -21.4589  -45.1163 N.am      9 UNK        -0.5000 
     30 C          -1.2248  -21.0951  -45.9450 C.2       8 UNK         0.5000 
     31 O          -0.4286  -21.8895  -46.4461 O.2       8 UNK        -0.5000 
     32 CA         -1.0842  -19.5920  -46.2544 C.3       8 UNK         0.1400 
     33 CB         -1.9710  -19.2068  -47.4462 C.3       8 UNK        -0.1800 
     34 N          -1.3865  -18.6833  -45.1460 N.am      8 UNK        -0.5000 
     35 C          -0.9121  -18.7457  -43.8940 C.2       7 UNK         0.5000 
     36 O          -0.2841  -19.7045  -43.4496 O.2       7 UNK        -0.5000 
     37 CA         -1.1665  -17.5357  -42.9792 C.3       7 UNK         0.1400 
     38 CB          0.1495  -16.7843  -42.7284 C.3       7 UNK        -0.1800 
     39 N          -2.1401  -16.5998  -43.5433 N.am      7 UNK        -0.5000 
     40 C          -3.4590  -16.6397  -43.3112 C.2       6 UNK         0.5000 
     41 O          -4.0014  -17.4773  -42.5900 O.2       6 UNK        -0.5000 
     42 CA         -4.3197  -15.5622  -43.9994 C.3       6 UNK         0.1400 
     43 CB         -4.5268  -14.3627  -43.0622 C.3       6 UNK        -0.1800 
     44 N          -3.7443  -15.0877  -45.2595 N.am      6 UNK        -0.5000 
     45 C          -3.7211  -15.8009  -46.3930 C.2       5 UNK         0.5000 
     46 O          -4.2064  -16.9259  -46.5020 O.2       5 UNK        -0.5000 
     47 CA         -3.0138  -15.1616  -47.6013 C.3       5 UNK         0.1400 
     48 CB         -4.0085  -14.3409  -48.4337 C.3       5 UNK        -0.1800 
     49 N          -1.8749  -14.3105  -47.2510 N.am      5 UNK        -0.5000 
     50 C          -0.7579  -14.6978  -46.6227 C.2       4 UNK         0.5000 
     51 O          -0.5883  -15.8411  -46.1982 O.2       4 UNK        -0.5000 
     52 CA          0.3423  -13.6246  -46.4473 C.3       4 UNK         0.1400 
     53 CB          1.6650  -14.2041  -45.9138 C.3       4 UNK        -0.1800 
     54 N           0.6322  -12.8996  -47.6863 N.am      4 UNK        -0.5000 
     55 C          -0.1163  -11.9431  -48.2530 C.2       3 UNK         0.5000 
     56 O          -1.1830  -11.5480  -47.7812 O.2       3 UNK        -0.5000 
     57 CA          0.3992  -11.3479  -49.5778 C.3       3 UNK         0.1400 
     58 CB          1.0958  -10.0025  -49.3255 C.3       3 UNK        -0.1800 
     59 N           1.3296  -12.2374  -50.2753 N.am      3 UNK        -0.5000 
     60 C           0.9929  -13.3665  -50.9093 C.2       2 UNK         0.5000 
     61 O          -0.1654  -13.7658  -51.0224 O.2       2 UNK        -0.5000 
     62 CA          2.1474  -14.2163  -51.4704 C.3       2 UNK         0.1400 
     63 CB          2.7619  -13.5819  -52.7322 C.3       2 UNK        -0.1800 
     64 N           3.1732  -14.5488  -50.4721 N.am      2 UNK        -0.5000 
     65 C           4.0558  -13.7508  -49.8551 C.2       1 UNK         0.5000 
     66 O           4.1325  -12.5317  -50.0358 O.2       1 UNK        -0.5000 
     67 C           2.9069  -23.0934  -45.4497 C.2       11 UNK         0.5000 
     68 O           3.9721  -23.4150  -45.9770 O.2       11 UNK        -0.5000 
     69 N           1.7489  -23.7488  -45.6291 N.am      12 UNK        -0.5000 
     70 CA          1.4792  -24.8989  -46.4941 C.3       12 UNK         0.1400 
     71 CB          2.2740  -26.1393  -46.0362 C.3       12 UNK        -0.1800 
     72 C           1.6721  -24.5595  -47.9849 C.2       12 UNK         0.5000 
     73 O           2.2912  -25.3262  -48.7269 O.2       12 UNK        -0.5000 
     74 N           1.1336  -23.4052  -48.4006 N.am      13 UNK        -0.5000 
     75 CA          1.1769  -22.8901  -49.7701 C.3       13 UNK         0.1400 
     76 CB          0.9613  -21.3664  -49.7297 C.3       13 UNK        -0.1800 
     77 C           0.1737  -23.6217  -50.6911 C.2       13 UNK         0.5000 
     78 O          -0.7782  -23.0111  -51.1793 O.2       13 UNK        -0.5000 
     79 N           0.4168  -24.9247  -50.8919 N.am      14 UNK        -0.5000 
     80 CA         -0.4058  -25.9126  -51.6009 C.3       14 UNK         0.1400 
     81 CB         -0.7050  -25.4708  -53.0511 C.3       14 UNK        -0.1800 
     82 C          -1.6743  -26.3086  -50.8127 C.2       14 UNK         0.5000 
     83 O          -1.8108  -25.9683  -49.6350 O.2       14 UNK        -0.5000 
     84 N          -2.5593  -27.0798  -51.4568 N.am      15 UNK        -0.5000 
     85 CA         -3.8300  -27.5341  -50.8919 C.3       15 UNK         0.1400 
     86 CB         -4.3300  -28.7460  -51.6934 C.3       15 UNK        -0.1800 
     87 C          -4.8779  -26.4073  -50.9080 C.2       15 UNK         0.5000 
     88 O          -4.9483  -25.6609  -51.8872 O.2       15 UNK        -0.5000 
     89 N          -5.6785  -26.3255  -49.8331 N.am      16 UNK        -0.5000 
     90 CA         -6.7559  -25.3488  -49.6008 C.3       16 UNK         0.1400 
     91 CB         -7.9335  -25.6016  -50.5649 C.3       16 UNK        -0.1800 
     92 C          -6.2703  -23.8823  -49.6310 C.2       16 UNK         0.5000 
     93 O          -7.0064  -22.9912  -50.0559 O.2       16 UNK        -0.5000 
     94 N          -5.0258  -23.6659  -49.1869 N.am      17 UNK        -0.5000 
     95 CA         -4.2524  -22.4362  -49.3541 C.3       17 UNK         0.1400 
     96 CB         -2.8852  -22.6404  -48.7002 C.3       17 UNK        -0.1800 
     97 C          -4.9149  -21.1630  -48.8019 C.2       17 UNK         0.5000 
     98 O          -4.8224  -20.1134  -49.4365 O.2       17 UNK        -0.5000 
     99 N          -5.5773  -21.2704  -47.6426 N.am      18 UNK        -0.5000 
    100 CA        -6.2785  -20.1520  -47.0064 C.3       18 UNK         0.1400 
    101 CB        -6.5347  -20.4776  -45.5279 C.3       18 UNK        -0.1800 
    102 C         -7.5908  -19.7810  -47.7233 C.2       18 UNK         0.5000 
    103 O         -7.9642  -18.6083  -47.7272 O.2       18 UNK        -0.5000 
    104 N         -8.2544  -20.7728  -48.3349 N.am      19 UNK        -0.5000 
    105 CA        -9.4617  -20.5813  -49.1419 C.3       19 UNK         0.1400 
    106 CB       -10.2355  -21.9054  -49.2359 C.3       19 UNK        -0.1800 
    107 C         -9.1208  -20.0415  -50.5418 C.2       19 UNK         0.5000 
    108 O         -9.8400  -19.1869  -51.0599 O.2       19 UNK        -0.5000 
    109 N         -8.0077  -20.5264  -51.1090 N.am      20 UNK        -0.5000 
    110 CA        -7.4262  -20.0610  -52.3689 C.3       20 UNK         0.1400 
    111 CB        -6.3616  -21.0729  -52.8201 C.3       20 UNK        -0.1800 
    112 C         -6.8154  -18.6473  -52.2748 C.2       20 UNK         0.5000 
    113 O         -6.6696  -17.9895  -53.3055 O.2       20 UNK        -0.5000 
    114 N         -6.4830  -18.2178  -51.0475 N.am      21 UNK        -0.5000 
    115 CA        -5.7957  -16.9787  -50.6787 C.3       21 UNK         0.1400 
    116 CB        -6.6218  -15.7354  -51.0730 C.3       21 UNK        -0.1800 
    117 C         -4.3512  -16.9633  -51.2154 C.2       21 UNK         0.5000 
    118 O         -3.9529  -16.0330  -51.9185 O.2       21 UNK        -0.5000 
    119 N         -3.6044  -18.0185  -50.8672 N.am      22 UNK        -0.5000 
    120 CA        -2.2585  -18.3386  -51.3617 C.3       22 UNK         0.1400 
    121 C         -2.2534  -18.8267  -52.8451 C.2       22 UNK         0.5000 
    122 N         -1.0971  -18.8907  -53.4913 N.am      22 UNK        -0.7600 
    123 O         -3.2801  -19.1940  -53.4116 O.2       22 UNK        -0.5000 
    124 C124       -1.2251  -17.2123  -51.0581 C.3       23 UNK        -0.0398 
    125 S125        0.4540  -17.8629  -50.7690 S.3       23 UNK        -0.2404 
    126 C126        0.8446  -17.1573  -49.1349 C.3       23 UNK        -0.0205 
    127 H127        5.6933  -11.5486  -46.1486 H         1 UNK         0.0600 
    128 H128        6.8763  -12.4955  -45.2412 H         1 UNK         0.0600 
    129 H129        5.1694  -12.5421  -44.7859 H         1 UNK         0.0600 
    130 H130        5.1534  -12.4768  -48.1248 H         1 UNK         0.3000 
    131 H131        4.3934  -15.2066  -48.3394 H         1 UNK         0.0600 
    132 H132        6.9257  -14.2712  -49.7959 H         1 UNK         0.0800 
    133 H133        6.8288  -15.5739  -48.6495 H         1 UNK         0.0800 
    134 H134        5.6657  -18.6186  -50.7064 H         1 UNK         0.0800 
    135 H135        6.7354  -18.0765  -49.4351 H         1 UNK         0.0800 
    136 H136        3.1901  -17.5261  -50.5720 H         1 UNK         0.1150 
    137 H137        1.6390  -17.4790  -46.5681 H         1 UNK         0.1150 
    138 H138        5.8226  -18.0948  -47.2525 H         1 UNK         0.1150 
    139 H139        5.0144  -18.3079  -45.0569 H         1 UNK         0.0800 
    140 H140        3.9459  -16.9467  -44.8176 H         1 UNK         0.0800 
    141 H141        2.0588  -20.5454  -46.0784 H         1 UNK         0.0800 
    142 H142        3.8006  -20.5489  -45.9879 H         1 UNK         0.0800 
    143 H143        3.7734  -21.8767  -43.9166 H         1 UNK         0.0600 
    144 H144        0.9982  -21.1880  -43.7604 H         1 UNK         0.3000 
    145 H145        0.0363  -23.7000  -41.4281 H         1 UNK         0.0600 
    146 H146       -0.7692  -21.6624  -40.2258 H         1 UNK         0.0600 
    147 H147        0.3983  -20.6724  -41.1007 H         1 UNK         0.0600 
    148 H148        0.9535  -21.9155  -39.9905 H         1 UNK         0.0600 
    149 H149       -1.1094  -21.4496  -42.9414 H         1 UNK         0.3000 
    150 H150       -2.3851  -23.4965  -45.5305 H         1 UNK         0.0600 
    151 H151       -4.0681  -23.9445  -43.7139 H         1 UNK         0.0600 
    152 H152       -4.6194  -22.7550  -44.8774 H         1 UNK         0.0600 
    153 H153       -4.0462  -22.2368  -43.2894 H         1 UNK         0.0600 
    154 H154       -2.8096  -20.7386  -44.7360 H         1 UNK         0.3000 
    155 H155       -0.0446  -19.4106  -46.5314 H         1 UNK         0.0600 
    156 H156       -1.6525  -19.7106  -48.3563 H         1 UNK         0.0600 
    157 H157       -1.9267  -18.1385  -47.6466 H         1 UNK         0.0600 
    158 H158       -3.0161  -19.4587  -47.2661 H         1 UNK         0.0600 
    159 H159       -1.8760  -17.8377  -45.4015 H         1 UNK         0.3000 
    160 H160       -1.5281  -17.9155  -42.0214 H         1 UNK         0.0600 
    161 H161        0.5968  -16.4412  -43.6613 H         1 UNK         0.0600 
    162 H162        0.8791  -17.4297  -42.2373 H         1 UNK         0.0600 
    163 H163       -0.0029  -15.9173  -42.0857 H         1 UNK         0.0600 
    164 H164       -1.7763  -15.9118  -44.1885 H         1 UNK         0.3000 
    165 H165       -5.2964  -16.0035  -44.2097 H         1 UNK         0.0600 
    166 H166       -5.1912  -13.6229  -43.5092 H         1 UNK         0.0600 
    167 H167       -4.9791  -14.6766  -42.1204 H         1 UNK         0.0600 
    168 H168       -3.5838  -13.8686  -42.8247 H         1 UNK         0.0600 
    169 H169       -3.3303  -14.1670  -45.2587 H         1 UNK         0.3000 
    170 H170       -2.6418  -15.9754  -48.2242 H         1 UNK         0.0600 
    171 H171       -4.3133  -13.4315  -47.9146 H         1 UNK         0.0600 
    172 H172       -3.5755  -14.0529  -49.3922 H         1 UNK         0.0600 
    173 H173       -4.9120  -14.9130  -48.6416 H         1 UNK         0.0600 
    174 H174       -1.9220  -13.3405  -47.5476 H         1 UNK         0.3000 
    175 H175       -0.0295  -12.9117  -45.7087 H         1 UNK         0.0600 
    176 H176        2.1111  -14.9039  -46.6199 H         1 UNK         0.0600 
    177 H177        2.3930  -13.4146  -45.7263 H         1 UNK         0.0600 
    178 H178        1.5179  -14.7321  -44.9721 H         1 UNK         0.0600 
    179 H179        1.4735  -13.1704  -48.1708 H         1 UNK         0.3000 
    180 H180       -0.4651  -11.1747  -50.2223 H         1 UNK         0.0600 
    181 H181        1.4079   -9.5390  -50.2615 H         1 UNK         0.0600 
    182 H182        1.9802  -10.1190  -48.6976 H         1 UNK         0.0600 
    183 H183        0.4258   -9.3024  -48.8244 H         1 UNK         0.0600 
    184 H184        2.3197  -12.0135  -50.2161 H         1 UNK         0.3000 
    185 H185        1.7132  -15.1709  -51.7715 H         1 UNK         0.0600 
    186 H186        3.5383  -14.2206  -53.1535 H         1 UNK         0.0600 
    187 H187        2.0032  -13.4405  -53.5028 H         1 UNK         0.0600 
    188 H188        3.2044  -12.6062  -52.5305 H         1 UNK         0.0600 
    189 H189        3.2050  -15.5292  -50.2273 H         1 UNK         0.3000 
    190 H190        0.9322  -23.3485  -45.1884 H         1 UNK         0.3000 
    191 H191        0.4192  -25.1268  -46.3710 H         1 UNK         0.0600 
    192 H192        1.9705  -27.0241  -46.5969 H         1 UNK         0.0600 
    193 H193        2.1009  -26.3490  -44.9806 H         1 UNK         0.0600 
    194 H194        3.3470  -26.0136  -46.1823 H         1 UNK         0.0600 
    195 H195        0.6090  -22.8505  -47.7286 H         1 UNK         0.3000 
    196 H196        2.1750  -23.0653  -50.1770 H         1 UNK         0.0600 
    197 H197        1.0049  -20.9393  -50.7321 H         1 UNK         0.0600 
    198 H198        1.7289  -20.8720  -49.1336 H         1 UNK         0.0600 
    199 H199       -0.0066  -21.1071  -49.3043 H         1 UNK         0.0600 
    200 H200        1.1929  -25.3139  -50.3646 H         1 UNK         0.3000 
    201 H201        0.2081  -26.8127  -51.6537 H         1 UNK         0.0600 
    202 H202       -1.4591  -24.6839  -53.0894 H         1 UNK         0.0600 
    203 H203       -1.0733  -26.3030  -53.6512 H         1 UNK         0.0600 
    204 H204        0.1932  -25.0978  -53.5435 H         1 UNK         0.0600 
    205 H205       -2.4001  -27.2982  -52.4292 H         1 UNK         0.3000 
    206 H206       -3.6615  -27.8517  -49.8604 H         1 UNK         0.0600 
    207 H207       -3.6096  -29.5636  -51.6637 H         1 UNK         0.0600 
    208 H208       -5.2676  -29.1247  -51.2842 H         1 UNK         0.0600 
    209 H209       -4.5077  -28.4923  -52.7394 H         1 UNK         0.0600 
    210 H210       -5.5378  -26.9920  -49.0861 H         1 UNK         0.3000 
    211 H211       -7.1178  -25.5244  -48.5869 H         1 UNK         0.0600 
    212 H212       -7.6666  -25.3744  -51.5975 H         1 UNK         0.0600 
    213 H213       -8.7924  -24.9816  -50.3063 H         1 UNK         0.0600 
    214 H214       -8.2615  -26.6401  -50.5237 H         1 UNK         0.0600 
    215 H215       -4.5064  -24.4673  -48.8594 H         1 UNK         0.3000 
    216 H216       -4.1000  -22.2939  -50.4258 H         1 UNK         0.0600 
    217 H217       -2.2247  -21.8020  -48.9078 H         1 UNK         0.0600 
    218 H218       -2.3923  -23.5321  -49.0796 H         1 UNK         0.0600 
    219 H219       -2.9737  -22.7466  -47.6214 H         1 UNK         0.0600 
    220 H220       -5.6203  -22.1689  -47.1855 H         1 UNK         0.3000 
    221 H221       -5.6310  -19.2728  -47.0442 H         1 UNK         0.0600 
    222 H222       -7.1019  -19.6807  -45.0450 H         1 UNK         0.0600 
    223 H223       -5.5972  -20.5759  -44.9816 H         1 UNK         0.0600 
    224 H224       -7.0992  -21.4030  -45.4081 H         1 UNK         0.0600 
    225 H225       -7.8478  -21.6978  -48.3448 H         1 UNK         0.3000 
    226 H226      -10.1048  -19.8506  -48.6465 H         1 UNK         0.0600 
    227 H227      -10.5052  -22.2755  -48.2467 H         1 UNK         0.0600 
    228 H228      -11.1612  -21.7747  -49.7977 H         1 UNK         0.0600 
    229 H229       -9.6562  -22.6803  -49.7377 H         1 UNK         0.0600 
    230 H230       -7.5250  -21.2919  -50.6444 H         1 UNK         0.3000 
    231 H231       -8.2173  -20.0331  -53.1209 H         1 UNK         0.0600 
    232 H232       -5.9359  -20.7893  -53.7835 H         1 UNK         0.0600 
    233 H233       -6.7837  -22.0721  -52.9296 H         1 UNK         0.0600 
    234 H234       -5.5395  -21.1325  -52.1061 H         1 UNK         0.0600 
    235 H235       -6.6011  -18.8802  -50.2931 H         1 UNK         0.3000 
    236 H236       -5.7209  -16.9912  -49.5902 H         1 UNK         0.0600 
    237 H237       -6.7187  -15.6322  -52.1537 H         1 UNK         0.0600 
    238 H238       -7.6249  -15.7802  -50.6489 H         1 UNK         0.0600 
    239 H239       -6.1536  -14.8222  -50.7056 H         1 UNK         0.0600 
    240 H240       -4.0521  -18.7588  -50.3288 H         1 UNK         0.3000 
    241 H241       -1.9786  -19.2190  -50.7822 H         1 UNK         0.0600 
    242 H242       -1.0808  -19.2220  -54.4429 H         1 UNK         0.3800 
    243 H243       -0.2365  -18.6266  -53.0348 H         1 UNK         0.3800 
    244 H244       -1.5286  -16.6547  -50.1725 H         1 UNK         0.0800 
    245 H245       -1.1933  -16.4762  -51.8633 H         1 UNK         0.0800 
    246 H246        0.1070  -17.5126  -48.4178 H         1 UNK         0.0800 
    247 H247        0.7385  -16.0728  -49.1774 H         1 UNK         0.0800 
@<TRIPOS>BOND
     1    1    2 1    
     2    1  127 1    
     3    1  128 1    
     4    1  129 1    
     5    2    3 2    
     6    2    4 am   BACKBONE|DICT|INTERRES
     7    4    5 1    
     8    4  130 1    
     9    5    6 1    
    10    5   65 1    
    11    5  131 1    
    12    6    7 1    
    13    6  132 1    
    14    6  133 1    
    15    7    8 1    
    16    8    9 1    
    17    8  134 1    
    18    8  135 1    
    19    9   10 ar   
    20    9   14 ar   
    21   10   11 ar   
    22   10  136 1    
    23   11   12 ar   
    24   11  126 1    
    25   12   13 ar   
    26   12  137 1    
    27   13   14 ar   
    28   13   15 1    
    29   14  138 1    
    30   15   16 1    
    31   15  139 1    
    32   15  140 1    
    33   16   17 1    
    34   17   18 1    
    35   17  141 1    
    36   17  142 1    
    37   18   19 1    
    38   18   67 1    
    39   18  143 1    
    40   19   20 am   BACKBONE|DICT|INTERRES
    41   19  144 1    
    42   20   21 2    
    43   20   22 1    
    44   22   23 1    
    45   22   24 1    
    46   22  145 1    
    47   23  146 1    
    48   23  147 1    
    49   23  148 1    
    50   24   25 am   BACKBONE|DICT|INTERRES
    51   24  149 1    
    52   25   26 2    
    53   25   27 1    
    54   27   28 1    
    55   27   29 1    
    56   27  150 1    
    57   28  151 1    
    58   28  152 1    
    59   28  153 1    
    60   29   30 am   BACKBONE|DICT|INTERRES
    61   29  154 1    
    62   30   31 2    
    63   30   32 1    
    64   32   33 1    
    65   32   34 1    
    66   32  155 1    
    67   33  156 1    
    68   33  157 1    
    69   33  158 1    
    70   34   35 am   BACKBONE|DICT|INTERRES
    71   34  159 1    
    72   35   36 2    
    73   35   37 1    
    74   37   38 1    
    75   37   39 1    
    76   37  160 1    
    77   38  161 1    
    78   38  162 1    
    79   38  163 1    
    80   39   40 am   BACKBONE|DICT|INTERRES
    81   39  164 1    
    82   40   41 2    
    83   40   42 1    
    84   42   43 1    
    85   42   44 1    
    86   42  165 1    
    87   43  166 1    
    88   43  167 1    
    89   43  168 1    
    90   44   45 am   BACKBONE|DICT|INTERRES
    91   44  169 1    
    92   45   46 2    
    93   45   47 1    
    94   47   48 1    
    95   47   49 1    
    96   47  170 1    
    97   48  171 1    
    98   48  172 1    
    99   48  173 1    
   100   49   50 am   BACKBONE|DICT|INTERRES
   101   49  174 1    
   102   50   51 2    
   103   50   52 1    
   104   52   53 1    
   105   52   54 1    
   106   52  175 1    
   107   53  176 1    
   108   53  177 1    
   109   53  178 1    
   110   54   55 am   BACKBONE|DICT|INTERRES
   111   54  179 1    
   112   55   56 2    
   113   55   57 1    
   114   57   58 1    
   115   57   59 1    
   116   57  180 1    
   117   58  181 1    
   118   58  182 1    
   119   58  183 1    
   120   59   60 am   BACKBONE|DICT|INTERRES
   121   59  184 1    
   122   60   61 2    
   123   60   62 1    
   124   62   63 1    
   125   62   64 1    
   126   62  185 1    
   127   63  186 1    
   128   63  187 1    
   129   63  188 1    
   130   64   65 am   BACKBONE|DICT|INTERRES
   131   64  189 1    
   132   65   66 2    
   133   67   68 2    
   134   67   69 am   BACKBONE|DICT|INTERRES
   135   69   70 1    
   136   69  190 1    
   137   70   71 1    
   138   70   72 1    
   139   70  191 1    
   140   71  192 1    
   141   71  193 1    
   142   71  194 1    
   143   72   73 2    
   144   72   74 am   BACKBONE|DICT|INTERRES
   145   74   75 1    
   146   74  195 1    
   147   75   76 1    
   148   75   77 1    
   149   75  196 1    
   150   76  197 1    
   151   76  198 1    
   152   76  199 1    
   153   77   78 2    
   154   77   79 am   BACKBONE|DICT|INTERRES
   155   79   80 1    
   156   79  200 1    
   157   80   81 1    
   158   80   82 1    
   159   80  201 1    
   160   81  202 1    
   161   81  203 1    
   162   81  204 1    
   163   82   83 2    
   164   82   84 am   BACKBONE|DICT|INTERRES
   165   84   85 1    
   166   84  205 1    
   167   85   86 1    
   168   85   87 1    
   169   85  206 1    
   170   86  207 1    
   171   86  208 1    
   172   86  209 1    
   173   87   88 2    
   174   87   89 am   BACKBONE|DICT|INTERRES
   175   89   90 1    
   176   89  210 1    
   177   90   91 1    
   178   90   92 1    
   179   90  211 1    
   180   91  212 1    
   181   91  213 1    
   182   91  214 1    
   183   92   93 2    
   184   92   94 am   BACKBONE|DICT|INTERRES
   185   94   95 1    
   186   94  215 1    
   187   95   96 1    
   188   95   97 1    
   189   95  216 1    
   190   96  217 1    
   191   96  218 1    
   192   96  219 1    
   193   97   98 2    
   194   97   99 am   BACKBONE|DICT|INTERRES
   195   99  100 1    
   196   99  220 1    
   197  100  101 1    
   198  100  102 1    
   199  100  221 1    
   200  101  222 1    
   201  101  223 1    
   202  101  224 1    
   203  102  103 2    
   204  102  104 am   BACKBONE|DICT|INTERRES
   205  104  105 1    
   206  104  225 1    
   207  105  106 1    
   208  105  107 1    
   209  105  226 1    
   210  106  227 1    
   211  106  228 1    
   212  106  229 1    
   213  107  108 2    
   214  107  109 am   BACKBONE|DICT|INTERRES
   215  109  110 1    
   216  109  230 1    
   217  110  111 1    
   218  110  112 1    
   219  110  231 1    
   220  111  232 1    
   221  111  233 1    
   222  111  234 1    
   223  112  113 2    
   224  112  114 am   BACKBONE|DICT|INTERRES
   225  114  115 1    
   226  114  235 1    
   227  115  116 1    
   228  115  117 1    
   229  115  236 1    
   230  116  237 1    
   231  116  238 1    
   232  116  239 1    
   233  117  118 2    
   234  117  119 am   BACKBONE|DICT|INTERRES
   235  119  120 1    
   236  119  240 1    
   237  120  121 1    
   238  120  124 1    
   239  120  241 1    
   240  121  122 am   BACKBONE|DICT|INTERRES
   241  121  123 2    
   242  122  242 1    
   243  122  243 1    
   244  124  125 1    
   245  124  244 1    
   246  124  245 1    
   247  125  126 1    
   248  126  246 1    
   249  126  247 1    
@<TRIPOS>SUBSTRUCTURE
     1 UNK         1 GROUP             0       ****    0 ROOT    
