@<TRIPOS>MOLECULE
3R540
247   249    1
SMALL
USER_CHARGES


@<TRIPOS>ATOM
      1 CA         -4.1420  -10.4329  -49.1632 C.3       0 UNK        -0.1800 
      2 C          -2.6366  -10.4906  -48.9474 C.2       0 UNK         0.5000 
      3 O          -1.9951   -9.4484  -48.8070 O.2       0 UNK        -0.5000 
      4 N          -2.0675  -11.7020  -48.9060 N.am      1 UNK        -0.5000 
      5 CA         -0.6392  -11.9749  -48.7044 C.3       1 UNK         0.1400 
      6 C6         -0.2413  -13.3306  -49.3430 C.3       23 UNK        -0.0398 
      7 S7          1.5417  -13.4411  -49.7190 S.3       23 UNK        -0.2404 
      8 C8          1.5556  -14.6692  -51.0686 C.3       23 UNK        -0.0205 
      9 C9          0.8576  -15.9699  -50.6895 C.ar      23 UNK        -0.0193 
     10 C10        -0.2571  -16.4088  -51.4117 C.ar      23 UNK        -0.1150 
     11 C11        -0.9040  -17.5988  -51.0652 C.ar      23 UNK        -0.0193 
     12 C12        -0.4459  -18.3376  -49.9716 C.ar      23 UNK        -0.1150 
     13 C13         0.6638  -17.9077  -49.2410 C.ar      23 UNK        -0.0193 
     14 C14         1.3232  -16.7346  -49.6155 C.ar      23 UNK        -0.1150 
     15 C15         1.1197  -18.6989  -48.0294 C.3       23 UNK        -0.0205 
     16 S16         2.0894  -20.1631  -48.5046 S.3       23 UNK        -0.2404 
     17 C17         2.0791  -21.0711  -46.9177 C.3       23 UNK        -0.0398 
     18 CA          1.1280  -22.2980  -46.8002 C.3       11 UNK         0.1400 
     19 N           0.9881  -22.7091  -45.3989 N.am      11 UNK        -0.5000 
     20 C           0.4465  -23.8593  -44.9735 C.2       10 UNK         0.5000 
     21 O          -0.1326  -24.6534  -45.7122 O.2       10 UNK        -0.5000 
     22 CA          0.5719  -24.1771  -43.4744 C.3       10 UNK         0.1400 
     23 CB          2.0077  -24.6042  -43.1318 C.3       10 UNK        -0.1800 
     24 N           0.2108  -23.0138  -42.6694 N.am      10 UNK        -0.5000 
     25 C          -0.9126  -22.8995  -41.9481 C.2       9 UNK         0.5000 
     26 O          -1.7114  -23.8193  -41.7692 O.2       9 UNK        -0.5000 
     27 CA         -1.2190  -21.5101  -41.3461 C.3       9 UNK         0.1400 
     28 CB         -0.6977  -21.4230  -39.9039 C.3       9 UNK        -0.1800 
     29 N          -0.6716  -20.3887  -42.1161 N.am      9 UNK        -0.5000 
     30 C          -0.9119  -20.1495  -43.4124 C.2       8 UNK         0.5000 
     31 O          -1.6671  -20.8290  -44.1052 O.2       8 UNK        -0.5000 
     32 CA         -0.1141  -19.0187  -44.0828 C.3       8 UNK         0.1400 
     33 CB         -0.9239  -17.7157  -44.0862 C.3       8 UNK        -0.1800 
     34 N           1.2160  -18.7701  -43.5187 N.am      8 UNK        -0.5000 
     35 C           2.1923  -19.6691  -43.3178 C.2       7 UNK         0.5000 
     36 O           2.0602  -20.8788  -43.5143 O.2       7 UNK        -0.5000 
     37 CA          3.5477  -19.1303  -42.8331 C.3       7 UNK         0.1400 
     38 CB          4.4823  -18.9156  -44.0337 C.3       7 UNK        -0.1800 
     39 N           3.4092  -17.8685  -42.1045 N.am      7 UNK        -0.5000 
     40 C           3.2518  -17.7645  -40.7778 C.2       6 UNK         0.5000 
     41 O           3.2311  -18.7312  -40.0153 O.2       6 UNK        -0.5000 
     42 CA          3.0900  -16.3430  -40.2008 C.3       6 UNK         0.1400 
     43 CB          4.4576  -15.7674  -39.8030 C.3       6 UNK        -0.1800 
     44 N           2.4344  -15.4166  -41.1261 N.am      6 UNK        -0.5000 
     45 C           1.1339  -15.4593  -41.4461 C.2       5 UNK         0.5000 
     46 O           0.3349  -16.2488  -40.9424 O.2       5 UNK        -0.5000 
     47 CA          0.6453  -14.4804  -42.5346 C.3       5 UNK         0.1400 
     48 CB          0.0647  -13.2128  -41.8916 C.3       5 UNK        -0.1800 
     49 N           1.6540  -14.1026  -43.5344 N.am      5 UNK        -0.5000 
     50 C           2.3313  -14.9607  -44.3140 C.2       4 UNK         0.5000 
     51 O           2.2453  -16.1823  -44.1939 O.2       4 UNK        -0.5000 
     52 CA          3.2624  -14.3893  -45.3984 C.3       4 UNK         0.1400 
     53 CB          3.0202  -15.0904  -46.7439 C.3       4 UNK        -0.1800 
     54 N           3.0806  -12.9509  -45.5836 N.am      4 UNK        -0.5000 
     55 C           3.9416  -12.0047  -45.1844 C.2       3 UNK         0.5000 
     56 O           4.9955  -12.2456  -44.5948 O.2       3 UNK        -0.5000 
     57 CA          3.5691  -10.5375  -45.4860 C.3       3 UNK         0.1400 
     58 CB          4.3274  -10.0380  -46.7254 C.3       3 UNK        -0.1800 
     59 N           2.1357  -10.3264  -45.6958 N.am      3 UNK        -0.5000 
     60 C           1.1919  -10.4748  -44.7567 C.2       2 UNK         0.5000 
     61 O           1.4395  -10.7486  -43.5828 O.2       2 UNK        -0.5000 
     62 CA         -0.2737  -10.3458  -45.2151 C.3       2 UNK         0.1400 
     63 CB         -0.8014   -8.9299  -44.9418 C.3       2 UNK        -0.1800 
     64 N          -0.4904  -10.6713  -46.6287 N.am      2 UNK        -0.5000 
     65 C          -0.2580  -11.8577  -47.2078 C.2       1 UNK         0.5000 
     66 O           0.2197  -12.8178  -46.6006 O.2       1 UNK        -0.5000 
     67 C          -0.2312  -22.1311  -47.5199 C.2       11 UNK         0.5000 
     68 O          -0.3951  -22.6525  -48.6240 O.2       11 UNK        -0.5000 
     69 N          -1.1926  -21.4394  -46.8892 N.am      12 UNK        -0.5000 
     70 CA         -2.5204  -21.2230  -47.4681 C.3       12 UNK         0.1400 
     71 CB         -3.2020  -20.0060  -46.8264 C.3       12 UNK        -0.1800 
     72 C          -3.4010  -22.4748  -47.3461 C.2       12 UNK         0.5000 
     73 O          -4.2094  -22.7266  -48.2390 O.2       12 UNK        -0.5000 
     74 N          -3.2034  -23.2558  -46.2743 N.am      13 UNK        -0.5000 
     75 CA         -3.8664  -24.5398  -46.0431 C.3       13 UNK         0.1400 
     76 CB         -3.5499  -25.0381  -44.6252 C.3       13 UNK        -0.1800 
     77 C          -3.4840  -25.5894  -47.1025 C.2       13 UNK         0.5000 
     78 O          -4.3681  -26.2492  -47.6495 O.2       13 UNK        -0.5000 
     79 N          -2.1853  -25.6717  -47.4277 N.am      14 UNK        -0.5000 
     80 CA         -1.6374  -26.4997  -48.5066 C.3       14 UNK         0.1400 
     81 CB         -0.1032  -26.4603  -48.4464 C.3       14 UNK        -0.1800 
     82 C          -2.1324  -26.0789  -49.9046 C.2       14 UNK         0.5000 
     83 O          -2.2556  -26.9277  -50.7874 O.2       14 UNK        -0.5000 
     84 N          -2.4510  -24.7878  -50.0633 N.am      15 UNK        -0.5000 
     85 CA         -3.0658  -24.2004  -51.2527 C.3       15 UNK         0.1400 
     86 CB         -2.5781  -22.7498  -51.3964 C.3       15 UNK        -0.1800 
     87 C          -4.6090  -24.2874  -51.2448 C.2       15 UNK         0.5000 
     88 O          -5.2498  -23.5787  -52.0216 O.2       15 UNK        -0.5000 
     89 N          -5.1823  -25.1336  -50.3742 N.am      16 UNK        -0.5000 
     90 CA         -6.6117  -25.4276  -50.2260 C.3       16 UNK         0.1400 
     91 CB         -7.1509  -26.1504  -51.4783 C.3       16 UNK        -0.1800 
     92 C          -7.4384  -24.1871  -49.8321 C.2       16 UNK         0.5000 
     93 O          -8.4742  -23.9113  -50.4382 O.2       16 UNK        -0.5000 
     94 N          -6.9394  -23.4616  -48.8217 N.am      17 UNK        -0.5000 
     95 CA         -7.4324  -22.1772  -48.3147 C.3       17 UNK         0.1400 
     96 CB         -8.8822  -22.2789  -47.7942 C.3       17 UNK        -0.1800 
     97 C          -7.2138  -21.0467  -49.3393 C.2       17 UNK         0.5000 
     98 O          -8.1195  -20.2507  -49.5934 O.2       17 UNK        -0.5000 
     99 N          -5.9939  -21.0110  -49.8983 N.am      18 UNK        -0.5000 
    100 CA        -5.4917  -20.0453  -50.8822 C.3       18 UNK         0.1400 
    101 CB        -5.3372  -18.6509  -50.2379 C.3       18 UNK        -0.1800 
    102 C         -6.3071  -20.0149  -52.1930 C.2       18 UNK         0.5000 
    103 O         -6.5340  -18.9449  -52.7614 O.2       18 UNK        -0.5000 
    104 N         -6.7171  -21.1939  -52.6751 N.am      19 UNK        -0.5000 
    105 CA        -7.5229  -21.3830  -53.8820 C.3       19 UNK         0.1400 
    106 CB        -8.3460  -22.6732  -53.7252 C.3       19 UNK        -0.1800 
    107 C         -6.6498  -21.3852  -55.1540 C.2       19 UNK         0.5000 
    108 O         -6.6879  -22.3412  -55.9293 O.2       19 UNK        -0.5000 
    109 N         -5.8394  -20.3296  -55.3214 N.am      20 UNK        -0.5000 
    110 CA        -4.9025  -20.0367  -56.4203 C.3       20 UNK         0.1400 
    111 CB        -5.6533  -19.9022  -57.7589 C.3       20 UNK        -0.1800 
    112 C         -3.6998  -20.9981  -56.5569 C.2       20 UNK         0.5000 
    113 O         -2.7158  -20.6394  -57.2063 O.2       20 UNK        -0.5000 
    114 N         -3.7654  -22.1763  -55.9237 N.am      21 UNK        -0.5000 
    115 CA        -2.7566  -23.2402  -55.9361 C.3       21 UNK         0.1400 
    116 CB        -3.3417  -24.4704  -55.2268 C.3       21 UNK        -0.1800 
    117 C         -1.3913  -22.8487  -55.3320 C.2       21 UNK         0.5000 
    118 O         -0.4070  -23.5528  -55.5607 O.2       21 UNK        -0.5000 
    119 N         -1.3469  -21.7284  -54.6012 N.am      22 UNK        -0.5000 
    120 CA        -0.1181  -21.0523  -54.1638 C.3       22 UNK         0.1400 
    121 C          0.7177  -20.4131  -55.3157 C.2       22 UNK         0.5000 
    122 N          0.1704  -20.2128  -56.5104 N.am      22 UNK        -0.7600 
    123 O          1.8909  -20.1061  -55.1230 O.2       22 UNK        -0.5000 
    124 C124       -0.4054  -20.0286  -53.0359 C.3       23 UNK        -0.0398 
    125 S125       -1.6197  -18.7400  -53.4983 S.3       23 UNK        -0.2404 
    126 C126       -2.0989  -18.0908  -51.8673 C.3       23 UNK        -0.0205 
    127 H127       -4.6232   -9.9408  -48.3179 H         1 UNK         0.0600 
    128 H128       -4.5751  -11.4278  -49.2696 H         1 UNK         0.0600 
    129 H129       -4.3698   -9.8645  -50.0649 H         1 UNK         0.0600 
    130 H130       -2.6566  -12.5185  -48.9900 H         1 UNK         0.3000 
    131 H131       -0.0824  -11.1952  -49.2292 H         1 UNK         0.0600 
    132 H132       -0.5362  -14.1754  -48.7176 H         1 UNK         0.0800 
    133 H133       -0.7761  -13.4577  -50.2855 H         1 UNK         0.0800 
    134 H134        1.0957  -14.2256  -51.9530 H         1 UNK         0.0800 
    135 H135        2.5900  -14.8871  -51.3372 H         1 UNK         0.0800 
    136 H136       -0.6189  -15.8324  -52.2517 H         1 UNK         0.1150 
    137 H137       -0.9472  -19.2525  -49.6886 H         1 UNK         0.1150 
    138 H138        2.1872  -16.4017  -49.0597 H         1 UNK         0.1150 
    139 H139        1.7101  -18.0728  -47.3584 H         1 UNK         0.0800 
    140 H140        0.2380  -19.0067  -47.4672 H         1 UNK         0.0800 
    141 H141        1.8555  -20.3519  -46.1329 H         1 UNK         0.0800 
    142 H142        3.1014  -21.3947  -46.7174 H         1 UNK         0.0800 
    143 H143        1.6264  -23.1245  -47.3120 H         1 UNK         0.0600 
    144 H144        1.4378  -22.1075  -44.7135 H         1 UNK         0.3000 
    145 H145       -0.0898  -25.0185  -43.2585 H         1 UNK         0.0600 
    146 H146        2.0894  -24.8950  -42.0844 H         1 UNK         0.0600 
    147 H147        2.3144  -25.4616  -43.7324 H         1 UNK         0.0600 
    148 H148        2.7244  -23.8017  -43.3114 H         1 UNK         0.0600 
    149 H149        0.8028  -22.1959  -42.7718 H         1 UNK         0.3000 
    150 H150       -2.3046  -21.3957  -41.3282 H         1 UNK         0.0600 
    151 H151       -1.1021  -22.2305  -39.2920 H         1 UNK         0.0600 
    152 H152       -0.9897  -20.4835  -39.4341 H         1 UNK         0.0600 
    153 H153        0.3902  -21.4942  -39.8655 H         1 UNK         0.0600 
    154 H154       -0.0207  -19.7841  -41.6362 H         1 UNK         0.3000 
    155 H155        0.0348  -19.3129  -45.1208 H         1 UNK         0.0600 
    156 H156       -1.0802  -17.3396  -43.0750 H         1 UNK         0.0600 
    157 H157       -0.4211  -16.9399  -44.6639 H         1 UNK         0.0600 
    158 H158       -1.9065  -17.8660  -44.5357 H         1 UNK         0.0600 
    159 H159        1.4681  -17.7927  -43.4161 H         1 UNK         0.3000 
    160 H160        3.9951  -19.8868  -42.1850 H         1 UNK         0.0600 
    161 H161        4.0823  -18.1798  -44.7327 H         1 UNK         0.0600 
    162 H162        4.6292  -19.8451  -44.5855 H         1 UNK         0.0600 
    163 H163        5.4648  -18.5712  -43.7108 H         1 UNK         0.0600 
    164 H164        3.3437  -17.0321  -42.6718 H         1 UNK         0.3000 
    165 H165        2.4780  -16.4194  -39.2994 H         1 UNK         0.0600 
    166 H166        4.3519  -14.7927  -39.3261 H         1 UNK         0.0600 
    167 H167        4.9651  -16.4218  -39.0929 H         1 UNK         0.0600 
    168 H168        5.1126  -15.6500  -40.6673 H         1 UNK         0.0600 
    169 H169        3.0192  -14.7317  -41.5820 H         1 UNK         0.3000 
    170 H170       -0.1627  -14.9800  -43.0712 H         1 UNK         0.0600 
    171 H171        0.8396  -12.6160  -41.4090 H         1 UNK         0.0600 
    172 H172       -0.4292  -12.5867  -42.6342 H         1 UNK         0.0600 
    173 H173       -0.6802  -13.4608  -41.1342 H         1 UNK         0.0600 
    174 H174        1.7888  -13.1116  -43.6833 H         1 UNK         0.3000 
    175 H175        4.2849  -14.6091  -45.0861 H         1 UNK         0.0600 
    176 H176        3.6545  -14.6754  -47.5272 H         1 UNK         0.0600 
    177 H177        1.9821  -14.9892  -47.0631 H         1 UNK         0.0600 
    178 H178        3.2427  -16.1560  -46.6785 H         1 UNK         0.0600 
    179 H179        2.2118  -12.6766  -46.0305 H         1 UNK         0.3000 
    180 H180        3.8781   -9.9370  -44.6279 H         1 UNK         0.0600 
    181 H181        4.0446  -10.5939  -47.6205 H         1 UNK         0.0600 
    182 H182        5.4048  -10.1500  -46.5963 H         1 UNK         0.0600 
    183 H183        4.1321   -8.9814  -46.9091 H         1 UNK         0.0600 
    184 H184        1.8419  -10.1019  -46.6349 H         1 UNK         0.3000 
    185 H185       -0.8613  -11.0500  -44.6230 H         1 UNK         0.0600 
    186 H186       -0.6829   -8.6639  -43.8904 H         1 UNK         0.0600 
    187 H187       -0.2703   -8.1823  -45.5325 H         1 UNK         0.0600 
    188 H188       -1.8629   -8.8521  -45.1779 H         1 UNK         0.0600 
    189 H189       -0.9114   -9.9494  -47.2056 H         1 UNK         0.3000 
    190 H190       -1.0637  -21.1365  -45.9301 H         1 UNK         0.3000 
    191 H191       -2.4024  -21.0014  -48.5304 H         1 UNK         0.0600 
    192 H192       -2.5703  -19.1196  -46.8857 H         1 UNK         0.0600 
    193 H193       -4.1368  -19.7760  -47.3378 H         1 UNK         0.0600 
    194 H194       -3.4503  -20.1778  -45.7798 H         1 UNK         0.0600 
    195 H195       -2.5157  -22.9677  -45.5932 H         1 UNK         0.3000 
    196 H196       -4.9440  -24.3758  -46.1112 H         1 UNK         0.0600 
    197 H197       -4.0643  -25.9773  -44.4186 H         1 UNK         0.0600 
    198 H198       -3.8730  -24.3183  -43.8728 H         1 UNK         0.0600 
    199 H199       -2.4833  -25.2112  -44.4823 H         1 UNK         0.0600 
    200 H200       -1.5097  -25.1316  -46.8915 H         1 UNK         0.3000 
    201 H201       -1.9618  -27.5284  -48.3372 H         1 UNK         0.0600 
    202 H202        0.2632  -26.8391  -47.4921 H         1 UNK         0.0600 
    203 H203        0.2768  -25.4455  -48.5714 H         1 UNK         0.0600 
    204 H204        0.3366  -27.0767  -49.2314 H         1 UNK         0.0600 
    205 H205       -2.3007  -24.1616  -49.2840 H         1 UNK         0.3000 
    206 H206       -2.7233  -24.7513  -52.1301 H         1 UNK         0.0600 
    207 H207       -1.4902  -22.7120  -51.4496 H         1 UNK         0.0600 
    208 H208       -2.9647  -22.2879  -52.3051 H         1 UNK         0.0600 
    209 H209       -2.8922  -22.1347  -50.5550 H         1 UNK         0.0600 
    210 H210       -4.5788  -25.6252  -49.7267 H         1 UNK         0.3000 
    211 H211       -6.6944  -26.1226  -49.3892 H         1 UNK         0.0600 
    212 H212       -7.1213  -25.5126  -52.3613 H         1 UNK         0.0600 
    213 H213       -8.1862  -26.4618  -51.3346 H         1 UNK         0.0600 
    214 H214       -6.5703  -27.0471  -51.6945 H         1 UNK         0.0600 
    215 H215       -6.0309  -23.7313  -48.4623 H         1 UNK         0.3000 
    216 H216       -6.8029  -21.9316  -47.4581 H         1 UNK         0.0600 
    217 H217       -9.1728  -21.3623  -47.2799 H         1 UNK         0.0600 
    218 H218       -8.9895  -23.0979  -47.0832 H         1 UNK         0.0600 
    219 H219       -9.5987  -22.4368  -48.6004 H         1 UNK         0.0600 
    220 H220       -5.3347  -21.7209  -49.5970 H         1 UNK         0.3000 
    221 H221       -4.4972  -20.3889  -51.1657 H         1 UNK         0.0600 
    222 H222       -6.2925  -18.2555  -49.8923 H         1 UNK         0.0600 
    223 H223       -4.6588  -18.6824  -49.3864 H         1 UNK         0.0600 
    224 H224       -4.9295  -17.9287  -50.9451 H         1 UNK         0.0600 
    225 H225       -6.3997  -22.0450  -52.2177 H         1 UNK         0.3000 
    226 H226       -8.2270  -20.5538  -53.9765 H         1 UNK         0.0600 
    227 H227       -8.9873  -22.6251  -52.8451 H         1 UNK         0.0600 
    228 H228       -8.9925  -22.8364  -54.5882 H         1 UNK         0.0600 
    229 H229       -7.7029  -23.5476  -53.6225 H         1 UNK         0.0600 
    230 H230       -5.8836  -19.6209  -54.5961 H         1 UNK         0.3000 
    231 H231       -4.4760  -19.0604  -56.1852 H         1 UNK         0.0600 
    232 H232       -6.0841  -20.8504  -58.0816 H         1 UNK         0.0600 
    233 H233       -4.9821  -19.5656  -58.5501 H         1 UNK         0.0600 
    234 H234       -6.4603  -19.1731  -57.6873 H         1 UNK         0.0600 
    235 H235       -4.6461  -22.4023  -55.4789 H         1 UNK         0.3000 
    236 H236       -2.5725  -23.5049  -56.9791 H         1 UNK         0.0600 
    237 H237       -4.2093  -24.8558  -55.7628 H         1 UNK         0.0600 
    238 H238       -2.6131  -25.2798  -55.1640 H         1 UNK         0.0600 
    239 H239       -3.6601  -24.2295  -54.2141 H         1 UNK         0.0600 
    240 H240       -2.1997  -21.2024  -54.4857 H         1 UNK         0.3000 
    241 H241        0.5250  -21.8216  -53.7319 H         1 UNK         0.0600 
    242 H242       -0.8050  -20.4326  -56.6851 H         1 UNK         0.3800 
    243 H243        0.7253  -19.8040  -57.2451 H         1 UNK         0.3800 
    244 H244       -0.7785  -20.5534  -52.1569 H         1 UNK         0.0800 
    245 H245        0.5179  -19.5427  -52.7147 H         1 UNK         0.0800 
    246 H246       -2.8052  -17.2712  -52.0049 H         1 UNK         0.0800 
    247 H247       -2.6283  -18.8704  -51.3202 H         1 UNK         0.0800 
@<TRIPOS>BOND
     1    1    2 1    
     2    1  127 1    
     3    1  128 1    
     4    1  129 1    
     5    2    3 2    
     6    2    4 am   BACKBONE|DICT|INTERRES
     7    4    5 1    
     8    4  130 1    
     9    5    6 1    
    10    5   65 1    
    11    5  131 1    
    12    6    7 1    
    13    6  132 1    
    14    6  133 1    
    15    7    8 1    
    16    8    9 1    
    17    8  134 1    
    18    8  135 1    
    19    9   10 ar   
    20    9   14 ar   
    21   10   11 ar   
    22   10  136 1    
    23   11   12 ar   
    24   11  126 1    
    25   12   13 ar   
    26   12  137 1    
    27   13   14 ar   
    28   13   15 1    
    29   14  138 1    
    30   15   16 1    
    31   15  139 1    
    32   15  140 1    
    33   16   17 1    
    34   17   18 1    
    35   17  141 1    
    36   17  142 1    
    37   18   19 1    
    38   18   67 1    
    39   18  143 1    
    40   19   20 am   BACKBONE|DICT|INTERRES
    41   19  144 1    
    42   20   21 2    
    43   20   22 1    
    44   22   23 1    
    45   22   24 1    
    46   22  145 1    
    47   23  146 1    
    48   23  147 1    
    49   23  148 1    
    50   24   25 am   BACKBONE|DICT|INTERRES
    51   24  149 1    
    52   25   26 2    
    53   25   27 1    
    54   27   28 1    
    55   27   29 1    
    56   27  150 1    
    57   28  151 1    
    58   28  152 1    
    59   28  153 1    
    60   29   30 am   BACKBONE|DICT|INTERRES
    61   29  154 1    
    62   30   31 2    
    63   30   32 1    
    64   32   33 1    
    65   32   34 1    
    66   32  155 1    
    67   33  156 1    
    68   33  157 1    
    69   33  158 1    
    70   34   35 am   BACKBONE|DICT|INTERRES
    71   34  159 1    
    72   35   36 2    
    73   35   37 1    
    74   37   38 1    
    75   37   39 1    
    76   37  160 1    
    77   38  161 1    
    78   38  162 1    
    79   38  163 1    
    80   39   40 am   BACKBONE|DICT|INTERRES
    81   39  164 1    
    82   40   41 2    
    83   40   42 1    
    84   42   43 1    
    85   42   44 1    
    86   42  165 1    
    87   43  166 1    
    88   43  167 1    
    89   43  168 1    
    90   44   45 am   BACKBONE|DICT|INTERRES
    91   44  169 1    
    92   45   46 2    
    93   45   47 1    
    94   47   48 1    
    95   47   49 1    
    96   47  170 1    
    97   48  171 1    
    98   48  172 1    
    99   48  173 1    
   100   49   50 am   BACKBONE|DICT|INTERRES
   101   49  174 1    
   102   50   51 2    
   103   50   52 1    
   104   52   53 1    
   105   52   54 1    
   106   52  175 1    
   107   53  176 1    
   108   53  177 1    
   109   53  178 1    
   110   54   55 am   BACKBONE|DICT|INTERRES
   111   54  179 1    
   112   55   56 2    
   113   55   57 1    
   114   57   58 1    
   115   57   59 1    
   116   57  180 1    
   117   58  181 1    
   118   58  182 1    
   119   58  183 1    
   120   59   60 am   BACKBONE|DICT|INTERRES
   121   59  184 1    
   122   60   61 2    
   123   60   62 1    
   124   62   63 1    
   125   62   64 1    
   126   62  185 1    
   127   63  186 1    
   128   63  187 1    
   129   63  188 1    
   130   64   65 am   BACKBONE|DICT|INTERRES
   131   64  189 1    
   132   65   66 2    
   133   67   68 2    
   134   67   69 am   BACKBONE|DICT|INTERRES
   135   69   70 1    
   136   69  190 1    
   137   70   71 1    
   138   70   72 1    
   139   70  191 1    
   140   71  192 1    
   141   71  193 1    
   142   71  194 1    
   143   72   73 2    
   144   72   74 am   BACKBONE|DICT|INTERRES
   145   74   75 1    
   146   74  195 1    
   147   75   76 1    
   148   75   77 1    
   149   75  196 1    
   150   76  197 1    
   151   76  198 1    
   152   76  199 1    
   153   77   78 2    
   154   77   79 am   BACKBONE|DICT|INTERRES
   155   79   80 1    
   156   79  200 1    
   157   80   81 1    
   158   80   82 1    
   159   80  201 1    
   160   81  202 1    
   161   81  203 1    
   162   81  204 1    
   163   82   83 2    
   164   82   84 am   BACKBONE|DICT|INTERRES
   165   84   85 1    
   166   84  205 1    
   167   85   86 1    
   168   85   87 1    
   169   85  206 1    
   170   86  207 1    
   171   86  208 1    
   172   86  209 1    
   173   87   88 2    
   174   87   89 am   BACKBONE|DICT|INTERRES
   175   89   90 1    
   176   89  210 1    
   177   90   91 1    
   178   90   92 1    
   179   90  211 1    
   180   91  212 1    
   181   91  213 1    
   182   91  214 1    
   183   92   93 2    
   184   92   94 am   BACKBONE|DICT|INTERRES
   185   94   95 1    
   186   94  215 1    
   187   95   96 1    
   188   95   97 1    
   189   95  216 1    
   190   96  217 1    
   191   96  218 1    
   192   96  219 1    
   193   97   98 2    
   194   97   99 am   BACKBONE|DICT|INTERRES
   195   99  100 1    
   196   99  220 1    
   197  100  101 1    
   198  100  102 1    
   199  100  221 1    
   200  101  222 1    
   201  101  223 1    
   202  101  224 1    
   203  102  103 2    
   204  102  104 am   BACKBONE|DICT|INTERRES
   205  104  105 1    
   206  104  225 1    
   207  105  106 1    
   208  105  107 1    
   209  105  226 1    
   210  106  227 1    
   211  106  228 1    
   212  106  229 1    
   213  107  108 2    
   214  107  109 am   BACKBONE|DICT|INTERRES
   215  109  110 1    
   216  109  230 1    
   217  110  111 1    
   218  110  112 1    
   219  110  231 1    
   220  111  232 1    
   221  111  233 1    
   222  111  234 1    
   223  112  113 2    
   224  112  114 am   BACKBONE|DICT|INTERRES
   225  114  115 1    
   226  114  235 1    
   227  115  116 1    
   228  115  117 1    
   229  115  236 1    
   230  116  237 1    
   231  116  238 1    
   232  116  239 1    
   233  117  118 2    
   234  117  119 am   BACKBONE|DICT|INTERRES
   235  119  120 1    
   236  119  240 1    
   237  120  121 1    
   238  120  124 1    
   239  120  241 1    
   240  121  122 am   BACKBONE|DICT|INTERRES
   241  121  123 2    
   242  122  242 1    
   243  122  243 1    
   244  124  125 1    
   245  124  244 1    
   246  124  245 1    
   247  125  126 1    
   248  126  246 1    
   249  126  247 1    
@<TRIPOS>SUBSTRUCTURE
     1 UNK         1 GROUP             0       ****    0 ROOT    
