@<TRIPOS>MOLECULE
3R540
247   249    1
SMALL
USER_CHARGES


@<TRIPOS>ATOM
      1 CA          7.0171  -15.5645  -44.6680 C.3       0 UNK        -0.1800 
      2 C           5.8652  -14.6118  -44.9487 C.2       0 UNK         0.5000 
      3 O           5.0518  -14.3521  -44.0624 O.2       0 UNK        -0.5000 
      4 N           5.8004  -14.0655  -46.1704 N.am      1 UNK        -0.5000 
      5 CA          4.7145  -13.2038  -46.6671 C.3       1 UNK         0.1400 
      6 C6          4.7101  -13.0661  -48.2084 C.3       23 UNK        -0.0398 
      7 S7          4.7868  -14.6652  -49.0819 S.3       23 UNK        -0.2404 
      8 C8          3.0767  -15.2729  -48.9298 C.3       23 UNK        -0.0205 
      9 C9          2.8709  -16.4616  -49.8543 C.ar      23 UNK        -0.0193 
     10 C10         2.2939  -16.2788  -51.1136 C.ar      23 UNK        -0.1150 
     11 C11         2.1989  -17.3434  -52.0145 C.ar      23 UNK        -0.0193 
     12 C12         2.6797  -18.6027  -51.6407 C.ar      23 UNK        -0.1150 
     13 C13         3.2386  -18.8042  -50.3740 C.ar      23 UNK        -0.0193 
     14 C14         3.3194  -17.7317  -49.4804 C.ar      23 UNK        -0.1150 
     15 C15         3.8160  -20.1620  -49.9937 C.3       23 UNK        -0.0205 
     16 S16         2.5509  -21.4664  -49.8990 S.3       23 UNK        -0.2404 
     17 C17         1.4907  -20.8377  -48.5570 C.3       23 UNK        -0.0398 
     18 CA          0.7008  -21.9420  -47.8128 C.3       11 UNK         0.1400 
     19 N           0.0573  -21.4077  -46.6094 N.am      11 UNK        -0.5000 
     20 C          -0.6120  -22.1337  -45.7025 C.2       10 UNK         0.5000 
     21 O          -0.6924  -23.3624  -45.7315 O.2       10 UNK        -0.5000 
     22 CA         -1.3609  -21.3488  -44.6104 C.3       10 UNK         0.1400 
     23 CB         -0.4004  -20.9211  -43.4911 C.3       10 UNK        -0.1800 
     24 N          -2.0566  -20.1738  -45.1407 N.am      10 UNK        -0.5000 
     25 C          -3.0845  -20.2210  -46.0007 C.2       9 UNK         0.5000 
     26 O          -3.5904  -21.2689  -46.3966 O.2       9 UNK        -0.5000 
     27 CA         -3.6065  -18.8814  -46.5511 C.3       9 UNK         0.1400 
     28 CB         -4.5569  -18.2091  -45.5504 C.3       9 UNK        -0.1800 
     29 N          -2.5296  -17.9576  -46.9061 N.am      9 UNK        -0.5000 
     30 C          -1.6088  -18.1841  -47.8536 C.2       8 UNK         0.5000 
     31 O          -1.5868  -19.1912  -48.5575 O.2       8 UNK        -0.5000 
     32 CA         -0.4836  -17.1446  -47.9908 C.3       8 UNK         0.1400 
     33 CB         -0.9374  -15.9354  -48.8220 C.3       8 UNK        -0.1800 
     34 N           0.0044  -16.6992  -46.6852 N.am      8 UNK        -0.5000 
     35 C           0.6926  -17.4765  -45.8372 C.2       7 UNK         0.5000 
     36 O           1.0151  -18.6388  -46.0833 O.2       7 UNK        -0.5000 
     37 CA          1.0524  -16.8595  -44.4732 C.3       7 UNK         0.1400 
     38 CB          2.2852  -15.9571  -44.6115 C.3       7 UNK        -0.1800 
     39 N          -0.0464  -16.0972  -43.8744 N.am      7 UNK        -0.5000 
     40 C          -1.2285  -16.6193  -43.5195 C.2       6 UNK         0.5000 
     41 O          -1.5034  -17.8138  -43.6185 O.2       6 UNK        -0.5000 
     42 CA         -2.3094  -15.6350  -43.0333 C.3       6 UNK         0.1400 
     43 CB         -2.1378  -15.3164  -41.5407 C.3       6 UNK        -0.1800 
     44 N          -2.3623  -14.3908  -43.8094 N.am      6 UNK        -0.5000 
     45 C          -2.5939  -14.3278  -45.1291 C.2       5 UNK         0.5000 
     46 O          -2.7412  -15.3223  -45.8372 O.2       5 UNK        -0.5000 
     47 CA         -2.6529  -12.9400  -45.7941 C.3       5 UNK         0.1400 
     48 CB         -4.0837  -12.6466  -46.2706 C.3       5 UNK        -0.1800 
     49 N          -2.2170  -11.8383  -44.9309 N.am      5 UNK        -0.5000 
     50 C          -0.9658  -11.4519  -44.6429 C.2       4 UNK         0.5000 
     51 O          -0.7607  -10.4673  -43.9318 O.2       4 UNK        -0.5000 
     52 CA          0.2459  -12.2254  -45.2210 C.3       4 UNK         0.1400 
     53 CB          0.6312  -11.6823  -46.6056 C.3       4 UNK        -0.1800 
     54 N           1.4038  -12.1335  -44.3268 N.am      4 UNK        -0.5000 
     55 C           1.4540  -12.7016  -43.1127 C.2       3 UNK         0.5000 
     56 O           0.6041  -13.5068  -42.7305 O.2       3 UNK        -0.5000 
     57 CA          2.6247  -12.3234  -42.1793 C.3       3 UNK         0.1400 
     58 CB          3.0165  -13.4775  -41.2393 C.3       3 UNK        -0.1800 
     59 N           3.8068  -11.9090  -42.9316 N.am      3 UNK        -0.5000 
     60 C           4.2144  -10.6455  -43.1247 C.2       2 UNK         0.5000 
     61 O           3.6669   -9.6649  -42.6206 O.2       2 UNK        -0.5000 
     62 CA          5.4152  -10.4375  -44.0759 C.3       2 UNK         0.1400 
     63 CB          6.7218  -10.3191  -43.2771 C.3       2 UNK        -0.1800 
     64 N           5.5505  -11.5203  -45.0534 N.am      2 UNK        -0.5000 
     65 C           4.6346  -11.8174  -45.9856 C.2       1 UNK         0.5000 
     66 O           3.7054  -11.0617  -46.2656 O.2       1 UNK        -0.5000 
     67 C          -0.3276  -22.6441  -48.7264 C.2       11 UNK         0.5000 
     68 O          -0.1117  -23.7861  -49.1328 O.2       11 UNK        -0.5000 
     69 N          -1.4547  -21.9684  -48.9813 N.am      12 UNK        -0.5000 
     70 CA         -2.5778  -22.4831  -49.7560 C.3       12 UNK         0.1400 
     71 CB         -3.5907  -21.3591  -49.9792 C.3       12 UNK        -0.1800 
     72 C          -3.2528  -23.7032  -49.1139 C.2       12 UNK         0.5000 
     73 O          -3.6505  -24.6106  -49.8385 O.2       12 UNK        -0.5000 
     74 N          -3.3649  -23.7252  -47.7799 N.am      13 UNK        -0.5000 
     75 CA         -3.9022  -24.8524  -47.0178 C.3       13 UNK         0.1400 
     76 CB         -4.1085  -24.4460  -45.5513 C.3       13 UNK        -0.1800 
     77 C          -3.0080  -26.0993  -47.1246 C.2       13 UNK         0.5000 
     78 O          -3.5261  -27.1980  -47.3237 O.2       13 UNK        -0.5000 
     79 N          -1.6841  -25.9003  -47.0476 N.am      14 UNK        -0.5000 
     80 CA         -0.6754  -26.9425  -47.2506 C.3       14 UNK         0.1400 
     81 CB          0.7041  -26.4069  -46.8383 C.3       14 UNK        -0.1800 
     82 C          -0.6518  -27.4741  -48.6978 C.2       14 UNK         0.5000 
     83 O          -0.4906  -28.6777  -48.9014 O.2       14 UNK        -0.5000 
     84 N          -0.8457  -26.5744  -49.6716 N.am      15 UNK        -0.5000 
     85 CA         -0.9475  -26.8863  -51.0996 C.3       15 UNK         0.1400 
     86 CB         -0.6987  -25.5982  -51.9006 C.3       15 UNK        -0.1800 
     87 C          -2.2966  -27.5160  -51.5090 C.2       15 UNK         0.5000 
     88 O          -2.4016  -28.0228  -52.6266 O.2       15 UNK        -0.5000 
     89 N          -3.2993  -27.4531  -50.6194 N.am      16 UNK        -0.5000 
     90 CA         -4.7022  -27.8382  -50.8152 C.3       16 UNK         0.1400 
     91 CB         -4.8375  -29.3552  -51.0607 C.3       16 UNK        -0.1800 
     92 C          -5.4115  -26.9789  -51.8865 C.2       16 UNK         0.5000 
     93 O          -6.2693  -27.4729  -52.6200 O.2       16 UNK        -0.5000 
     94 N          -5.0487  -25.6924  -51.9400 N.am      17 UNK        -0.5000 
     95 CA         -5.5399  -24.6821  -52.8725 C.3       17 UNK         0.1400 
     96 CB         -4.3347  -23.8866  -53.3980 C.3       17 UNK        -0.1800 
     97 C          -6.5909  -23.7951  -52.1772 C.2       17 UNK         0.5000 
     98 O          -6.4434  -22.5704  -52.1029 O.2       17 UNK        -0.5000 
     99 N          -7.6195  -24.4580  -51.6268 N.am      18 UNK        -0.5000 
    100 CA        -8.8111  -23.9104  -50.9603 C.3       18 UNK         0.1400 
    101 CB        -9.6553  -23.1049  -51.9698 C.3       18 UNK        -0.1800 
    102 C         -8.5417  -23.0920  -49.6774 C.2       18 UNK         0.5000 
    103 O         -9.4783  -22.5006  -49.1392 O.2       18 UNK        -0.5000 
    104 N         -7.2791  -23.0503  -49.2230 N.am      19 UNK        -0.5000 
    105 CA        -6.7517  -22.1980  -48.1495 C.3       19 UNK         0.1400 
    106 CB        -7.3233  -22.6152  -46.7792 C.3       19 UNK        -0.1800 
    107 C         -6.9128  -20.6871  -48.4386 C.2       19 UNK         0.5000 
    108 O         -6.9985  -19.8937  -47.5005 O.2       19 UNK        -0.5000 
    109 N         -6.9652  -20.3189  -49.7283 N.am      20 UNK        -0.5000 
    110 CA        -7.2887  -18.9655  -50.1840 C.3       20 UNK         0.1400 
    111 CB        -8.7565  -18.9383  -50.6427 C.3       20 UNK        -0.1800 
    112 C         -6.3670  -18.4522  -51.3027 C.2       20 UNK         0.5000 
    113 O         -6.2356  -17.2349  -51.4393 O.2       20 UNK        -0.5000 
    114 N         -5.7678  -19.3544  -52.0932 N.am      21 UNK        -0.5000 
    115 CA        -4.8734  -19.0099  -53.2000 C.3       21 UNK         0.1400 
    116 CB        -5.1245  -19.9997  -54.3539 C.3       21 UNK        -0.1800 
    117 C         -3.4084  -18.9554  -52.7138 C.2       21 UNK         0.5000 
    118 O         -3.0958  -18.1628  -51.8248 O.2       21 UNK        -0.5000 
    119 N         -2.5468  -19.8007  -53.2880 N.am      22 UNK        -0.5000 
    120 CA        -1.1396  -20.0125  -52.9244 C.3       22 UNK         0.1400 
    121 C         -0.8193  -21.5286  -52.9935 C.2       22 UNK         0.5000 
    122 N          0.1818  -21.9940  -52.2619 N.am      22 UNK        -0.7600 
    123 O         -1.4457  -22.2857  -53.7312 O.2       22 UNK        -0.5000 
    124 C124       -0.1767  -19.2264  -53.8524 C.3       23 UNK        -0.0398 
    125 S125       -0.1471  -17.4332  -53.5170 S.3       23 UNK        -0.2404 
    126 C126        1.6412  -17.1037  -53.4109 C.3       23 UNK        -0.0205 
    127 H127        7.6235  -15.1872  -43.8446 H         1 UNK         0.0600 
    128 H128        7.6617  -15.6885  -45.5384 H         1 UNK         0.0600 
    129 H129        6.6307  -16.5443  -44.3876 H         1 UNK         0.0600 
    130 H130        6.5018  -14.3089  -46.8559 H         1 UNK         0.3000 
    131 H131        3.7822  -13.7026  -46.3956 H         1 UNK         0.0600 
    132 H132        3.8220  -12.5299  -48.5482 H         1 UNK         0.0800 
    133 H133        5.5648  -12.4711  -48.5345 H         1 UNK         0.0800 
    134 H134        2.8760  -15.5625  -47.8972 H         1 UNK         0.0800 
    135 H135        2.3753  -14.4741  -49.1757 H         1 UNK         0.0800 
    136 H136        1.9530  -15.2964  -51.4088 H         1 UNK         0.1150 
    137 H137        2.6424  -19.4254  -52.3398 H         1 UNK         0.1150 
    138 H138        3.7748  -17.8705  -48.5098 H         1 UNK         0.1150 
    139 H139        4.5598  -20.4494  -50.7380 H         1 UNK         0.0800 
    140 H140        4.3452  -20.1085  -49.0410 H         1 UNK         0.0800 
    141 H141        0.8227  -20.0820  -48.9703 H         1 UNK         0.0800 
    142 H142        2.1312  -20.3151  -47.8454 H         1 UNK         0.0800 
    143 H143        1.4126  -22.7005  -47.4804 H         1 UNK         0.0600 
    144 H144        0.1111  -20.4023  -46.4805 H         1 UNK         0.3000 
    145 H145       -2.1107  -22.0143  -44.1779 H         1 UNK         0.0600 
    146 H146       -0.9389  -20.4427  -42.6728 H         1 UNK         0.0600 
    147 H147        0.1249  -21.7820  -43.0758 H         1 UNK         0.0600 
    148 H148        0.3514  -20.2181  -43.8513 H         1 UNK         0.0600 
    149 H149       -1.7392  -19.2678  -44.8054 H         1 UNK         0.3000 
    150 H150       -4.1708  -19.0931  -47.4614 H         1 UNK         0.0600 
    151 H151       -5.3943  -18.8654  -45.3101 H         1 UNK         0.0600 
    152 H152       -4.9726  -17.2881  -45.9597 H         1 UNK         0.0600 
    153 H153       -4.0528  -17.9637  -44.6162 H         1 UNK         0.0600 
    154 H154       -2.4987  -17.0774  -46.3973 H         1 UNK         0.3000 
    155 H155        0.3459  -17.6199  -48.5189 H         1 UNK         0.0600 
    156 H156       -1.2617  -16.2513  -49.8148 H         1 UNK         0.0600 
    157 H157       -0.1245  -15.2226  -48.9589 H         1 UNK         0.0600 
    158 H158       -1.7718  -15.4103  -48.3568 H         1 UNK         0.0600 
    159 H159       -0.2845  -15.7836  -46.3783 H         1 UNK         0.3000 
    160 H160        1.3013  -17.6782  -43.7949 H         1 UNK         0.0600 
    161 H161        2.0783  -15.0777  -45.2218 H         1 UNK         0.0600 
    162 H162        3.1161  -16.4913  -45.0743 H         1 UNK         0.0600 
    163 H163        2.6269  -15.6149  -43.6359 H         1 UNK         0.0600 
    164 H164        0.1254  -15.1184  -43.6629 H         1 UNK         0.3000 
    165 H165       -3.2745  -16.1303  -43.1562 H         1 UNK         0.0600 
    166 H166       -2.9536  -14.6932  -41.1742 H         1 UNK         0.0600 
    167 H167       -2.1364  -16.2308  -40.9460 H         1 UNK         0.0600 
    168 H168       -1.2018  -14.7957  -41.3397 H         1 UNK         0.0600 
    169 H169       -2.2258  -13.5313  -43.2972 H         1 UNK         0.3000 
    170 H170       -2.0177  -12.9809  -46.6793 H         1 UNK         0.0600 
    171 H171       -4.4395  -13.4231  -46.9496 H         1 UNK         0.0600 
    172 H172       -4.7842  -12.5952  -45.4361 H         1 UNK         0.0600 
    173 H173       -4.1338  -11.7006  -46.8102 H         1 UNK         0.0600 
    174 H174       -2.9692  -11.3002  -44.5260 H         1 UNK         0.3000 
    175 H175       -0.0003  -13.2814  -45.3247 H         1 UNK         0.0600 
    176 H176        0.9851  -10.6523  -46.5467 H         1 UNK         0.0600 
    177 H177        1.4193  -12.2845  -47.0576 H         1 UNK         0.0600 
    178 H178       -0.2135  -11.6930  -47.2941 H         1 UNK         0.0600 
    179 H179        2.1236  -11.4736  -44.5885 H         1 UNK         0.3000 
    180 H180        2.2683  -11.4997  -41.5580 H         1 UNK         0.0600 
    181 H181        3.3686  -14.3474  -41.7933 H         1 UNK         0.0600 
    182 H182        2.1720  -13.7950  -40.6264 H         1 UNK         0.0600 
    183 H183        3.8116  -13.1740  -40.5583 H         1 UNK         0.0600 
    184 H184        4.3144  -12.6630  -43.3875 H         1 UNK         0.3000 
    185 H185        5.2542   -9.5038  -44.6187 H         1 UNK         0.0600 
    186 H186        6.6648   -9.5040  -42.5544 H         1 UNK         0.0600 
    187 H187        6.9396  -11.2339  -42.7242 H         1 UNK         0.0600 
    188 H188        7.5679  -10.1124  -43.9327 H         1 UNK         0.0600 
    189 H189        6.2806  -12.1960  -44.8816 H         1 UNK         0.3000 
    190 H190       -1.5416  -21.0109  -48.6452 H         1 UNK         0.3000 
    191 H191       -2.1958  -22.7944  -50.7285 H         1 UNK         0.0600 
    192 H192       -3.1138  -20.5088  -50.4583 H         1 UNK         0.0600 
    193 H193       -4.4106  -21.6856  -50.6172 H         1 UNK         0.0600 
    194 H194       -4.0095  -21.0004  -49.0411 H         1 UNK         0.0600 
    195 H195       -3.0992  -22.8995  -47.2501 H         1 UNK         0.3000 
    196 H196       -4.8784  -25.1042  -47.4377 H         1 UNK         0.0600 
    197 H197       -4.5506  -25.2627  -44.9796 H         1 UNK         0.0600 
    198 H198       -4.7792  -23.5913  -45.4680 H         1 UNK         0.0600 
    199 H199       -3.1686  -24.1796  -45.0686 H         1 UNK         0.0600 
    200 H200       -1.3419  -24.9647  -46.8513 H         1 UNK         0.3000 
    201 H201       -0.9229  -27.7796  -46.5946 H         1 UNK         0.0600 
    202 H202        0.7070  -26.0886  -45.7956 H         1 UNK         0.0600 
    203 H203        1.0058  -25.5542  -47.4469 H         1 UNK         0.0600 
    204 H204        1.4699  -27.1757  -46.9471 H         1 UNK         0.0600 
    205 H205       -0.8855  -25.5912  -49.4191 H         1 UNK         0.3000 
    206 H206       -0.1625  -27.6015  -51.3529 H         1 UNK         0.0600 
    207 H207        0.2684  -25.1610  -51.6526 H         1 UNK         0.0600 
    208 H208       -0.7017  -25.7947  -52.9735 H         1 UNK         0.0600 
    209 H209       -1.4670  -24.8500  -51.7051 H         1 UNK         0.0600 
    210 H210       -3.1034  -26.9840  -49.7449 H         1 UNK         0.3000 
    211 H211       -5.2045  -27.6148  -49.8730 H         1 UNK         0.0600 
    212 H212       -4.4242  -29.6508  -52.0252 H         1 UNK         0.0600 
    213 H213       -5.8845  -29.6601  -51.0485 H         1 UNK         0.0600 
    214 H214       -4.3253  -29.9262  -50.2862 H         1 UNK         0.0600 
    215 H215       -4.3971  -25.3556  -51.2312 H         1 UNK         0.3000 
    216 H216       -6.0233  -25.1620  -53.7257 H         1 UNK         0.0600 
    217 H217       -4.6308  -23.2379  -54.2208 H         1 UNK         0.0600 
    218 H218       -3.5590  -24.5505  -53.7806 H         1 UNK         0.0600 
    219 H219       -3.8840  -23.2664  -52.6225 H         1 UNK         0.0600 
    220 H220       -7.6100  -25.4651  -51.7197 H         1 UNK         0.3000 
    221 H221       -9.4028  -24.7713  -50.6460 H         1 UNK         0.0600 
    222 H222       -9.1473  -22.1933  -52.2863 H         1 UNK         0.0600 
    223 H223       -9.8729  -23.6939  -52.8608 H         1 UNK         0.0600 
    224 H224      -10.6126  -22.8104  -51.5382 H         1 UNK         0.0600 
    225 H225       -6.5916  -23.5707  -49.7487 H         1 UNK         0.3000 
    226 H226       -5.6806  -22.3787  -48.1125 H         1 UNK         0.0600 
    227 H227       -7.1912  -23.6830  -46.6058 H         1 UNK         0.0600 
    228 H228       -6.8133  -22.0912  -45.9699 H         1 UNK         0.0600 
    229 H229       -8.3863  -22.3888  -46.6955 H         1 UNK         0.0600 
    230 H230       -6.8987  -21.0389  -50.4359 H         1 UNK         0.3000 
    231 H231       -7.1803  -18.2572  -49.3599 H         1 UNK         0.0600 
    232 H232       -8.9317  -19.6310  -51.4669 H         1 UNK         0.0600 
    233 H233       -9.0451  -17.9423  -50.9810 H         1 UNK         0.0600 
    234 H234       -9.4279  -19.2124  -49.8286 H         1 UNK         0.0600 
    235 H235       -5.9216  -20.3416  -51.9399 H         1 UNK         0.3000 
    236 H236       -5.1129  -18.0133  -53.5767 H         1 UNK         0.0600 
    237 H237       -6.1622  -19.9540  -54.6853 H         1 UNK         0.0600 
    238 H238       -4.5032  -19.7705  -55.2207 H         1 UNK         0.0600 
    239 H239       -4.9238  -21.0257  -54.0521 H         1 UNK         0.0600 
    240 H240       -2.8930  -20.4620  -53.9701 H         1 UNK         0.3000 
    241 H241       -0.9831  -19.6999  -51.8893 H         1 UNK         0.0600 
    242 H242        0.4010  -22.9749  -52.3199 H         1 UNK         0.3800 
    243 H243        0.7316  -21.4041  -51.6569 H         1 UNK         0.3800 
    244 H244        0.8391  -19.6113  -53.7618 H         1 UNK         0.0800 
    245 H245       -0.4515  -19.3756  -54.8978 H         1 UNK         0.0800 
    246 H246        1.8137  -16.0653  -53.6981 H         1 UNK         0.0800 
    247 H247        2.1807  -17.7037  -54.1452 H         1 UNK         0.0800 
@<TRIPOS>BOND
     1    1    2 1    
     2    1  127 1    
     3    1  128 1    
     4    1  129 1    
     5    2    3 2    
     6    2    4 am   BACKBONE|DICT|INTERRES
     7    4    5 1    
     8    4  130 1    
     9    5    6 1    
    10    5   65 1    
    11    5  131 1    
    12    6    7 1    
    13    6  132 1    
    14    6  133 1    
    15    7    8 1    
    16    8    9 1    
    17    8  134 1    
    18    8  135 1    
    19    9   10 ar   
    20    9   14 ar   
    21   10   11 ar   
    22   10  136 1    
    23   11   12 ar   
    24   11  126 1    
    25   12   13 ar   
    26   12  137 1    
    27   13   14 ar   
    28   13   15 1    
    29   14  138 1    
    30   15   16 1    
    31   15  139 1    
    32   15  140 1    
    33   16   17 1    
    34   17   18 1    
    35   17  141 1    
    36   17  142 1    
    37   18   19 1    
    38   18   67 1    
    39   18  143 1    
    40   19   20 am   BACKBONE|DICT|INTERRES
    41   19  144 1    
    42   20   21 2    
    43   20   22 1    
    44   22   23 1    
    45   22   24 1    
    46   22  145 1    
    47   23  146 1    
    48   23  147 1    
    49   23  148 1    
    50   24   25 am   BACKBONE|DICT|INTERRES
    51   24  149 1    
    52   25   26 2    
    53   25   27 1    
    54   27   28 1    
    55   27   29 1    
    56   27  150 1    
    57   28  151 1    
    58   28  152 1    
    59   28  153 1    
    60   29   30 am   BACKBONE|DICT|INTERRES
    61   29  154 1    
    62   30   31 2    
    63   30   32 1    
    64   32   33 1    
    65   32   34 1    
    66   32  155 1    
    67   33  156 1    
    68   33  157 1    
    69   33  158 1    
    70   34   35 am   BACKBONE|DICT|INTERRES
    71   34  159 1    
    72   35   36 2    
    73   35   37 1    
    74   37   38 1    
    75   37   39 1    
    76   37  160 1    
    77   38  161 1    
    78   38  162 1    
    79   38  163 1    
    80   39   40 am   BACKBONE|DICT|INTERRES
    81   39  164 1    
    82   40   41 2    
    83   40   42 1    
    84   42   43 1    
    85   42   44 1    
    86   42  165 1    
    87   43  166 1    
    88   43  167 1    
    89   43  168 1    
    90   44   45 am   BACKBONE|DICT|INTERRES
    91   44  169 1    
    92   45   46 2    
    93   45   47 1    
    94   47   48 1    
    95   47   49 1    
    96   47  170 1    
    97   48  171 1    
    98   48  172 1    
    99   48  173 1    
   100   49   50 am   BACKBONE|DICT|INTERRES
   101   49  174 1    
   102   50   51 2    
   103   50   52 1    
   104   52   53 1    
   105   52   54 1    
   106   52  175 1    
   107   53  176 1    
   108   53  177 1    
   109   53  178 1    
   110   54   55 am   BACKBONE|DICT|INTERRES
   111   54  179 1    
   112   55   56 2    
   113   55   57 1    
   114   57   58 1    
   115   57   59 1    
   116   57  180 1    
   117   58  181 1    
   118   58  182 1    
   119   58  183 1    
   120   59   60 am   BACKBONE|DICT|INTERRES
   121   59  184 1    
   122   60   61 2    
   123   60   62 1    
   124   62   63 1    
   125   62   64 1    
   126   62  185 1    
   127   63  186 1    
   128   63  187 1    
   129   63  188 1    
   130   64   65 am   BACKBONE|DICT|INTERRES
   131   64  189 1    
   132   65   66 2    
   133   67   68 2    
   134   67   69 am   BACKBONE|DICT|INTERRES
   135   69   70 1    
   136   69  190 1    
   137   70   71 1    
   138   70   72 1    
   139   70  191 1    
   140   71  192 1    
   141   71  193 1    
   142   71  194 1    
   143   72   73 2    
   144   72   74 am   BACKBONE|DICT|INTERRES
   145   74   75 1    
   146   74  195 1    
   147   75   76 1    
   148   75   77 1    
   149   75  196 1    
   150   76  197 1    
   151   76  198 1    
   152   76  199 1    
   153   77   78 2    
   154   77   79 am   BACKBONE|DICT|INTERRES
   155   79   80 1    
   156   79  200 1    
   157   80   81 1    
   158   80   82 1    
   159   80  201 1    
   160   81  202 1    
   161   81  203 1    
   162   81  204 1    
   163   82   83 2    
   164   82   84 am   BACKBONE|DICT|INTERRES
   165   84   85 1    
   166   84  205 1    
   167   85   86 1    
   168   85   87 1    
   169   85  206 1    
   170   86  207 1    
   171   86  208 1    
   172   86  209 1    
   173   87   88 2    
   174   87   89 am   BACKBONE|DICT|INTERRES
   175   89   90 1    
   176   89  210 1    
   177   90   91 1    
   178   90   92 1    
   179   90  211 1    
   180   91  212 1    
   181   91  213 1    
   182   91  214 1    
   183   92   93 2    
   184   92   94 am   BACKBONE|DICT|INTERRES
   185   94   95 1    
   186   94  215 1    
   187   95   96 1    
   188   95   97 1    
   189   95  216 1    
   190   96  217 1    
   191   96  218 1    
   192   96  219 1    
   193   97   98 2    
   194   97   99 am   BACKBONE|DICT|INTERRES
   195   99  100 1    
   196   99  220 1    
   197  100  101 1    
   198  100  102 1    
   199  100  221 1    
   200  101  222 1    
   201  101  223 1    
   202  101  224 1    
   203  102  103 2    
   204  102  104 am   BACKBONE|DICT|INTERRES
   205  104  105 1    
   206  104  225 1    
   207  105  106 1    
   208  105  107 1    
   209  105  226 1    
   210  106  227 1    
   211  106  228 1    
   212  106  229 1    
   213  107  108 2    
   214  107  109 am   BACKBONE|DICT|INTERRES
   215  109  110 1    
   216  109  230 1    
   217  110  111 1    
   218  110  112 1    
   219  110  231 1    
   220  111  232 1    
   221  111  233 1    
   222  111  234 1    
   223  112  113 2    
   224  112  114 am   BACKBONE|DICT|INTERRES
   225  114  115 1    
   226  114  235 1    
   227  115  116 1    
   228  115  117 1    
   229  115  236 1    
   230  116  237 1    
   231  116  238 1    
   232  116  239 1    
   233  117  118 2    
   234  117  119 am   BACKBONE|DICT|INTERRES
   235  119  120 1    
   236  119  240 1    
   237  120  121 1    
   238  120  124 1    
   239  120  241 1    
   240  121  122 am   BACKBONE|DICT|INTERRES
   241  121  123 2    
   242  122  242 1    
   243  122  243 1    
   244  124  125 1    
   245  124  244 1    
   246  124  245 1    
   247  125  126 1    
   248  126  246 1    
   249  126  247 1    
@<TRIPOS>SUBSTRUCTURE
     1 UNK         1 GROUP             0       ****    0 ROOT    
