@<TRIPOS>MOLECULE
3R540
247   249    1
SMALL
USER_CHARGES


@<TRIPOS>ATOM
      1 CA         -1.2561  -12.2415  -46.2683 C.3       0 UNK        -0.1800 
      2 C          -0.2986  -11.5434  -47.2236 C.2       0 UNK         0.5000 
      3 O          -0.2556  -10.3141  -47.2641 O.2       0 UNK        -0.5000 
      4 N           0.4703  -12.3263  -47.9924 N.am      1 UNK        -0.5000 
      5 CA          1.4699  -11.8474  -48.9590 C.3       1 UNK         0.1400 
      6 C6          1.7890  -12.9288  -50.0344 C.3       23 UNK        -0.0398 
      7 S7          3.0898  -14.1591  -49.6378 S.3       23 UNK        -0.2404 
      8 C8          2.2802  -15.2540  -48.4344 C.3       23 UNK        -0.0205 
      9 C9          1.3379  -16.2540  -49.0864 C.ar      23 UNK        -0.0193 
     10 C10        -0.0221  -15.9643  -49.2371 C.ar      23 UNK        -0.1150 
     11 C11        -0.8964  -16.9174  -49.7677 C.ar      23 UNK        -0.0193 
     12 C12        -0.4042  -18.1751  -50.1253 C.ar      23 UNK        -0.1150 
     13 C13         0.9527  -18.4758  -49.9880 C.ar      23 UNK        -0.0193 
     14 C14         1.8227  -17.5015  -49.4888 C.ar      23 UNK        -0.1150 
     15 C15         1.4568  -19.8676  -50.3519 C.3       23 UNK        -0.0205 
     16 S16         2.4369  -20.6784  -49.0384 S.3       23 UNK        -0.2404 
     17 C17         1.5122  -20.3172  -47.5037 C.3       23 UNK        -0.0398 
     18 CA          0.4715  -21.3922  -47.1186 C.3       11 UNK         0.1400 
     19 N           0.1922  -21.3635  -45.6824 N.am      11 UNK        -0.5000 
     20 C          -0.5415  -22.2634  -45.0151 C.2       10 UNK         0.5000 
     21 O          -1.0321  -23.2678  -45.5310 O.2       10 UNK        -0.5000 
     22 CA         -0.8161  -21.9532  -43.5317 C.3       10 UNK         0.1400 
     23 CB          0.3901  -22.3231  -42.6559 C.3       10 UNK        -0.1800 
     24 N          -1.1693  -20.5477  -43.3190 N.am      10 UNK        -0.5000 
     25 C          -2.2782  -19.9740  -43.8081 C.2       9 UNK         0.5000 
     26 O          -3.1448  -20.5906  -44.4289 O.2       9 UNK        -0.5000 
     27 CA         -2.4296  -18.4552  -43.6048 C.3       9 UNK         0.1400 
     28 CB         -2.9826  -18.1488  -42.2052 C.3       9 UNK        -0.1800 
     29 N          -1.1811  -17.7190  -43.8160 N.am      9 UNK        -0.5000 
     30 C          -0.5303  -17.6432  -44.9860 C.2       8 UNK         0.5000 
     31 O          -0.9304  -18.1670  -46.0214 O.2       8 UNK        -0.5000 
     32 CA          0.8234  -16.9113  -44.9979 C.3       8 UNK         0.1400 
     33 CB          0.6263  -15.3898  -45.0586 C.3       8 UNK        -0.1800 
     34 N           1.6592  -17.2614  -43.8508 N.am      8 UNK        -0.5000 
     35 C           2.0954  -18.4993  -43.5759 C.2       7 UNK         0.5000 
     36 O           1.8780  -19.4779  -44.2890 O.2       7 UNK        -0.5000 
     37 CA          2.8502  -18.6853  -42.2508 C.3       7 UNK         0.1400 
     38 CB          4.3197  -18.2603  -42.3881 C.3       7 UNK        -0.1800 
     39 N           2.2136  -17.9408  -41.1652 N.am      7 UNK        -0.5000 
     40 C           1.0301  -18.2643  -40.6248 C.2       6 UNK         0.5000 
     41 O           0.3734  -19.2525  -40.9559 O.2       6 UNK        -0.5000 
     42 CA          0.4716  -17.2958  -39.5658 C.3       6 UNK         0.1400 
     43 CB          1.0970  -17.5740  -38.1908 C.3       6 UNK        -0.1800 
     44 N           0.6823  -15.8907  -39.9217 N.am      6 UNK        -0.5000 
     45 C           0.0842  -15.2796  -40.9538 C.2       5 UNK         0.5000 
     46 O          -0.7266  -15.8325  -41.6948 O.2       5 UNK        -0.5000 
     47 CA          0.4832  -13.8192  -41.2329 C.3       5 UNK         0.1400 
     48 CB         -0.3822  -12.8559  -40.4078 C.3       5 UNK        -0.1800 
     49 N           1.8970  -13.5218  -40.9940 N.am      5 UNK        -0.5000 
     50 C           2.9355  -14.1296  -41.5812 C.2       4 UNK         0.5000 
     51 O           2.8210  -15.0927  -42.3409 O.2       4 UNK        -0.5000 
     52 CA          4.3247  -13.5263  -41.2910 C.3       4 UNK         0.1400 
     53 CB          5.4723  -14.4510  -41.7339 C.3       4 UNK        -0.1800 
     54 N           4.4740  -12.2365  -41.9634 N.am      4 UNK        -0.5000 
     55 C           3.9087  -11.0842  -41.5777 C.2       3 UNK         0.5000 
     56 O           3.2706  -10.9590  -40.5308 O.2       3 UNK        -0.5000 
     57 CA          4.0610   -9.8734  -42.5214 C.3       3 UNK         0.1400 
     58 CB          5.1576   -8.9282  -42.0067 C.3       3 UNK        -0.1800 
     59 N           4.3553  -10.2292  -43.9144 N.am      3 UNK        -0.5000 
     60 C           3.5184  -10.8728  -44.7391 C.2       2 UNK         0.5000 
     61 O           2.3958  -11.2675  -44.4107 O.2       2 UNK        -0.5000 
     62 CA          4.0414  -11.1383  -46.1588 C.3       2 UNK         0.1400 
     63 CB          5.1176  -12.2384  -46.1568 C.3       2 UNK        -0.1800 
     64 N           2.9299  -11.5675  -46.9961 N.am      2 UNK        -0.5000 
     65 C           2.7347  -11.2600  -48.2835 C.2       1 UNK         0.5000 
     66 O           3.5014  -10.5539  -48.9407 O.2       1 UNK        -0.5000 
     67 C          -0.8204  -21.2704  -47.9544 C.2       11 UNK         0.5000 
     68 O          -0.9974  -22.0356  -48.9002 O.2       11 UNK        -0.5000 
     69 N          -1.7186  -20.3528  -47.5660 N.am      12 UNK        -0.5000 
     70 CA         -3.0367  -20.1490  -48.1687 C.3       12 UNK         0.1400 
     71 CB         -3.7448  -18.9629  -47.4941 C.3       12 UNK        -0.1800 
     72 C          -3.9183  -21.4036  -48.0958 C.2       12 UNK         0.5000 
     73 O          -4.5088  -21.7824  -49.1060 O.2       12 UNK        -0.5000 
     74 N          -3.9570  -22.0433  -46.9182 N.am      13 UNK        -0.5000 
     75 CA         -4.6687  -23.2983  -46.6800 C.3       13 UNK         0.1400 
     76 CB         -4.6526  -23.6220  -45.1787 C.3       13 UNK        -0.1800 
     77 C          -4.0995  -24.4676  -47.5036 C.2       13 UNK         0.5000 
     78 O          -4.8710  -25.2206  -48.0988 O.2       13 UNK        -0.5000 
     79 N          -2.7639  -24.5770  -47.5538 N.am      14 UNK        -0.5000 
     80 CA         -2.0448  -25.5675  -48.3566 C.3       14 UNK         0.1400 
     81 CB         -0.5476  -25.5210  -48.0162 C.3       14 UNK        -0.1800 
     82 C          -2.2719  -25.3837  -49.8682 C.2       14 UNK         0.5000 
     83 O          -2.4893  -26.3701  -50.5718 O.2       14 UNK        -0.5000 
     84 N          -2.2522  -24.1262  -50.3313 N.am      15 UNK        -0.5000 
     85 CA         -2.5601  -23.7392  -51.7053 C.3       15 UNK         0.1400 
     86 CB         -2.1973  -22.2634  -51.9288 C.3       15 UNK        -0.1800 
     87 C          -4.0269  -24.0202  -52.0684 C.2       15 UNK         0.5000 
     88 O          -4.2775  -24.6565  -53.0899 O.2       15 UNK        -0.5000 
     89 N          -4.9679  -23.6092  -51.2054 N.am      16 UNK        -0.5000 
     90 CA         -6.4104  -23.8252  -51.3666 C.3       16 UNK         0.1400 
     91 CB         -7.1675  -23.1605  -50.2074 C.3       16 UNK        -0.1800 
     92 C          -6.8102  -25.3083  -51.4894 C.2       16 UNK         0.5000 
     93 O          -7.7500  -25.6273  -52.2179 O.2       16 UNK        -0.5000 
     94 N          -6.0700  -26.1845  -50.8004 N.am      17 UNK        -0.5000 
     95 CA         -6.2317  -27.6362  -50.8378 C.3       17 UNK         0.1400 
     96 CB         -5.5892  -28.2260  -49.5714 C.3       17 UNK        -0.1800 
     97 C          -5.6499  -28.3078  -52.1014 C.2       17 UNK         0.5000 
     98 O          -5.8832  -29.5037  -52.2872 O.2       17 UNK        -0.5000 
     99 N          -4.8952  -27.5710  -52.9290 N.am      18 UNK        -0.5000 
    100 CA        -4.1671  -28.1021  -54.0789 C.3       18 UNK         0.1400 
    101 CB        -2.6922  -28.3181  -53.6836 C.3       18 UNK        -0.1800 
    102 C         -4.3446  -27.1894  -55.3038 C.2       18 UNK         0.5000 
    103 O         -5.2819  -27.3875  -56.0777 O.2       18 UNK        -0.5000 
    104 N         -3.4276  -26.2286  -55.4747 N.am      19 UNK        -0.5000 
    105 CA        -3.3220  -25.3240  -56.6228 C.3       19 UNK         0.1400 
    106 CB        -1.9624  -24.6106  -56.5464 C.3       19 UNK        -0.1800 
    107 C         -4.4559  -24.2857  -56.7531 C.2       19 UNK         0.5000 
    108 O         -4.5939  -23.6927  -57.8240 O.2       19 UNK        -0.5000 
    109 N         -5.2196  -24.0700  -55.6741 N.am      20 UNK        -0.5000 
    110 CA        -6.2313  -23.0298  -55.4885 C.3       20 UNK         0.1400 
    111 CB        -7.3697  -23.1275  -56.5303 C.3       20 UNK        -0.1800 
    112 C         -5.5531  -21.6504  -55.3793 C.2       20 UNK         0.5000 
    113 O         -4.6625  -21.4959  -54.5396 O.2       20 UNK        -0.5000 
    114 N         -5.9762  -20.6810  -56.2041 N.am      21 UNK        -0.5000 
    115 CA        -5.4661  -19.3085  -56.2869 C.3       21 UNK         0.1400 
    116 CB        -4.0464  -19.3007  -56.8992 C.3       21 UNK        -0.1800 
    117 C         -5.5708  -18.5776  -54.9314 C.2       21 UNK         0.5000 
    118 O         -6.6796  -18.2264  -54.5248 O.2       21 UNK        -0.5000 
    119 N         -4.4315  -18.3793  -54.2571 N.am      22 UNK        -0.5000 
    120 CA        -4.3397  -17.8212  -52.8994 C.3       22 UNK         0.1400 
    121 C         -4.8677  -18.7752  -51.7833 C.2       22 UNK         0.5000 
    122 N         -4.9577  -20.0814  -52.0058 N.am      22 UNK        -0.7600 
    123 O         -5.2208  -18.3209  -50.7003 O.2       22 UNK        -0.5000 
    124 C124       -2.8928  -17.3338  -52.6055 C.3       23 UNK        -0.0398 
    125 S125       -2.8078  -15.8706  -51.5131 S.3       23 UNK        -0.2404 
    126 C126       -2.3795  -16.6056  -49.9031 C.3       23 UNK        -0.0205 
    127 H127       -1.4391  -13.2744  -46.5643 H         1 UNK         0.0600 
    128 H128       -2.2154  -11.7241  -46.2494 H         1 UNK         0.0600 
    129 H129       -0.8456  -12.2390  -45.2583 H         1 UNK         0.0600 
    130 H130        0.3816  -13.3267  -47.9156 H         1 UNK         0.3000 
    131 H131        1.0061  -11.0134  -49.4907 H         1 UNK         0.0600 
    132 H132        0.8807  -13.4483  -50.3409 H         1 UNK         0.0800 
    133 H133        2.1304  -12.4182  -50.9361 H         1 UNK         0.0800 
    134 H134        1.7610  -14.6663  -47.6807 H         1 UNK         0.0800 
    135 H135        3.0578  -15.7944  -47.8921 H         1 UNK         0.0800 
    136 H136       -0.4098  -15.0048  -48.9297 H         1 UNK         0.1150 
    137 H137       -1.0804  -18.9310  -50.4964 H         1 UNK         0.1150 
    138 H138        2.8723  -17.7322  -49.3715 H         1 UNK         0.1150 
    139 H139        0.6224  -20.5226  -50.6069 H         1 UNK         0.0800 
    140 H140        2.0694  -19.7941  -51.2511 H         1 UNK         0.0800 
    141 H141        1.0679  -19.3225  -47.5177 H         1 UNK         0.0800 
    142 H142        2.2771  -20.2688  -46.7286 H         1 UNK         0.0800 
    143 H143        0.9039  -22.3730  -47.3274 H         1 UNK         0.0600 
    144 H144        0.5925  -20.5865  -45.1630 H         1 UNK         0.3000 
    145 H145       -1.6641  -22.5646  -43.2160 H         1 UNK         0.0600 
    146 H146        1.2713  -21.7334  -42.9088 H         1 UNK         0.0600 
    147 H147        0.1735  -22.1612  -41.5998 H         1 UNK         0.0600 
    148 H148        0.6522  -23.3747  -42.7778 H         1 UNK         0.0600 
    149 H149       -0.5184  -19.9846  -42.7835 H         1 UNK         0.3000 
    150 H150       -3.1532  -18.0955  -44.3388 H         1 UNK         0.0600 
    151 H151       -3.9137  -18.6875  -42.0253 H         1 UNK         0.0600 
    152 H152       -3.1954  -17.0859  -42.0907 H         1 UNK         0.0600 
    153 H153       -2.2793  -18.4351  -41.4226 H         1 UNK         0.0600 
    154 H154       -0.8181  -17.2058  -43.0173 H         1 UNK         0.3000 
    155 H155        1.3580  -17.2185  -45.8993 H         1 UNK         0.0600 
    156 H156        1.5815  -14.8656  -45.0971 H         1 UNK         0.0600 
    157 H157        0.0601  -15.1122  -45.9475 H         1 UNK         0.0600 
    158 H158        0.0760  -15.0201  -44.1945 H         1 UNK         0.0600 
    159 H159        1.9268  -16.5034  -43.2278 H         1 UNK         0.3000 
    160 H160        2.8274  -19.7472  -41.9965 H         1 UNK         0.0600 
    161 H161        4.8254  -18.8579  -43.1475 H         1 UNK         0.0600 
    162 H162        4.8609  -18.3983  -41.4520 H         1 UNK         0.0600 
    163 H163        4.4151  -17.2150  -42.6812 H         1 UNK         0.0600 
    164 H164        2.6544  -17.0758  -40.8890 H         1 UNK         0.3000 
    165 H165       -0.6041  -17.4700  -39.4918 H         1 UNK         0.0600 
    166 H166        0.6492  -16.9463  -37.4201 H         1 UNK         0.0600 
    167 H167        0.9406  -18.6121  -37.8944 H         1 UNK         0.0600 
    168 H168        2.1722  -17.3908  -38.1907 H         1 UNK         0.0600 
    169 H169        1.3381  -15.3650  -39.3629 H         1 UNK         0.3000 
    170 H170        0.2891  -13.6233  -42.2888 H         1 UNK         0.0600 
    171 H171       -1.4438  -13.0348  -40.5843 H         1 UNK         0.0600 
    172 H172       -0.2024  -12.9691  -39.3380 H         1 UNK         0.0600 
    173 H173       -0.1799  -11.8182  -40.6744 H         1 UNK         0.0600 
    174 H174        2.0972  -12.6957  -40.4415 H         1 UNK         0.3000 
    175 H175        4.4093  -13.3798  -40.2121 H         1 UNK         0.0600 
    176 H176        5.4531  -14.6357  -42.8089 H         1 UNK         0.0600 
    177 H177        6.4427  -14.0208  -41.4857 H         1 UNK         0.0600 
    178 H178        5.4095  -15.4171  -41.2318 H         1 UNK         0.0600 
    179 H179        4.9588  -12.2481  -42.8480 H         1 UNK         0.3000 
    180 H180        3.1118   -9.3338  -42.5080 H         1 UNK         0.0600 
    181 H181        6.1381   -9.4058  -42.0177 H         1 UNK         0.0600 
    182 H182        4.9559   -8.6165  -40.9809 H         1 UNK         0.0600 
    183 H183        5.2164   -8.0239  -42.6128 H         1 UNK         0.0600 
    184 H184        5.2599   -9.9453  -44.2631 H         1 UNK         0.3000 
    185 H185        4.4638  -10.2082  -46.5448 H         1 UNK         0.0600 
    186 H186        5.4725  -12.4421  -47.1674 H         1 UNK         0.0600 
    187 H187        5.9842  -11.9455  -45.5634 H         1 UNK         0.0600 
    188 H188        4.7350  -13.1733  -45.7445 H         1 UNK         0.0600 
    189 H189        2.2034  -12.0643  -46.4984 H         1 UNK         0.3000 
    190 H190       -1.4646  -19.7053  -46.8226 H         1 UNK         0.3000 
    191 H191       -2.8853  -19.9084  -49.2220 H         1 UNK         0.0600 
    192 H192       -3.9980  -19.1753  -46.4566 H         1 UNK         0.0600 
    193 H193       -4.6745  -18.7235  -48.0112 H         1 UNK         0.0600 
    194 H194       -3.1266  -18.0667  -47.5030 H         1 UNK         0.0600 
    195 H195       -3.4667  -21.6374  -46.1270 H         1 UNK         0.3000 
    196 H196       -5.7073  -23.1534  -46.9839 H         1 UNK         0.0600 
    197 H197       -5.1963  -24.5447  -44.9722 H         1 UNK         0.0600 
    198 H198       -5.1255  -22.8281  -44.6003 H         1 UNK         0.0600 
    199 H199       -3.6367  -23.7471  -44.8029 H         1 UNK         0.0600 
    200 H200       -2.1983  -23.9375  -47.0038 H         1 UNK         0.3000 
    201 H201       -2.4238  -26.5543  -48.0830 H         1 UNK         0.0600 
    202 H202       -0.3778  -25.7219  -46.9583 H         1 UNK         0.0600 
    203 H203       -0.1116  -24.5484  -48.2451 H         1 UNK         0.0600 
    204 H204        0.0051  -26.2708  -48.5835 H         1 UNK         0.0600 
    205 H205       -2.0002  -23.3729  -49.6949 H         1 UNK         0.3000 
    206 H206       -1.9364  -24.3405  -52.3699 H         1 UNK         0.0600 
    207 H207       -1.1288  -22.0982  -51.7919 H         1 UNK         0.0600 
    208 H208       -2.4489  -21.9456  -52.9412 H         1 UNK         0.0600 
    209 H209       -2.7239  -21.6086  -51.2349 H         1 UNK         0.0600 
    210 H210       -4.6826  -23.0834  -50.3814 H         1 UNK         0.3000 
    211 H211       -6.7130  -23.3260  -52.2862 H         1 UNK         0.0600 
    212 H212       -6.8601  -23.5662  -49.2433 H         1 UNK         0.0600 
    213 H213       -8.2431  -23.3146  -50.3015 H         1 UNK         0.0600 
    214 H214       -6.9968  -22.0842  -50.1893 H         1 UNK         0.0600 
    215 H215       -5.3423  -25.8265  -50.1927 H         1 UNK         0.3000 
    216 H216       -7.2988  -27.8658  -50.8130 H         1 UNK         0.0600 
    217 H217       -5.7197  -29.3079  -49.5291 H         1 UNK         0.0600 
    218 H218       -6.0406  -27.8103  -48.6703 H         1 UNK         0.0600 
    219 H219       -4.5186  -28.0215  -49.5334 H         1 UNK         0.0600 
    220 H220       -4.7738  -26.5802  -52.7448 H         1 UNK         0.3000 
    221 H221       -4.5741  -29.0721  -54.3718 H         1 UNK         0.0600 
    222 H222       -2.2404  -27.4133  -53.2750 H         1 UNK         0.0600 
    223 H223       -2.6057  -29.0952  -52.9240 H         1 UNK         0.0600 
    224 H224       -2.0953  -28.6359  -54.5395 H         1 UNK         0.0600 
    225 H225       -2.7262  -26.1157  -54.7580 H         1 UNK         0.3000 
    226 H226       -3.3389  -25.9330  -57.5287 H         1 UNK         0.0600 
    227 H227       -1.1394  -25.3255  -56.5412 H         1 UNK         0.0600 
    228 H228       -1.8140  -23.9540  -57.4047 H         1 UNK         0.0600 
    229 H229       -1.8831  -23.9976  -55.6474 H         1 UNK         0.0600 
    230 H230       -4.9329  -24.5338  -54.8149 H         1 UNK         0.3000 
    231 H231       -6.6791  -23.2231  -54.5157 H         1 UNK         0.0600 
    232 H232       -8.1861  -22.4490  -56.2804 H         1 UNK         0.0600 
    233 H233       -7.7882  -24.1339  -56.5521 H         1 UNK         0.0600 
    234 H234       -7.0385  -22.8873  -57.5406 H         1 UNK         0.0600 
    235 H235       -6.7305  -20.9015  -56.8386 H         1 UNK         0.3000 
    236 H236       -6.1217  -18.7721  -56.9745 H         1 UNK         0.0600 
    237 H237       -3.6634  -18.2836  -56.9918 H         1 UNK         0.0600 
    238 H238       -4.0563  -19.7306  -57.9009 H         1 UNK         0.0600 
    239 H239       -3.3327  -19.8742  -56.3070 H         1 UNK         0.0600 
    240 H240       -3.5772  -18.7427  -54.6527 H         1 UNK         0.3000 
    241 H241       -4.9949  -16.9480  -52.8858 H         1 UNK         0.0600 
    242 H242       -5.2805  -20.6751  -51.2585 H         1 UNK         0.3800 
    243 H243       -4.7263  -20.4836  -52.9098 H         1 UNK         0.3800 
    244 H244       -2.2723  -18.1447  -52.2271 H         1 UNK         0.0800 
    245 H245       -2.4133  -17.0231  -53.5349 H         1 UNK         0.0800 
    246 H246       -2.6844  -15.9194  -49.1118 H         1 UNK         0.0800 
    247 H247       -2.9639  -17.5108  -49.7569 H         1 UNK         0.0800 
@<TRIPOS>BOND
     1    1    2 1    
     2    1  127 1    
     3    1  128 1    
     4    1  129 1    
     5    2    3 2    
     6    2    4 am   BACKBONE|DICT|INTERRES
     7    4    5 1    
     8    4  130 1    
     9    5    6 1    
    10    5   65 1    
    11    5  131 1    
    12    6    7 1    
    13    6  132 1    
    14    6  133 1    
    15    7    8 1    
    16    8    9 1    
    17    8  134 1    
    18    8  135 1    
    19    9   10 ar   
    20    9   14 ar   
    21   10   11 ar   
    22   10  136 1    
    23   11   12 ar   
    24   11  126 1    
    25   12   13 ar   
    26   12  137 1    
    27   13   14 ar   
    28   13   15 1    
    29   14  138 1    
    30   15   16 1    
    31   15  139 1    
    32   15  140 1    
    33   16   17 1    
    34   17   18 1    
    35   17  141 1    
    36   17  142 1    
    37   18   19 1    
    38   18   67 1    
    39   18  143 1    
    40   19   20 am   BACKBONE|DICT|INTERRES
    41   19  144 1    
    42   20   21 2    
    43   20   22 1    
    44   22   23 1    
    45   22   24 1    
    46   22  145 1    
    47   23  146 1    
    48   23  147 1    
    49   23  148 1    
    50   24   25 am   BACKBONE|DICT|INTERRES
    51   24  149 1    
    52   25   26 2    
    53   25   27 1    
    54   27   28 1    
    55   27   29 1    
    56   27  150 1    
    57   28  151 1    
    58   28  152 1    
    59   28  153 1    
    60   29   30 am   BACKBONE|DICT|INTERRES
    61   29  154 1    
    62   30   31 2    
    63   30   32 1    
    64   32   33 1    
    65   32   34 1    
    66   32  155 1    
    67   33  156 1    
    68   33  157 1    
    69   33  158 1    
    70   34   35 am   BACKBONE|DICT|INTERRES
    71   34  159 1    
    72   35   36 2    
    73   35   37 1    
    74   37   38 1    
    75   37   39 1    
    76   37  160 1    
    77   38  161 1    
    78   38  162 1    
    79   38  163 1    
    80   39   40 am   BACKBONE|DICT|INTERRES
    81   39  164 1    
    82   40   41 2    
    83   40   42 1    
    84   42   43 1    
    85   42   44 1    
    86   42  165 1    
    87   43  166 1    
    88   43  167 1    
    89   43  168 1    
    90   44   45 am   BACKBONE|DICT|INTERRES
    91   44  169 1    
    92   45   46 2    
    93   45   47 1    
    94   47   48 1    
    95   47   49 1    
    96   47  170 1    
    97   48  171 1    
    98   48  172 1    
    99   48  173 1    
   100   49   50 am   BACKBONE|DICT|INTERRES
   101   49  174 1    
   102   50   51 2    
   103   50   52 1    
   104   52   53 1    
   105   52   54 1    
   106   52  175 1    
   107   53  176 1    
   108   53  177 1    
   109   53  178 1    
   110   54   55 am   BACKBONE|DICT|INTERRES
   111   54  179 1    
   112   55   56 2    
   113   55   57 1    
   114   57   58 1    
   115   57   59 1    
   116   57  180 1    
   117   58  181 1    
   118   58  182 1    
   119   58  183 1    
   120   59   60 am   BACKBONE|DICT|INTERRES
   121   59  184 1    
   122   60   61 2    
   123   60   62 1    
   124   62   63 1    
   125   62   64 1    
   126   62  185 1    
   127   63  186 1    
   128   63  187 1    
   129   63  188 1    
   130   64   65 am   BACKBONE|DICT|INTERRES
   131   64  189 1    
   132   65   66 2    
   133   67   68 2    
   134   67   69 am   BACKBONE|DICT|INTERRES
   135   69   70 1    
   136   69  190 1    
   137   70   71 1    
   138   70   72 1    
   139   70  191 1    
   140   71  192 1    
   141   71  193 1    
   142   71  194 1    
   143   72   73 2    
   144   72   74 am   BACKBONE|DICT|INTERRES
   145   74   75 1    
   146   74  195 1    
   147   75   76 1    
   148   75   77 1    
   149   75  196 1    
   150   76  197 1    
   151   76  198 1    
   152   76  199 1    
   153   77   78 2    
   154   77   79 am   BACKBONE|DICT|INTERRES
   155   79   80 1    
   156   79  200 1    
   157   80   81 1    
   158   80   82 1    
   159   80  201 1    
   160   81  202 1    
   161   81  203 1    
   162   81  204 1    
   163   82   83 2    
   164   82   84 am   BACKBONE|DICT|INTERRES
   165   84   85 1    
   166   84  205 1    
   167   85   86 1    
   168   85   87 1    
   169   85  206 1    
   170   86  207 1    
   171   86  208 1    
   172   86  209 1    
   173   87   88 2    
   174   87   89 am   BACKBONE|DICT|INTERRES
   175   89   90 1    
   176   89  210 1    
   177   90   91 1    
   178   90   92 1    
   179   90  211 1    
   180   91  212 1    
   181   91  213 1    
   182   91  214 1    
   183   92   93 2    
   184   92   94 am   BACKBONE|DICT|INTERRES
   185   94   95 1    
   186   94  215 1    
   187   95   96 1    
   188   95   97 1    
   189   95  216 1    
   190   96  217 1    
   191   96  218 1    
   192   96  219 1    
   193   97   98 2    
   194   97   99 am   BACKBONE|DICT|INTERRES
   195   99  100 1    
   196   99  220 1    
   197  100  101 1    
   198  100  102 1    
   199  100  221 1    
   200  101  222 1    
   201  101  223 1    
   202  101  224 1    
   203  102  103 2    
   204  102  104 am   BACKBONE|DICT|INTERRES
   205  104  105 1    
   206  104  225 1    
   207  105  106 1    
   208  105  107 1    
   209  105  226 1    
   210  106  227 1    
   211  106  228 1    
   212  106  229 1    
   213  107  108 2    
   214  107  109 am   BACKBONE|DICT|INTERRES
   215  109  110 1    
   216  109  230 1    
   217  110  111 1    
   218  110  112 1    
   219  110  231 1    
   220  111  232 1    
   221  111  233 1    
   222  111  234 1    
   223  112  113 2    
   224  112  114 am   BACKBONE|DICT|INTERRES
   225  114  115 1    
   226  114  235 1    
   227  115  116 1    
   228  115  117 1    
   229  115  236 1    
   230  116  237 1    
   231  116  238 1    
   232  116  239 1    
   233  117  118 2    
   234  117  119 am   BACKBONE|DICT|INTERRES
   235  119  120 1    
   236  119  240 1    
   237  120  121 1    
   238  120  124 1    
   239  120  241 1    
   240  121  122 am   BACKBONE|DICT|INTERRES
   241  121  123 2    
   242  122  242 1    
   243  122  243 1    
   244  124  125 1    
   245  124  244 1    
   246  124  245 1    
   247  125  126 1    
   248  126  246 1    
   249  126  247 1    
@<TRIPOS>SUBSTRUCTURE
     1 UNK         1 GROUP             0       ****    0 ROOT    
