@<TRIPOS>MOLECULE
3R540
247   249    1
SMALL
USER_CHARGES


@<TRIPOS>ATOM
      1 CA          2.9554  -11.9036  -45.9233 C.3       0 UNK        -0.1800 
      2 C           1.9359  -13.0229  -46.0760 C.2       0 UNK         0.5000 
      3 O           1.6028  -13.6932  -45.0970 O.2       0 UNK        -0.5000 
      4 N           1.4402  -13.2143  -47.3068 N.am      1 UNK        -0.5000 
      5 CA          0.5093  -14.2762  -47.7124 C.3       1 UNK         0.1400 
      6 C6          0.2867  -14.2681  -49.2467 C.3       23 UNK        -0.0398 
      7 S7         -0.0342  -15.9357  -49.9034 S.3       23 UNK        -0.2404 
      8 C8          1.6483  -16.4110  -50.4101 C.3       23 UNK        -0.0205 
      9 C9          1.7551  -17.8805  -50.7920 C.ar      23 UNK        -0.0193 
     10 C10         0.8861  -18.4344  -51.7366 C.ar      23 UNK        -0.1150 
     11 C11         1.0036  -19.7744  -52.1116 C.ar      23 UNK        -0.0193 
     12 C12         2.0221  -20.5561  -51.5579 C.ar      23 UNK        -0.1150 
     13 C13         2.9111  -20.0118  -50.6255 C.ar      23 UNK        -0.0193 
     14 C14         2.7611  -18.6773  -50.2358 C.ar      23 UNK        -0.1150 
     15 C15         4.0807  -20.8351  -50.0981 C.3       23 UNK        -0.0205 
     16 S16         3.5767  -22.3703  -49.2589 S.3       23 UNK        -0.2404 
     17 C17         2.8831  -21.7387  -47.6949 C.3       23 UNK        -0.0398 
     18 CA          1.5397  -22.4192  -47.3398 C.3       11 UNK         0.1400 
     19 N           1.2452  -22.3318  -45.9080 N.am      11 UNK        -0.5000 
     20 C           0.3268  -23.0804  -45.2811 C.2       10 UNK         0.5000 
     21 O          -0.3242  -23.9698  -45.8297 O.2       10 UNK        -0.5000 
     22 CA          0.0838  -22.7827  -43.7911 C.3       10 UNK         0.1400 
     23 CB          1.1088  -23.5228  -42.9185 C.3       10 UNK        -0.1800 
     24 N           0.1160  -21.3547  -43.4764 N.am      10 UNK        -0.5000 
     25 C          -0.7627  -20.4504  -43.9328 C.2       9 UNK         0.5000 
     26 O          -1.7115  -20.7208  -44.6690 O.2       9 UNK        -0.5000 
     27 CA         -0.5181  -18.9884  -43.5198 C.3       9 UNK         0.1400 
     28 CB         -0.9442  -18.7725  -42.0581 C.3       9 UNK        -0.1800 
     29 N           0.8768  -18.5791  -43.6909 N.am      9 UNK        -0.5000 
     30 C           1.5541  -18.6028  -44.8490 C.2       8 UNK         0.5000 
     31 O           1.0749  -18.9600  -45.9227 O.2       8 UNK        -0.5000 
     32 CA          3.0437  -18.2336  -44.7835 C.3       8 UNK         0.1400 
     33 CB          3.2371  -16.7112  -44.7054 C.3       8 UNK        -0.1800 
     34 N           3.7085  -18.8875  -43.6569 N.am      8 UNK        -0.5000 
     35 C           3.8970  -20.2121  -43.5595 C.2       7 UNK         0.5000 
     36 O           3.5694  -21.0178  -44.4311 O.2       7 UNK        -0.5000 
     37 CA          4.5143  -20.7227  -42.2455 C.3       7 UNK         0.1400 
     38 CB          6.0434  -20.5809  -42.2715 C.3       7 UNK        -0.1800 
     39 N           3.9801  -20.0275  -41.0734 N.am      7 UNK        -0.5000 
     40 C           2.7103  -20.1221  -40.6540 C.2       6 UNK         0.5000 
     41 O           1.8641  -20.8355  -41.1912 O.2       6 UNK        -0.5000 
     42 CA          2.3079  -19.2313  -39.4647 C.3       6 UNK         0.1400 
     43 CB          2.6409  -19.9219  -38.1339 C.3       6 UNK        -0.1800 
     44 N           2.9331  -17.9053  -39.4974 N.am      6 UNK        -0.5000 
     45 C           2.7260  -16.9972  -40.4589 C.2       5 UNK         0.5000 
     46 O           2.0118  -17.1945  -41.4465 O.2       5 UNK        -0.5000 
     47 CA          3.4633  -15.6608  -40.3170 C.3       5 UNK         0.1400 
     48 CB          4.8764  -15.7490  -40.9158 C.3       5 UNK        -0.1800 
     49 N           2.6948  -14.6562  -41.0374 N.am      5 UNK        -0.5000 
     50 C           2.4828  -13.3938  -40.6543 C.2       4 UNK         0.5000 
     51 O           3.0181  -12.8757  -39.6733 O.2       4 UNK        -0.5000 
     52 CA          1.4939  -12.5718  -41.5059 C.3       4 UNK         0.1400 
     53 CB          2.2567  -11.6354  -42.4511 C.3       4 UNK        -0.1800 
     54 N           0.5739  -13.4100  -42.2853 N.am      4 UNK        -0.5000 
     55 C          -0.4525  -14.0836  -41.7440 C.2       3 UNK         0.5000 
     56 O          -0.7385  -14.0274  -40.5462 O.2       3 UNK        -0.5000 
     57 CA         -1.2826  -14.9714  -42.6946 C.3       3 UNK         0.1400 
     58 CB         -2.5732  -15.5135  -42.0453 C.3       3 UNK        -0.1800 
     59 N          -1.5929  -14.3397  -43.9774 N.am      3 UNK        -0.5000 
     60 C          -2.2327  -13.1848  -44.2065 C.2       2 UNK         0.5000 
     61 O          -2.6441  -12.4418  -43.3138 O.2       2 UNK        -0.5000 
     62 CA         -2.4458  -12.8038  -45.6923 C.3       2 UNK         0.1400 
     63 CB         -2.8705  -11.3352  -45.8724 C.3       2 UNK        -0.1800 
     64 N          -1.2636  -13.0509  -46.5229 N.am      2 UNK        -0.5000 
     65 C          -0.8332  -14.2465  -46.9499 C.2       1 UNK         0.5000 
     66 O          -1.4230  -15.2995  -46.7085 O.2       1 UNK        -0.5000 
     67 C           0.3752  -21.8740  -48.1913 C.2       11 UNK         0.5000 
     68 O          -0.0213  -22.5165  -49.1642 O.2       11 UNK        -0.5000 
     69 N          -0.1580  -20.7118  -47.7955 N.am      12 UNK        -0.5000 
     70 CA         -1.2573  -20.0324  -48.4682 C.3       12 UNK         0.1400 
     71 CB         -1.4380  -18.6368  -47.8511 C.3       12 UNK        -0.1800 
     72 C          -2.5758  -20.8178  -48.4032 C.2       12 UNK         0.5000 
     73 O          -3.2044  -21.0285  -49.4385 O.2       12 UNK        -0.5000 
     74 N          -2.9966  -21.1868  -47.1827 N.am      13 UNK        -0.5000 
     75 CA         -4.3152  -21.7079  -46.7931 C.3       13 UNK         0.1400 
     76 CB         -4.6402  -23.0453  -47.4882 C.3       13 UNK        -0.1800 
     77 C          -5.4351  -20.6617  -46.9820 C.2       13 UNK         0.5000 
     78 O          -6.0911  -20.2806  -46.0121 O.2       13 UNK        -0.5000 
     79 N          -5.5826  -20.1766  -48.2158 N.am      14 UNK        -0.5000 
     80 CA         -6.3196  -18.9904  -48.6163 C.3       14 UNK         0.1400 
     81 CB         -7.7464  -19.3690  -49.0485 C.3       14 UNK        -0.1800 
     82 C          -5.4973  -18.3953  -49.7656 C.2       14 UNK         0.5000 
     83 O          -5.3880  -19.0432  -50.8072 O.2       14 UNK        -0.5000 
     84 N          -4.8801  -17.2287  -49.5267 N.am      15 UNK        -0.5000 
     85 CA         -3.8907  -16.5566  -50.3807 C.3       15 UNK         0.1400 
     86 CB         -3.6311  -15.1484  -49.8200 C.3       15 UNK        -0.1800 
     87 C          -4.2859  -16.4982  -51.8684 C.2       15 UNK         0.5000 
     88 O          -5.1754  -15.7270  -52.2331 O.2       15 UNK        -0.5000 
     89 N          -3.6661  -17.3745  -52.6731 N.am      16 UNK        -0.5000 
     90 CA         -3.9137  -17.6734  -54.0913 C.3       16 UNK         0.1400 
     91 CB         -3.7017  -16.4315  -54.9768 C.3       16 UNK        -0.1800 
     92 C          -5.2759  -18.3412  -54.3812 C.2       16 UNK         0.5000 
     93 O          -5.3430  -19.2165  -55.2449 O.2       16 UNK        -0.5000 
     94 N          -6.3246  -17.9494  -53.6466 N.am      17 UNK        -0.5000 
     95 CA         -7.6994  -18.4481  -53.7250 C.3       17 UNK         0.1400 
     96 CB         -8.5647  -17.6578  -52.7321 C.3       17 UNK        -0.1800 
     97 C          -7.8479  -19.9629  -53.4810 C.2       17 UNK         0.5000 
     98 O          -8.7854  -20.5662  -54.0045 O.2       17 UNK        -0.5000 
     99 N          -6.9145  -20.5564  -52.7236 N.am      18 UNK        -0.5000 
    100 CA        -6.7971  -21.9991  -52.5046 C.3       18 UNK         0.1400 
    101 CB        -5.7680  -22.2515  -51.3929 C.3       18 UNK        -0.1800 
    102 C         -6.4391  -22.7986  -53.7758 C.2       18 UNK         0.5000 
    103 O         -6.6686  -24.0086  -53.8005 O.2       18 UNK        -0.5000 
    104 N         -5.9027  -22.1226  -54.8057 N.am      19 UNK        -0.5000 
    105 CA        -5.5727  -22.6422  -56.1351 C.3       19 UNK         0.1400 
    106 CB        -6.8674  -22.9002  -56.9374 C.3       19 UNK        -0.1800 
    107 C         -4.6271  -23.8572  -56.0590 C.2       19 UNK         0.5000 
    108 O         -3.4706  -23.6917  -55.6727 O.2       19 UNK        -0.5000 
    109 N         -5.1323  -25.0550  -56.3820 N.am      20 UNK        -0.5000 
    110 CA        -4.4056  -26.3247  -56.3129 C.3       20 UNK         0.1400 
    111 CB        -5.2703  -27.4263  -56.9447 C.3       20 UNK        -0.1800 
    112 C         -3.9743  -26.7286  -54.8873 C.2       20 UNK         0.5000 
    113 O         -3.0067  -27.4773  -54.7461 O.2       20 UNK        -0.5000 
    114 N         -4.6795  -26.2287  -53.8620 N.am      21 UNK        -0.5000 
    115 CA        -4.3446  -26.4389  -52.4522 C.3       21 UNK         0.1400 
    116 CB        -5.6392  -26.4555  -51.6224 C.3       21 UNK        -0.1800 
    117 C         -3.3426  -25.3973  -51.9111 C.2       21 UNK         0.5000 
    118 O         -2.8569  -25.5695  -50.7928 O.2       21 UNK        -0.5000 
    119 N         -3.0443  -24.3486  -52.6915 N.am      22 UNK        -0.5000 
    120 CA        -2.0097  -23.3512  -52.3870 C.3       22 UNK         0.1400 
    121 C         -0.5892  -23.9552  -52.5749 C.2       22 UNK         0.5000 
    122 N          0.3077  -23.7980  -51.6135 N.am      22 UNK        -0.7600 
    123 O         -0.2827  -24.5449  -53.6088 O.2       22 UNK        -0.5000 
    124 C124       -2.2028  -22.0736  -53.2496 C.3       23 UNK        -0.0398 
    125 S125       -1.6189  -20.5680  -52.4080 S.3       23 UNK        -0.2404 
    126 C126        0.0401  -20.3677  -53.1265 C.3       23 UNK        -0.0205 
    127 H127        3.8293  -12.2626  -45.3798 H         1 UNK         0.0600 
    128 H128        2.5214  -11.0709  -45.3710 H         1 UNK         0.0600 
    129 H129        3.2927  -11.5294  -46.8901 H         1 UNK         0.0600 
    130 H130        1.7552  -12.6069  -48.0498 H         1 UNK         0.3000 
    131 H131        1.0008  -15.2125  -47.4378 H         1 UNK         0.0600 
    132 H132        1.1632  -13.8718  -49.7614 H         1 UNK         0.0800 
    133 H133       -0.5352  -13.6082  -49.5313 H         1 UNK         0.0800 
    134 H134        1.9539  -15.8017  -51.2616 H         1 UNK         0.0800 
    135 H135        2.3379  -16.1810  -49.5962 H         1 UNK         0.0800 
    136 H136        0.1106  -17.8235  -52.1769 H         1 UNK         0.1150 
    137 H137        2.1335  -21.5877  -51.8604 H         1 UNK         0.1150 
    138 H138        3.4510  -18.2479  -49.5231 H         1 UNK         0.1150 
    139 H139        4.7211  -21.0982  -50.9409 H         1 UNK         0.0800 
    140 H140        4.7009  -20.2471  -49.4196 H         1 UNK         0.0800 
    141 H141        3.6231  -21.9516  -46.9229 H         1 UNK         0.0800 
    142 H142        2.7832  -20.6518  -47.7215 H         1 UNK         0.0800 
    143 H143        1.6363  -23.4829  -47.5702 H         1 UNK         0.0600 
    144 H144        1.7719  -21.6501  -45.3735 H         1 UNK         0.3000 
    145 H145       -0.9106  -23.1561  -43.5377 H         1 UNK         0.0600 
    146 H146        0.8856  -23.3992  -41.8587 H         1 UNK         0.0600 
    147 H147        1.1033  -24.5929  -43.1291 H         1 UNK         0.0600 
    148 H148        2.1219  -23.1575  -43.0916 H         1 UNK         0.0600 
    149 H149        0.8410  -21.0510  -42.8323 H         1 UNK         0.3000 
    150 H150       -1.1281  -18.3455  -44.1578 H         1 UNK         0.0600 
    151 H151       -2.0211  -18.9022  -41.9457 H         1 UNK         0.0600 
    152 H152       -0.6956  -17.7733  -41.7063 H         1 UNK         0.0600 
    153 H153       -0.4596  -19.4797  -41.3853 H         1 UNK         0.0600 
    154 H154        1.3549  -18.2445  -42.8582 H         1 UNK         0.3000 
    155 H155        3.5157  -18.5858  -45.7034 H         1 UNK         0.0600 
    156 H156        4.2943  -16.4464  -44.6904 H         1 UNK         0.0600 
    157 H157        2.7711  -16.2817  -43.8190 H         1 UNK         0.0600 
    158 H158        2.7929  -16.2218  -45.5731 H         1 UNK         0.0600 
    159 H159        3.9601  -18.3035  -42.8744 H         1 UNK         0.3000 
    160 H160        4.2705  -21.7833  -42.1530 H         1 UNK         0.0600 
    161 H161        6.3523  -19.5368  -42.3360 H         1 UNK         0.0600 
    162 H162        6.4684  -21.1029  -43.1299 H         1 UNK         0.0600 
    163 H163        6.4940  -21.0098  -41.3763 H         1 UNK         0.0600 
    164 H164        4.6100  -19.4184  -40.5728 H         1 UNK         0.3000 
    165 H165        1.2261  -19.0900  -39.5124 H         1 UNK         0.0600 
    166 H166        2.2775  -19.3407  -37.2862 H         1 UNK         0.0600 
    167 H167        2.1717  -20.9051  -38.0767 H         1 UNK         0.0600 
    168 H168        3.7152  -20.0630  -38.0095 H         1 UNK         0.0600 
    169 H169        3.5390  -17.6738  -38.7233 H         1 UNK         0.3000 
    170 H170        3.5229  -15.4045  -39.2571 H         1 UNK         0.0600 
    171 H171        5.4756  -16.5015  -40.4019 H         1 UNK         0.0600 
    172 H172        4.8503  -16.0125  -41.9739 H         1 UNK         0.0600 
    173 H173        5.4009  -14.7979  -40.8230 H         1 UNK         0.0600 
    174 H174        2.1663  -15.0201  -41.8191 H         1 UNK         0.3000 
    175 H175        0.9037  -11.9543  -40.8255 H         1 UNK         0.0600 
    176 H176        2.9321  -12.1939  -43.0985 H         1 UNK         0.0600 
    177 H177        1.5738  -11.0623  -43.0782 H         1 UNK         0.0600 
    178 H178        2.8605  -10.9221  -41.8890 H         1 UNK         0.0600 
    179 H179        0.7709  -13.5079  -43.2778 H         1 UNK         0.3000 
    180 H180       -0.6445  -15.8224  -42.9337 H         1 UNK         0.0600 
    181 H181       -3.0932  -16.1972  -42.7164 H         1 UNK         0.0600 
    182 H182       -3.2621  -14.7093  -41.7852 H         1 UNK         0.0600 
    183 H183       -2.3552  -16.0642  -41.1297 H         1 UNK         0.0600 
    184 H184       -1.3175  -14.8649  -44.8013 H         1 UNK         0.3000 
    185 H185       -3.2603  -13.4302  -46.0620 H         1 UNK         0.0600 
    186 H186       -3.7954  -11.1238  -45.3343 H         1 UNK         0.0600 
    187 H187       -2.1085  -10.6488  -45.5013 H         1 UNK         0.0600 
    188 H188       -3.0503  -11.1024  -46.9221 H         1 UNK         0.0600 
    189 H189       -0.6859  -12.2472  -46.7214 H         1 UNK         0.3000 
    190 H190        0.2489  -20.2226  -47.0016 H         1 UNK         0.3000 
    191 H191       -0.9838  -19.9087  -49.5179 H         1 UNK         0.0600 
    192 H192       -2.2497  -18.0923  -48.3307 H         1 UNK         0.0600 
    193 H193       -0.5332  -18.0404  -47.9613 H         1 UNK         0.0600 
    194 H194       -1.6661  -18.6886  -46.7860 H         1 UNK         0.0600 
    195 H195       -2.3960  -20.9630  -46.3916 H         1 UNK         0.3000 
    196 H196       -4.2456  -21.9073  -45.7226 H         1 UNK         0.0600 
    197 H197       -4.7464  -22.9397  -48.5676 H         1 UNK         0.0600 
    198 H198       -3.8583  -23.7819  -47.3028 H         1 UNK         0.0600 
    199 H199       -5.5754  -23.4596  -47.1104 H         1 UNK         0.0600 
    200 H200       -4.9415  -20.5274  -48.9273 H         1 UNK         0.3000 
    201 H201       -6.3663  -18.2800  -47.7883 H         1 UNK         0.0600 
    202 H202       -7.7485  -20.0566  -49.8947 H         1 UNK         0.0600 
    203 H203       -8.3098  -18.4830  -49.3416 H         1 UNK         0.0600 
    204 H204       -8.2900  -19.8449  -48.2323 H         1 UNK         0.0600 
    205 H205       -5.0497  -16.7806  -48.6385 H         1 UNK         0.3000 
    206 H206       -2.9597  -17.1203  -50.3050 H         1 UNK         0.0600 
    207 H207       -3.2296  -15.1956  -48.8080 H         1 UNK         0.0600 
    208 H208       -2.9045  -14.6119  -50.4313 H         1 UNK         0.0600 
    209 H209       -4.5427  -14.5503  -49.7924 H         1 UNK         0.0600 
    210 H210       -3.0176  -18.0131  -52.2328 H         1 UNK         0.3000 
    211 H211       -3.1515  -18.4035  -54.3683 H         1 UNK         0.0600 
    212 H212       -3.7688  -16.6939  -56.0333 H         1 UNK         0.0600 
    213 H213       -2.7171  -15.9937  -54.8124 H         1 UNK         0.0600 
    214 H214       -4.4489  -15.6607  -54.7870 H         1 UNK         0.0600 
    215 H215       -6.1511  -17.2100  -52.9731 H         1 UNK         0.3000 
    216 H216       -8.0617  -18.2460  -54.7347 H         1 UNK         0.0600 
    217 H217       -8.2083  -17.7798  -51.7089 H         1 UNK         0.0600 
    218 H218       -9.6030  -17.9906  -52.7625 H         1 UNK         0.0600 
    219 H219       -8.5577  -16.5926  -52.9638 H         1 UNK         0.0600 
    220 H220       -6.2210  -19.9715  -52.2626 H         1 UNK         0.3000 
    221 H221       -7.7653  -22.3664  -52.1592 H         1 UNK         0.0600 
    222 H222       -5.6045  -23.3156  -51.2288 H         1 UNK         0.0600 
    223 H223       -6.1067  -21.8321  -50.4470 H         1 UNK         0.0600 
    224 H224       -4.8022  -21.8031  -51.6260 H         1 UNK         0.0600 
    225 H225       -5.7437  -21.1269  -54.6911 H         1 UNK         0.3000 
    226 H226       -5.0181  -21.8542  -56.6467 H         1 UNK         0.0600 
    227 H227       -7.5123  -23.6382  -56.4591 H         1 UNK         0.0600 
    228 H228       -7.4454  -21.9815  -57.0400 H         1 UNK         0.0600 
    229 H229       -6.6441  -23.2515  -57.9456 H         1 UNK         0.0600 
    230 H230       -6.1032  -25.1057  -56.6542 H         1 UNK         0.3000 
    231 H231       -3.4967  -26.2195  -56.9089 H         1 UNK         0.0600 
    232 H232       -6.2081  -27.5603  -56.4039 H         1 UNK         0.0600 
    233 H233       -4.7487  -28.3844  -56.9396 H         1 UNK         0.0600 
    234 H234       -5.5099  -27.1944  -57.9826 H         1 UNK         0.0600 
    235 H235       -5.4520  -25.5962  -54.0502 H         1 UNK         0.3000 
    236 H236       -3.8741  -27.4176  -52.3368 H         1 UNK         0.0600 
    237 H237       -6.3069  -27.2503  -51.9549 H         1 UNK         0.0600 
    238 H238       -5.4266  -26.6323  -50.5673 H         1 UNK         0.0600 
    239 H239       -6.1827  -25.5149  -51.6925 H         1 UNK         0.0600 
    240 H240       -3.4178  -24.3186  -53.6320 H         1 UNK         0.3000 
    241 H241       -2.1347  -23.0770  -51.3365 H         1 UNK         0.0600 
    242 H242        1.2276  -24.1881  -51.7342 H         1 UNK         0.3800 
    243 H243        0.0864  -23.3045  -50.7471 H         1 UNK         0.3800 
    244 H244       -3.2627  -21.9122  -53.4472 H         1 UNK         0.0800 
    245 H245       -1.7391  -22.1678  -54.2333 H         1 UNK         0.0800 
    246 H246       -0.0223  -19.7196  -54.0017 H         1 UNK         0.0800 
    247 H247        0.4174  -21.3275  -53.4810 H         1 UNK         0.0800 
@<TRIPOS>BOND
     1    1    2 1    
     2    1  127 1    
     3    1  128 1    
     4    1  129 1    
     5    2    3 2    
     6    2    4 am   BACKBONE|DICT|INTERRES
     7    4    5 1    
     8    4  130 1    
     9    5    6 1    
    10    5   65 1    
    11    5  131 1    
    12    6    7 1    
    13    6  132 1    
    14    6  133 1    
    15    7    8 1    
    16    8    9 1    
    17    8  134 1    
    18    8  135 1    
    19    9   10 ar   
    20    9   14 ar   
    21   10   11 ar   
    22   10  136 1    
    23   11   12 ar   
    24   11  126 1    
    25   12   13 ar   
    26   12  137 1    
    27   13   14 ar   
    28   13   15 1    
    29   14  138 1    
    30   15   16 1    
    31   15  139 1    
    32   15  140 1    
    33   16   17 1    
    34   17   18 1    
    35   17  141 1    
    36   17  142 1    
    37   18   19 1    
    38   18   67 1    
    39   18  143 1    
    40   19   20 am   BACKBONE|DICT|INTERRES
    41   19  144 1    
    42   20   21 2    
    43   20   22 1    
    44   22   23 1    
    45   22   24 1    
    46   22  145 1    
    47   23  146 1    
    48   23  147 1    
    49   23  148 1    
    50   24   25 am   BACKBONE|DICT|INTERRES
    51   24  149 1    
    52   25   26 2    
    53   25   27 1    
    54   27   28 1    
    55   27   29 1    
    56   27  150 1    
    57   28  151 1    
    58   28  152 1    
    59   28  153 1    
    60   29   30 am   BACKBONE|DICT|INTERRES
    61   29  154 1    
    62   30   31 2    
    63   30   32 1    
    64   32   33 1    
    65   32   34 1    
    66   32  155 1    
    67   33  156 1    
    68   33  157 1    
    69   33  158 1    
    70   34   35 am   BACKBONE|DICT|INTERRES
    71   34  159 1    
    72   35   36 2    
    73   35   37 1    
    74   37   38 1    
    75   37   39 1    
    76   37  160 1    
    77   38  161 1    
    78   38  162 1    
    79   38  163 1    
    80   39   40 am   BACKBONE|DICT|INTERRES
    81   39  164 1    
    82   40   41 2    
    83   40   42 1    
    84   42   43 1    
    85   42   44 1    
    86   42  165 1    
    87   43  166 1    
    88   43  167 1    
    89   43  168 1    
    90   44   45 am   BACKBONE|DICT|INTERRES
    91   44  169 1    
    92   45   46 2    
    93   45   47 1    
    94   47   48 1    
    95   47   49 1    
    96   47  170 1    
    97   48  171 1    
    98   48  172 1    
    99   48  173 1    
   100   49   50 am   BACKBONE|DICT|INTERRES
   101   49  174 1    
   102   50   51 2    
   103   50   52 1    
   104   52   53 1    
   105   52   54 1    
   106   52  175 1    
   107   53  176 1    
   108   53  177 1    
   109   53  178 1    
   110   54   55 am   BACKBONE|DICT|INTERRES
   111   54  179 1    
   112   55   56 2    
   113   55   57 1    
   114   57   58 1    
   115   57   59 1    
   116   57  180 1    
   117   58  181 1    
   118   58  182 1    
   119   58  183 1    
   120   59   60 am   BACKBONE|DICT|INTERRES
   121   59  184 1    
   122   60   61 2    
   123   60   62 1    
   124   62   63 1    
   125   62   64 1    
   126   62  185 1    
   127   63  186 1    
   128   63  187 1    
   129   63  188 1    
   130   64   65 am   BACKBONE|DICT|INTERRES
   131   64  189 1    
   132   65   66 2    
   133   67   68 2    
   134   67   69 am   BACKBONE|DICT|INTERRES
   135   69   70 1    
   136   69  190 1    
   137   70   71 1    
   138   70   72 1    
   139   70  191 1    
   140   71  192 1    
   141   71  193 1    
   142   71  194 1    
   143   72   73 2    
   144   72   74 am   BACKBONE|DICT|INTERRES
   145   74   75 1    
   146   74  195 1    
   147   75   76 1    
   148   75   77 1    
   149   75  196 1    
   150   76  197 1    
   151   76  198 1    
   152   76  199 1    
   153   77   78 2    
   154   77   79 am   BACKBONE|DICT|INTERRES
   155   79   80 1    
   156   79  200 1    
   157   80   81 1    
   158   80   82 1    
   159   80  201 1    
   160   81  202 1    
   161   81  203 1    
   162   81  204 1    
   163   82   83 2    
   164   82   84 am   BACKBONE|DICT|INTERRES
   165   84   85 1    
   166   84  205 1    
   167   85   86 1    
   168   85   87 1    
   169   85  206 1    
   170   86  207 1    
   171   86  208 1    
   172   86  209 1    
   173   87   88 2    
   174   87   89 am   BACKBONE|DICT|INTERRES
   175   89   90 1    
   176   89  210 1    
   177   90   91 1    
   178   90   92 1    
   179   90  211 1    
   180   91  212 1    
   181   91  213 1    
   182   91  214 1    
   183   92   93 2    
   184   92   94 am   BACKBONE|DICT|INTERRES
   185   94   95 1    
   186   94  215 1    
   187   95   96 1    
   188   95   97 1    
   189   95  216 1    
   190   96  217 1    
   191   96  218 1    
   192   96  219 1    
   193   97   98 2    
   194   97   99 am   BACKBONE|DICT|INTERRES
   195   99  100 1    
   196   99  220 1    
   197  100  101 1    
   198  100  102 1    
   199  100  221 1    
   200  101  222 1    
   201  101  223 1    
   202  101  224 1    
   203  102  103 2    
   204  102  104 am   BACKBONE|DICT|INTERRES
   205  104  105 1    
   206  104  225 1    
   207  105  106 1    
   208  105  107 1    
   209  105  226 1    
   210  106  227 1    
   211  106  228 1    
   212  106  229 1    
   213  107  108 2    
   214  107  109 am   BACKBONE|DICT|INTERRES
   215  109  110 1    
   216  109  230 1    
   217  110  111 1    
   218  110  112 1    
   219  110  231 1    
   220  111  232 1    
   221  111  233 1    
   222  111  234 1    
   223  112  113 2    
   224  112  114 am   BACKBONE|DICT|INTERRES
   225  114  115 1    
   226  114  235 1    
   227  115  116 1    
   228  115  117 1    
   229  115  236 1    
   230  116  237 1    
   231  116  238 1    
   232  116  239 1    
   233  117  118 2    
   234  117  119 am   BACKBONE|DICT|INTERRES
   235  119  120 1    
   236  119  240 1    
   237  120  121 1    
   238  120  124 1    
   239  120  241 1    
   240  121  122 am   BACKBONE|DICT|INTERRES
   241  121  123 2    
   242  122  242 1    
   243  122  243 1    
   244  124  125 1    
   245  124  244 1    
   246  124  245 1    
   247  125  126 1    
   248  126  246 1    
   249  126  247 1    
@<TRIPOS>SUBSTRUCTURE
     1 UNK         1 GROUP             0       ****    0 ROOT    
