@<TRIPOS>MOLECULE
3R540
247   249    1
SMALL
USER_CHARGES


@<TRIPOS>ATOM
      1 CA          4.8954  -10.1677  -49.1020 C.3       0 UNK        -0.1800 
      2 C           3.8875  -10.9876  -48.3086 C.2       0 UNK         0.5000 
      3 O           3.8848  -10.9310  -47.0785 O.2       0 UNK        -0.5000 
      4 N           3.0413  -11.7545  -49.0063 N.am      1 UNK        -0.5000 
      5 CA          1.9739  -12.5744  -48.4247 C.3       1 UNK         0.1400 
      6 C6          1.3835  -13.5671  -49.4556 C.3       23 UNK        -0.0398 
      7 S7          2.6091  -14.7785  -50.0537 S.3       23 UNK        -0.2404 
      8 C8          1.5294  -16.2058  -50.3737 C.3       23 UNK        -0.0205 
      9 C9          2.2627  -17.3014  -51.1279 C.ar      23 UNK        -0.0193 
     10 C10         2.2622  -17.3058  -52.5243 C.ar      23 UNK        -0.1150 
     11 C11         2.9026  -18.3259  -53.2307 C.ar      23 UNK        -0.0193 
     12 C12         3.5474  -19.3470  -52.5269 C.ar      23 UNK        -0.1150 
     13 C13         3.5433  -19.3694  -51.1287 C.ar      23 UNK        -0.0193 
     14 C14         2.9168  -18.3246  -50.4362 C.ar      23 UNK        -0.1150 
     15 C15         4.2310  -20.5339  -50.4123 C.3       23 UNK        -0.0205 
     16 S16         3.5655  -20.9512  -48.7616 S.3       23 UNK        -0.2404 
     17 C17         1.7899  -21.1882  -49.1067 C.3       23 UNK        -0.0398 
     18 CA          1.1351  -22.2939  -48.2426 C.3       11 UNK         0.1400 
     19 N           1.2574  -22.0612  -46.7991 N.am      11 UNK        -0.5000 
     20 C           0.9889  -22.9865  -45.8656 C.2       10 UNK         0.5000 
     21 O           0.7278  -24.1615  -46.1250 O.2       10 UNK        -0.5000 
     22 CA          0.9700  -22.5256  -44.3957 C.3       10 UNK         0.1400 
     23 CB          2.3718  -22.6205  -43.7754 C.3       10 UNK        -0.1800 
     24 N           0.4376  -21.1733  -44.2171 N.am      10 UNK        -0.5000 
     25 C          -0.8200  -20.8058  -44.5045 C.2       9 UNK         0.5000 
     26 O          -1.6769  -21.5806  -44.9259 O.2       9 UNK        -0.5000 
     27 CA         -1.1708  -19.3149  -44.3448 C.3       9 UNK         0.1400 
     28 CB         -1.5108  -18.9814  -42.8851 C.3       9 UNK        -0.1800 
     29 N          -0.1074  -18.4295  -44.8163 N.am      9 UNK        -0.5000 
     30 C           0.3462  -18.3875  -46.0773 C.2       8 UNK         0.5000 
     31 O          -0.1087  -19.0667  -46.9983 O.2       8 UNK        -0.5000 
     32 CA          1.5493  -17.4686  -46.3377 C.3       8 UNK         0.1400 
     33 CB          1.0985  -16.0099  -46.4845 C.3       8 UNK        -0.1800 
     34 N           2.5533  -17.5708  -45.2786 N.am      8 UNK        -0.5000 
     35 C           3.2922  -18.6654  -45.0476 C.2       7 UNK         0.5000 
     36 O           3.2194  -19.6933  -45.7179 O.2       7 UNK        -0.5000 
     37 CA          4.2351  -18.6183  -43.8326 C.3       7 UNK         0.1400 
     38 CB          5.5152  -17.8368  -44.1649 C.3       7 UNK        -0.1800 
     39 N           3.5966  -18.0318  -42.6540 N.am      7 UNK        -0.5000 
     40 C           2.5605  -18.5798  -42.0032 C.2       6 UNK         0.5000 
     41 O           2.0532  -19.6577  -42.3093 O.2       6 UNK        -0.5000 
     42 CA          1.9647  -17.7678  -40.8392 C.3       6 UNK         0.1400 
     43 CB          2.6930  -18.0927  -39.5266 C.3       6 UNK        -0.1800 
     44 N           1.9904  -16.3201  -41.0635 N.am      6 UNK        -0.5000 
     45 C           1.3452  -15.6902  -42.0535 C.2       5 UNK         0.5000 
     46 O           0.6880  -16.2690  -42.9216 O.2       5 UNK        -0.5000 
     47 CA          1.4761  -14.1602  -42.0877 C.3       5 UNK         0.1400 
     48 CB          2.1688  -13.6848  -43.3753 C.3       5 UNK        -0.1800 
     49 N           0.1576  -13.5415  -41.9757 N.am      5 UNK        -0.5000 
     50 C          -0.4741  -13.3389  -40.8094 C.2       4 UNK         0.5000 
     51 O           0.0087  -13.6500  -39.7193 O.2       4 UNK        -0.5000 
     52 CA         -1.8550  -12.6522  -40.8376 C.3       4 UNK         0.1400 
     53 CB         -1.7391  -11.2020  -40.3409 C.3       4 UNK        -0.1800 
     54 N          -2.4718  -12.6386  -42.1623 N.am      4 UNK        -0.5000 
     55 C          -3.1443  -13.6606  -42.7071 C.2       3 UNK         0.5000 
     56 O          -3.3650  -14.7231  -42.1255 O.2       3 UNK        -0.5000 
     57 CA         -3.6460  -13.4627  -44.1534 C.3       3 UNK         0.1400 
     58 CB         -5.1177  -13.0213  -44.1560 C.3       3 UNK        -0.1800 
     59 N          -2.8559  -12.5003  -44.9333 N.am      3 UNK        -0.5000 
     60 C          -1.5652  -12.6668  -45.2461 C.2       2 UNK         0.5000 
     61 O          -0.8962  -13.6332  -44.8756 O.2       2 UNK        -0.5000 
     62 CA         -0.8921  -11.5599  -46.0652 C.3       2 UNK         0.1400 
     63 CB         -0.4295  -10.4096  -45.1529 C.3       2 UNK        -0.1800 
     64 N           0.2550  -12.1550  -46.7394 N.am      2 UNK        -0.5000 
     65 C           0.8492  -11.6927  -47.8418 C.2       1 UNK         0.5000 
     66 O           0.5173  -10.6524  -48.4165 O.2       1 UNK        -0.5000 
     67 C          -0.3474  -22.4582  -48.6287 C.2       11 UNK         0.5000 
     68 O          -0.7163  -23.4714  -49.2219 O.2       11 UNK        -0.5000 
     69 N          -1.1715  -21.4711  -48.2467 N.am      12 UNK        -0.5000 
     70 CA         -2.5915  -21.3777  -48.5865 C.3       12 UNK         0.1400 
     71 CB         -3.1368  -20.0356  -48.0780 C.3       12 UNK        -0.1800 
     72 C          -3.4452  -22.5509  -48.0720 C.2       12 UNK         0.5000 
     73 O          -4.4115  -22.9356  -48.7322 O.2       12 UNK        -0.5000 
     74 N          -3.0571  -23.1357  -46.9306 N.am      13 UNK        -0.5000 
     75 CA         -3.6734  -24.3171  -46.3225 C.3       13 UNK         0.1400 
     76 CB         -2.9425  -24.6551  -45.0149 C.3       13 UNK        -0.1800 
     77 C          -3.7234  -25.5539  -47.2420 C.2       13 UNK         0.5000 
     78 O          -4.6484  -26.3561  -47.1116 O.2       13 UNK        -0.5000 
     79 N          -2.7810  -25.6659  -48.1910 N.am      14 UNK        -0.5000 
     80 CA         -2.7613  -26.7178  -49.2124 C.3       14 UNK         0.1400 
     81 CB         -1.3863  -26.7393  -49.8953 C.3       14 UNK        -0.1800 
     82 C          -3.8971  -26.5911  -50.2518 C.2       14 UNK         0.5000 
     83 O          -4.2232  -27.5822  -50.9058 O.2       14 UNK        -0.5000 
     84 N          -4.4986  -25.3988  -50.3615 N.am      15 UNK        -0.5000 
     85 CA         -5.6953  -25.1117  -51.1534 C.3       15 UNK         0.1400 
     86 CB         -5.3792  -23.9799  -52.1469 C.3       15 UNK        -0.1800 
     87 C          -6.8851  -24.7564  -50.2388 C.2       15 UNK         0.5000 
     88 O          -7.8100  -24.0750  -50.6818 O.2       15 UNK        -0.5000 
     89 N          -6.8354  -25.1894  -48.9676 N.am      16 UNK        -0.5000 
     90 CA         -7.8386  -24.9754  -47.9152 C.3       16 UNK         0.1400 
     91 CB         -9.1129  -25.7893  -48.2210 C.3       16 UNK        -0.1800 
     92 C          -8.1399  -23.4859  -47.6311 C.2       16 UNK         0.5000 
     93 O          -9.2538  -23.1503  -47.2258 O.2       16 UNK        -0.5000 
     94 N          -7.1425  -22.6218  -47.8712 N.am      17 UNK        -0.5000 
     95 CA         -7.1765  -21.1597  -47.7850 C.3       17 UNK         0.1400 
     96 CB         -7.4675  -20.6877  -46.3457 C.3       17 UNK        -0.1800 
     97 C          -8.0769  -20.4761  -48.8380 C.2       17 UNK         0.5000 
     98 O          -8.3494  -19.2815  -48.7090 O.2       17 UNK        -0.5000 
     99 N          -8.4967  -21.2109  -49.8797 N.am      18 UNK        -0.5000 
    100 CA        -9.2633  -20.6738  -51.0087 C.3       18 UNK         0.1400 
    101 CB       -10.0553  -21.8131  -51.6684 C.3       18 UNK        -0.1800 
    102 C         -8.3688  -19.9673  -52.0476 C.2       18 UNK         0.5000 
    103 O         -8.8761  -19.1894  -52.8568 O.2       18 UNK        -0.5000 
    104 N         -7.0623  -20.2467  -52.0075 N.am      19 UNK        -0.5000 
    105 CA        -6.0187  -19.6849  -52.8549 C.3       19 UNK         0.1400 
    106 CB        -6.0011  -20.4191  -54.2095 C.3       19 UNK        -0.1800 
    107 C         -4.6775  -19.8334  -52.1200 C.2       19 UNK         0.5000 
    108 O         -4.6260  -20.4758  -51.0694 O.2       19 UNK        -0.5000 
    109 N         -3.6088  -19.2681  -52.6968 N.am      20 UNK        -0.5000 
    110 CA        -2.2321  -19.3813  -52.1963 C.3       20 UNK         0.1400 
    111 CB        -1.3811  -18.2715  -52.8320 C.3       20 UNK        -0.1800 
    112 C         -1.5884  -20.7632  -52.4468 C.2       20 UNK         0.5000 
    113 O         -0.5165  -21.0322  -51.9074 O.2       20 UNK        -0.5000 
    114 N         -2.2433  -21.5957  -53.2706 N.am      21 UNK        -0.5000 
    115 CA        -1.9213  -22.9809  -53.6421 C.3       21 UNK         0.1400 
    116 CB        -1.7261  -23.8658  -52.3964 C.3       21 UNK        -0.1800 
    117 C         -0.7472  -23.1446  -54.6278 C.2       21 UNK         0.5000 
    118 O         -0.6031  -24.2246  -55.2032 O.2       21 UNK        -0.5000 
    119 N          0.0576  -22.0962  -54.8274 N.am      22 UNK        -0.5000 
    120 CA         1.1457  -22.0476  -55.8120 C.3       22 UNK         0.1400 
    121 C          0.6523  -21.9676  -57.2869 C.2       22 UNK         0.5000 
    122 N          1.4961  -22.3260  -58.2459 N.am      22 UNK        -0.7600 
    123 O         -0.4743  -21.5689  -57.5771 O.2       22 UNK        -0.5000 
    124 C124        2.1681  -20.9374  -55.4643 C.3       23 UNK        -0.0398 
    125 S125        1.4774  -19.2459  -55.4211 S.3       23 UNK        -0.2404 
    126 C126        2.8924  -18.3165  -54.7516 C.3       23 UNK        -0.0205 
    127 H127        4.7555   -9.1055  -48.9014 H         1 UNK         0.0600 
    128 H128        4.7929  -10.3274  -50.1757 H         1 UNK         0.0600 
    129 H129        5.9108  -10.4396  -48.8136 H         1 UNK         0.0600 
    130 H130        3.0880  -11.7534  -50.0148 H         1 UNK         0.3000 
    131 H131        2.4117  -13.1489  -47.6056 H         1 UNK         0.0600 
    132 H132        0.9772  -13.0339  -50.3171 H         1 UNK         0.0800 
    133 H133        0.5471  -14.1130  -49.0152 H         1 UNK         0.0800 
    134 H134        1.1448  -16.5966  -49.4316 H         1 UNK         0.0800 
    135 H135        0.6604  -15.8830  -50.9498 H         1 UNK         0.0800 
    136 H136        1.7546  -16.5175  -53.0625 H         1 UNK         0.1150 
    137 H137        4.0504  -20.1341  -53.0699 H         1 UNK         0.1150 
    138 H138        2.9222  -18.3112  -49.3569 H         1 UNK         0.1150 
    139 H139        4.1752  -21.4312  -51.0307 H         1 UNK         0.0800 
    140 H140        5.2904  -20.2971  -50.3078 H         1 UNK         0.0800 
    141 H141        1.6710  -21.4283  -50.1653 H         1 UNK         0.0800 
    142 H142        1.2887  -20.2310  -48.9576 H         1 UNK         0.0800 
    143 H143        1.6405  -23.2344  -48.4728 H         1 UNK         0.0600 
    144 H144        1.5099  -21.1255  -46.5066 H         1 UNK         0.3000 
    145 H145        0.3152  -23.2084  -43.8502 H         1 UNK         0.0600 
    146 H146        2.7800  -23.6261  -43.8840 H         1 UNK         0.0600 
    147 H147        3.0702  -21.9302  -44.2482 H         1 UNK         0.0600 
    148 H148        2.3471  -22.3942  -42.7094 H         1 UNK         0.0600 
    149 H149        1.0695  -20.4873  -43.8160 H         1 UNK         0.3000 
    150 H150       -2.0560  -19.1151  -44.9513 H         1 UNK         0.0600 
    151 H151       -1.7975  -17.9350  -42.7751 H         1 UNK         0.0600 
    152 H152       -0.6663  -19.1683  -42.2225 H         1 UNK         0.0600 
    153 H153       -2.3455  -19.5878  -42.5317 H         1 UNK         0.0600 
    154 H154        0.2994  -17.7991  -44.1313 H         1 UNK         0.3000 
    155 H155        2.0118  -17.7807  -47.2754 H         1 UNK         0.0600 
    156 H156        0.3557  -15.9061  -47.2755 H         1 UNK         0.0600 
    157 H157        1.9385  -15.3612  -46.7301 H         1 UNK         0.0600 
    158 H158        0.6412  -15.6446  -45.5664 H         1 UNK         0.0600 
    159 H159        2.6275  -16.7904  -44.6439 H         1 UNK         0.3000 
    160 H160        4.5158  -19.6453  -43.5893 H         1 UNK         0.0600 
    161 H161        6.0161  -18.2626  -45.0353 H         1 UNK         0.0600 
    162 H162        6.2227  -17.8691  -43.3361 H         1 UNK         0.0600 
    163 H163        5.3049  -16.7898  -44.3867 H         1 UNK         0.0600 
    164 H164        3.9517  -17.1436  -42.3326 H         1 UNK         0.3000 
    165 H165        0.9204  -18.0665  -40.7302 H         1 UNK         0.0600 
    166 H166        2.2219  -17.5932  -38.6798 H         1 UNK         0.0600 
    167 H167        2.6709  -19.1642  -39.3231 H         1 UNK         0.0600 
    168 H168        3.7393  -17.7861  -39.5588 H         1 UNK         0.0600 
    169 H169        2.4982  -15.7707  -40.3849 H         1 UNK         0.3000 
    170 H170        2.0947  -13.8344  -41.2484 H         1 UNK         0.0600 
    171 H171        2.2684  -12.5993  -43.3908 H         1 UNK         0.0600 
    172 H172        3.1720  -14.1048  -43.4557 H         1 UNK         0.0600 
    173 H173        1.6204  -13.9792  -44.2679 H         1 UNK         0.0600 
    174 H174       -0.3319  -13.3715  -42.8461 H         1 UNK         0.3000 
    175 H175       -2.5052  -13.1956  -40.1487 H         1 UNK         0.0600 
    176 H176       -1.0984  -10.6040  -40.9903 H         1 UNK         0.0600 
    177 H177       -2.7163  -10.7208  -40.2966 H         1 UNK         0.0600 
    178 H178       -1.3150  -11.1643  -39.3365 H         1 UNK         0.0600 
    179 H179       -2.3469  -11.8020  -42.7124 H         1 UNK         0.3000 
    180 H180       -3.5791  -14.4314  -44.6535 H         1 UNK         0.0600 
    181 H181       -5.5116  -12.9651  -45.1709 H         1 UNK         0.0600 
    182 H182       -5.2451  -12.0432  -43.6902 H         1 UNK         0.0600 
    183 H183       -5.7394  -13.7298  -43.6069 H         1 UNK         0.0600 
    184 H184       -3.3419  -11.6767  -45.2590 H         1 UNK         0.3000 
    185 H185       -1.6022  -11.1889  -46.8073 H         1 UNK         0.0600 
    186 H186        0.2776  -10.7564  -44.3978 H         1 UNK         0.0600 
    187 H187        0.0564   -9.6202  -45.7265 H         1 UNK         0.0600 
    188 H188       -1.2737   -9.9569  -44.6317 H         1 UNK         0.0600 
    189 H189        0.5385  -13.0375  -46.3313 H         1 UNK         0.3000 
    190 H190       -0.7820  -20.6800  -47.7394 H         1 UNK         0.3000 
    191 H191       -2.6545  -21.3897  -49.6747 H         1 UNK         0.0600 
    192 H192       -3.1416  -19.9910  -46.9887 H         1 UNK         0.0600 
    193 H193       -4.1562  -19.8702  -48.4232 H         1 UNK         0.0600 
    194 H194       -2.5388  -19.2017  -48.4459 H         1 UNK         0.0600 
    195 H195       -2.3017  -22.7041  -46.4059 H         1 UNK         0.3000 
    196 H196       -4.7049  -24.0547  -46.0791 H         1 UNK         0.0600 
    197 H197       -3.3654  -25.5444  -44.5456 H         1 UNK         0.0600 
    198 H198       -3.0260  -23.8413  -44.2947 H         1 UNK         0.0600 
    199 H199       -1.8822  -24.8446  -45.1861 H         1 UNK         0.0600 
    200 H200       -2.0717  -24.9453  -48.2691 H         1 UNK         0.3000 
    201 H201       -2.8963  -27.6765  -48.7072 H         1 UNK         0.0600 
    202 H202       -0.5889  -26.9058  -49.1709 H         1 UNK         0.0600 
    203 H203       -1.1779  -25.8027  -50.4099 H         1 UNK         0.0600 
    204 H204       -1.3277  -27.5395  -50.6341 H         1 UNK         0.0600 
    205 H205       -4.1859  -24.6361  -49.7685 H         1 UNK         0.3000 
    206 H206       -5.9991  -25.9894  -51.7265 H         1 UNK         0.0600 
    207 H207       -6.2533  -23.7108  -52.7411 H         1 UNK         0.0600 
    208 H208       -5.0379  -23.0809  -51.6333 H         1 UNK         0.0600 
    209 H209       -4.6032  -24.2863  -52.8462 H         1 UNK         0.0600 
    210 H210       -6.0236  -25.7224  -48.6800 H         1 UNK         0.3000 
    211 H211       -7.4045  -25.3736  -46.9971 H         1 UNK         0.0600 
    212 H212       -9.6360  -25.4060  -49.0978 H         1 UNK         0.0600 
    213 H213       -9.8107  -25.7574  -47.3835 H         1 UNK         0.0600 
    214 H214       -8.8766  -26.8377  -48.4031 H         1 UNK         0.0600 
    215 H215       -6.2660  -22.9942  -48.2275 H         1 UNK         0.3000 
    216 H216       -6.1652  -20.8381  -48.0270 H         1 UNK         0.0600 
    217 H217       -7.3142  -19.6124  -46.2482 H         1 UNK         0.0600 
    218 H218       -6.8037  -21.1734  -45.6303 H         1 UNK         0.0600 
    219 H219       -8.4952  -20.8968  -46.0485 H         1 UNK         0.0600 
    220 H220       -8.2382  -22.1908  -49.9369 H         1 UNK         0.3000 
    221 H221       -9.9801  -19.9404  -50.6336 H         1 UNK         0.0600 
    222 H222       -9.3961  -22.5416  -52.1413 H         1 UNK         0.0600 
    223 H223      -10.6727  -22.3403  -50.9408 H         1 UNK         0.0600 
    224 H224      -10.7203  -21.4268  -52.4417 H         1 UNK         0.0600 
    225 H225       -6.7088  -20.8486  -51.2740 H         1 UNK         0.3000 
    226 H226       -6.2093  -18.6209  -53.0084 H         1 UNK         0.0600 
    227 H227       -6.9606  -20.3313  -54.7195 H         1 UNK         0.0600 
    228 H228       -5.2463  -20.0044  -54.8782 H         1 UNK         0.0600 
    229 H229       -5.7869  -21.4815  -54.0867 H         1 UNK         0.0600 
    230 H230       -3.7315  -18.7462  -53.5529 H         1 UNK         0.3000 
    231 H231       -2.2421  -19.2231  -51.1157 H         1 UNK         0.0600 
    232 H232       -1.3369  -18.3672  -53.9175 H         1 UNK         0.0600 
    233 H233       -1.7755  -17.2835  -52.5945 H         1 UNK         0.0600 
    234 H234       -0.3576  -18.3087  -52.4591 H         1 UNK         0.0600 
    235 H235       -3.0907  -21.2369  -53.6847 H         1 UNK         0.3000 
    236 H236       -2.8047  -23.3461  -54.1672 H         1 UNK         0.0600 
    237 H237       -0.7565  -23.6920  -51.9290 H         1 UNK         0.0600 
    238 H238       -2.4925  -23.6807  -51.6443 H         1 UNK         0.0600 
    239 H239       -1.7735  -24.9224  -52.6614 H         1 UNK         0.0600 
    240 H240       -0.1198  -21.2447  -54.3152 H         1 UNK         0.3000 
    241 H241        1.6785  -22.9971  -55.7274 H         1 UNK         0.0600 
    242 H242        2.4254  -22.6597  -58.0405 H         1 UNK         0.3800 
    243 H243        1.1940  -22.2723  -59.2066 H         1 UNK         0.3800 
    244 H244        2.5956  -21.1605  -54.4877 H         1 UNK         0.0800 
    245 H245        3.0049  -20.9548  -56.1643 H         1 UNK         0.0800 
    246 H246        2.8353  -17.2883  -55.1122 H         1 UNK         0.0800 
    247 H247        3.8276  -18.7203  -55.1425 H         1 UNK         0.0800 
@<TRIPOS>BOND
     1    1    2 1    
     2    1  127 1    
     3    1  128 1    
     4    1  129 1    
     5    2    3 2    
     6    2    4 am   BACKBONE|DICT|INTERRES
     7    4    5 1    
     8    4  130 1    
     9    5    6 1    
    10    5   65 1    
    11    5  131 1    
    12    6    7 1    
    13    6  132 1    
    14    6  133 1    
    15    7    8 1    
    16    8    9 1    
    17    8  134 1    
    18    8  135 1    
    19    9   10 ar   
    20    9   14 ar   
    21   10   11 ar   
    22   10  136 1    
    23   11   12 ar   
    24   11  126 1    
    25   12   13 ar   
    26   12  137 1    
    27   13   14 ar   
    28   13   15 1    
    29   14  138 1    
    30   15   16 1    
    31   15  139 1    
    32   15  140 1    
    33   16   17 1    
    34   17   18 1    
    35   17  141 1    
    36   17  142 1    
    37   18   19 1    
    38   18   67 1    
    39   18  143 1    
    40   19   20 am   BACKBONE|DICT|INTERRES
    41   19  144 1    
    42   20   21 2    
    43   20   22 1    
    44   22   23 1    
    45   22   24 1    
    46   22  145 1    
    47   23  146 1    
    48   23  147 1    
    49   23  148 1    
    50   24   25 am   BACKBONE|DICT|INTERRES
    51   24  149 1    
    52   25   26 2    
    53   25   27 1    
    54   27   28 1    
    55   27   29 1    
    56   27  150 1    
    57   28  151 1    
    58   28  152 1    
    59   28  153 1    
    60   29   30 am   BACKBONE|DICT|INTERRES
    61   29  154 1    
    62   30   31 2    
    63   30   32 1    
    64   32   33 1    
    65   32   34 1    
    66   32  155 1    
    67   33  156 1    
    68   33  157 1    
    69   33  158 1    
    70   34   35 am   BACKBONE|DICT|INTERRES
    71   34  159 1    
    72   35   36 2    
    73   35   37 1    
    74   37   38 1    
    75   37   39 1    
    76   37  160 1    
    77   38  161 1    
    78   38  162 1    
    79   38  163 1    
    80   39   40 am   BACKBONE|DICT|INTERRES
    81   39  164 1    
    82   40   41 2    
    83   40   42 1    
    84   42   43 1    
    85   42   44 1    
    86   42  165 1    
    87   43  166 1    
    88   43  167 1    
    89   43  168 1    
    90   44   45 am   BACKBONE|DICT|INTERRES
    91   44  169 1    
    92   45   46 2    
    93   45   47 1    
    94   47   48 1    
    95   47   49 1    
    96   47  170 1    
    97   48  171 1    
    98   48  172 1    
    99   48  173 1    
   100   49   50 am   BACKBONE|DICT|INTERRES
   101   49  174 1    
   102   50   51 2    
   103   50   52 1    
   104   52   53 1    
   105   52   54 1    
   106   52  175 1    
   107   53  176 1    
   108   53  177 1    
   109   53  178 1    
   110   54   55 am   BACKBONE|DICT|INTERRES
   111   54  179 1    
   112   55   56 2    
   113   55   57 1    
   114   57   58 1    
   115   57   59 1    
   116   57  180 1    
   117   58  181 1    
   118   58  182 1    
   119   58  183 1    
   120   59   60 am   BACKBONE|DICT|INTERRES
   121   59  184 1    
   122   60   61 2    
   123   60   62 1    
   124   62   63 1    
   125   62   64 1    
   126   62  185 1    
   127   63  186 1    
   128   63  187 1    
   129   63  188 1    
   130   64   65 am   BACKBONE|DICT|INTERRES
   131   64  189 1    
   132   65   66 2    
   133   67   68 2    
   134   67   69 am   BACKBONE|DICT|INTERRES
   135   69   70 1    
   136   69  190 1    
   137   70   71 1    
   138   70   72 1    
   139   70  191 1    
   140   71  192 1    
   141   71  193 1    
   142   71  194 1    
   143   72   73 2    
   144   72   74 am   BACKBONE|DICT|INTERRES
   145   74   75 1    
   146   74  195 1    
   147   75   76 1    
   148   75   77 1    
   149   75  196 1    
   150   76  197 1    
   151   76  198 1    
   152   76  199 1    
   153   77   78 2    
   154   77   79 am   BACKBONE|DICT|INTERRES
   155   79   80 1    
   156   79  200 1    
   157   80   81 1    
   158   80   82 1    
   159   80  201 1    
   160   81  202 1    
   161   81  203 1    
   162   81  204 1    
   163   82   83 2    
   164   82   84 am   BACKBONE|DICT|INTERRES
   165   84   85 1    
   166   84  205 1    
   167   85   86 1    
   168   85   87 1    
   169   85  206 1    
   170   86  207 1    
   171   86  208 1    
   172   86  209 1    
   173   87   88 2    
   174   87   89 am   BACKBONE|DICT|INTERRES
   175   89   90 1    
   176   89  210 1    
   177   90   91 1    
   178   90   92 1    
   179   90  211 1    
   180   91  212 1    
   181   91  213 1    
   182   91  214 1    
   183   92   93 2    
   184   92   94 am   BACKBONE|DICT|INTERRES
   185   94   95 1    
   186   94  215 1    
   187   95   96 1    
   188   95   97 1    
   189   95  216 1    
   190   96  217 1    
   191   96  218 1    
   192   96  219 1    
   193   97   98 2    
   194   97   99 am   BACKBONE|DICT|INTERRES
   195   99  100 1    
   196   99  220 1    
   197  100  101 1    
   198  100  102 1    
   199  100  221 1    
   200  101  222 1    
   201  101  223 1    
   202  101  224 1    
   203  102  103 2    
   204  102  104 am   BACKBONE|DICT|INTERRES
   205  104  105 1    
   206  104  225 1    
   207  105  106 1    
   208  105  107 1    
   209  105  226 1    
   210  106  227 1    
   211  106  228 1    
   212  106  229 1    
   213  107  108 2    
   214  107  109 am   BACKBONE|DICT|INTERRES
   215  109  110 1    
   216  109  230 1    
   217  110  111 1    
   218  110  112 1    
   219  110  231 1    
   220  111  232 1    
   221  111  233 1    
   222  111  234 1    
   223  112  113 2    
   224  112  114 am   BACKBONE|DICT|INTERRES
   225  114  115 1    
   226  114  235 1    
   227  115  116 1    
   228  115  117 1    
   229  115  236 1    
   230  116  237 1    
   231  116  238 1    
   232  116  239 1    
   233  117  118 2    
   234  117  119 am   BACKBONE|DICT|INTERRES
   235  119  120 1    
   236  119  240 1    
   237  120  121 1    
   238  120  124 1    
   239  120  241 1    
   240  121  122 am   BACKBONE|DICT|INTERRES
   241  121  123 2    
   242  122  242 1    
   243  122  243 1    
   244  124  125 1    
   245  124  244 1    
   246  124  245 1    
   247  125  126 1    
   248  126  246 1    
   249  126  247 1    
@<TRIPOS>SUBSTRUCTURE
     1 UNK         1 GROUP             0       ****    0 ROOT    
