@<TRIPOS>MOLECULE
3R540
247   249    1
SMALL
USER_CHARGES


@<TRIPOS>ATOM
      1 CA          7.1243  -10.4451  -49.8598 C.3       0 UNK        -0.1800 
      2 C           6.1509  -11.4874  -49.3276 C.2       0 UNK         0.5000 
      3 O           5.6596  -11.3486  -48.2087 O.2       0 UNK        -0.5000 
      4 N           5.8790  -12.5303  -50.1214 N.am      1 UNK        -0.5000 
      5 CA          4.9171  -13.5959  -49.8235 C.3       1 UNK         0.1400 
      6 C6          5.1161  -14.7823  -50.8023 C.3       23 UNK        -0.0398 
      7 S7          4.3842  -16.3420  -50.2071 S.3       23 UNK        -0.2404 
      8 C8          2.9588  -16.5182  -51.3306 C.3       23 UNK        -0.0205 
      9 C9          2.0424  -17.6668  -50.9267 C.ar      23 UNK        -0.0193 
     10 C10         0.6699  -17.4515  -50.7585 C.ar      23 UNK        -0.1150 
     11 C11        -0.1763  -18.5060  -50.3988 C.ar      23 UNK        -0.0193 
     12 C12         0.3612  -19.7779  -50.1893 C.ar      23 UNK        -0.1150 
     13 C13         1.7296  -20.0057  -50.3524 C.ar      23 UNK        -0.0193 
     14 C14         2.5608  -18.9520  -50.7376 C.ar      23 UNK        -0.1150 
     15 C15         2.3127  -21.3868  -50.1018 C.3       23 UNK        -0.0205 
     16 S16         3.2540  -21.4657  -48.5411 S.3       23 UNK        -0.2404 
     17 C17         2.0087  -20.9969  -47.2873 C.3       23 UNK        -0.0398 
     18 CA          1.3181  -22.2102  -46.6255 C.3       11 UNK         0.1400 
     19 N           0.6894  -21.8495  -45.3552 N.am      11 UNK        -0.5000 
     20 C           0.2207  -22.7359  -44.4664 C.2       10 UNK         0.5000 
     21 O           0.2975  -23.9571  -44.6100 O.2       10 UNK        -0.5000 
     22 CA         -0.4869  -22.1587  -43.2282 C.3       10 UNK         0.1400 
     23 CB          0.5374  -21.6417  -42.2071 C.3       10 UNK        -0.1800 
     24 N          -1.4322  -21.0921  -43.5634 N.am      10 UNK        -0.5000 
     25 C          -2.5250  -21.2642  -44.3211 C.2       9 UNK         0.5000 
     26 O          -2.8593  -22.3454  -44.8041 O.2       9 UNK        -0.5000 
     27 CA         -3.3719  -20.0168  -44.6241 C.3       9 UNK         0.1400 
     28 CB         -4.2561  -19.6505  -43.4233 C.3       9 UNK        -0.1800 
     29 N          -2.5735  -18.8585  -45.0231 N.am      9 UNK        -0.5000 
     30 C          -1.7742  -18.8160  -46.0990 C.2       8 UNK         0.5000 
     31 O          -1.6137  -19.7551  -46.8744 O.2       8 UNK        -0.5000 
     32 CA         -0.9717  -17.5239  -46.3148 C.3       8 UNK         0.1400 
     33 CB         -1.8913  -16.3860  -46.7882 C.3       8 UNK        -0.1800 
     34 N          -0.2539  -17.1214  -45.1063 N.am      8 UNK        -0.5000 
     35 C           0.6620  -17.8709  -44.4735 C.2       7 UNK         0.5000 
     36 O           1.0504  -18.9704  -44.8693 O.2       7 UNK        -0.5000 
     37 CA          1.1881  -17.3236  -43.1375 C.3       7 UNK         0.1400 
     38 CB          2.2726  -16.2586  -43.3640 C.3       7 UNK        -0.1800 
     39 N           0.1097  -16.7741  -42.3153 N.am      7 UNK        -0.5000 
     40 C          -0.8675  -17.5075  -41.7614 C.2       6 UNK         0.5000 
     41 O          -0.9433  -18.7324  -41.8542 O.2       6 UNK        -0.5000 
     42 CA         -1.9684  -16.7348  -41.0134 C.3       6 UNK         0.1400 
     43 CB         -1.5138  -16.3826  -39.5892 C.3       6 UNK        -0.1800 
     44 N          -2.3648  -15.5132  -41.7143 N.am      6 UNK        -0.5000 
     45 C          -2.9918  -15.4917  -42.8990 C.2       5 UNK         0.5000 
     46 O          -3.3410  -16.5029  -43.5063 O.2       5 UNK        -0.5000 
     47 CA         -3.2245  -14.1079  -43.5324 C.3       5 UNK         0.1400 
     48 CB         -4.5419  -13.4985  -43.0307 C.3       5 UNK        -0.1800 
     49 N          -2.1268  -13.1681  -43.2860 N.am      5 UNK        -0.5000 
     50 C          -0.8736  -13.3377  -43.7260 C.2       4 UNK         0.5000 
     51 O          -0.4978  -14.3276  -44.3582 O.2       4 UNK        -0.5000 
     52 CA          0.1422  -12.2472  -43.3467 C.3       4 UNK         0.1400 
     53 CB          0.8910  -12.6406  -42.0640 C.3       4 UNK        -0.1800 
     54 N           1.1131  -12.0297  -44.4179 N.am      4 UNK        -0.5000 
     55 C           0.8359  -11.4260  -45.5819 C.2       3 UNK         0.5000 
     56 O          -0.2599  -10.9282  -45.8431 O.2       3 UNK        -0.5000 
     57 CA          1.9577  -11.3609  -46.6368 C.3       3 UNK         0.1400 
     58 CB          2.4321   -9.9115  -46.8263 C.3       3 UNK        -0.1800 
     59 N           3.1197  -12.1793  -46.2704 N.am      3 UNK        -0.5000 
     60 C           3.4480  -13.4285  -46.6383 C.2       2 UNK         0.5000 
     61 O           4.3939  -14.0033  -46.1043 O.2       2 UNK        -0.5000 
     62 CA          2.6992  -14.1768  -47.7651 C.3       2 UNK         0.1400 
     63 CB          1.3382  -14.7074  -47.2963 C.3       2 UNK        -0.1800 
     64 N           2.5369  -13.4110  -49.0035 N.am      2 UNK        -0.5000 
     65 C           3.4691  -13.0435  -49.8955 C.2       1 UNK         0.5000 
     66 O           3.1768  -12.2950  -50.8293 O.2       1 UNK        -0.5000 
     67 C           0.3170  -22.8984  -47.5745 C.2       11 UNK         0.5000 
     68 O           0.6498  -23.9327  -48.1512 O.2       11 UNK        -0.5000 
     69 N          -0.8997  -22.3475  -47.6928 N.am      12 UNK        -0.5000 
     70 CA         -1.9822  -22.9032  -48.5037 C.3       12 UNK         0.1400 
     71 CB         -3.1708  -21.9348  -48.5257 C.3       12 UNK        -0.1800 
     72 C          -2.4194  -24.2994  -48.0333 C.2       12 UNK         0.5000 
     73 O          -2.5981  -25.1815  -48.8703 O.2       12 UNK        -0.5000 
     74 N          -2.5242  -24.4977  -46.7116 N.am      13 UNK        -0.5000 
     75 CA         -2.8164  -25.7911  -46.0925 C.3       13 UNK         0.1400 
     76 CB         -3.0262  -25.6087  -44.5819 C.3       13 UNK        -0.1800 
     77 C          -1.7303  -26.8470  -46.3702 C.2       13 UNK         0.5000 
     78 O          -2.0671  -27.9950  -46.6615 O.2       13 UNK        -0.5000 
     79 N          -0.4551  -26.4367  -46.3123 N.am      14 UNK        -0.5000 
     80 CA          0.6985  -27.2780  -46.6379 C.3       14 UNK         0.1400 
     81 CB          1.9870  -26.5847  -46.1692 C.3       14 UNK        -0.1800 
     82 C           0.7758  -27.6296  -48.1368 C.2       14 UNK         0.5000 
     83 O           1.0848  -28.7716  -48.4790 O.2       14 UNK        -0.5000 
     84 N           0.4767  -26.6499  -48.9998 N.am      15 UNK        -0.5000 
     85 CA          0.4500  -26.7875  -50.4578 C.3       15 UNK         0.1400 
     86 CB          0.5062  -25.3840  -51.0837 C.3       15 UNK        -0.1800 
     87 C          -0.7776  -27.5542  -50.9910 C.2       15 UNK         0.5000 
     88 O          -0.7537  -27.9887  -52.1432 O.2       15 UNK        -0.5000 
     89 N          -1.8252  -27.6788  -50.1626 N.am      16 UNK        -0.5000 
     90 CA         -3.1659  -28.1827  -50.4803 C.3       16 UNK         0.1400 
     91 CB         -3.1298  -29.6732  -50.8781 C.3       16 UNK        -0.1800 
     92 C          -3.8872  -27.2833  -51.5086 C.2       16 UNK         0.5000 
     93 O          -4.5133  -27.7788  -52.4479 O.2       16 UNK        -0.5000 
     94 N          -3.7666  -25.9678  -51.3043 N.am      17 UNK        -0.5000 
     95 CA         -4.3616  -24.9042  -52.1062 C.3       17 UNK         0.1400 
     96 CB         -3.2399  -23.9351  -52.5192 C.3       17 UNK        -0.1800 
     97 C          -5.4297  -24.1612  -51.2861 C.2       17 UNK         0.5000 
     98 O          -5.4963  -24.3128  -50.0637 O.2       17 UNK        -0.5000 
     99 N          -6.2359  -23.3437  -51.9717 N.am      18 UNK        -0.5000 
    100 CA        -7.1738  -22.4143  -51.3484 C.3       18 UNK         0.1400 
    101 CB        -8.3481  -22.1573  -52.3063 C.3       18 UNK        -0.1800 
    102 C         -6.4415  -21.1036  -51.0241 C.2       18 UNK         0.5000 
    103 O         -5.8963  -20.4783  -51.9361 O.2       18 UNK        -0.5000 
    104 N         -6.4666  -20.6898  -49.7500 N.am      19 UNK        -0.5000 
    105 CA        -5.8157  -19.4681  -49.2598 C.3       19 UNK         0.1400 
    106 CB        -5.9561  -19.3942  -47.7324 C.3       19 UNK        -0.1800 
    107 C         -6.3518  -18.1826  -49.9185 C.2       19 UNK         0.5000 
    108 O         -5.5898  -17.2430  -50.1440 O.2       19 UNK        -0.5000 
    109 N         -7.6480  -18.1872  -50.2564 N.am      20 UNK        -0.5000 
    110 CA        -8.3331  -17.1062  -50.9630 C.3       20 UNK         0.1400 
    111 CB        -9.8488  -17.3443  -50.8781 C.3       20 UNK        -0.1800 
    112 C         -7.8956  -16.9503  -52.4335 C.2       20 UNK         0.5000 
    113 O         -8.0677  -15.8658  -52.9914 O.2       20 UNK        -0.5000 
    114 N         -7.3547  -18.0176  -53.0406 N.am      21 UNK        -0.5000 
    115 CA        -6.8645  -18.0044  -54.4177 C.3       21 UNK         0.1400 
    116 CB        -6.9094  -19.4230  -55.0078 C.3       21 UNK        -0.1800 
    117 C         -5.4491  -17.4120  -54.5029 C.2       21 UNK         0.5000 
    118 O         -5.2006  -16.5687  -55.3659 O.2       21 UNK        -0.5000 
    119 N         -4.5523  -17.8564  -53.6123 N.am      22 UNK        -0.5000 
    120 CA        -3.1665  -17.3657  -53.5330 C.3       22 UNK         0.1400 
    121 C         -2.9983  -16.0177  -52.7762 C.2       22 UNK         0.5000 
    122 N         -3.8829  -15.6502  -51.8576 N.am      22 UNK        -0.7600 
    123 O         -2.0509  -15.2826  -53.0395 O.2       22 UNK        -0.5000 
    124 C124       -2.1824  -18.4473  -53.0214 C.3       23 UNK        -0.0398 
    125 S125       -2.6587  -19.2186  -51.4368 S.3       23 UNK        -0.2404 
    126 C126       -1.6707  -18.2772  -50.2302 C.3       23 UNK        -0.0205 
    127 H127        7.9843  -10.3612  -49.1955 H         1 UNK         0.0600 
    128 H128        6.6375   -9.4713  -49.9139 H         1 UNK         0.0600 
    129 H129        7.4875  -10.6995  -50.8559 H         1 UNK         0.0600 
    130 H130        6.2943  -12.5629  -51.0414 H         1 UNK         0.3000 
    131 H131        5.1484  -13.9428  -48.8171 H         1 UNK         0.0600 
    132 H132        6.1822  -14.9786  -50.9263 H         1 UNK         0.0800 
    133 H133        4.7455  -14.5431  -51.8011 H         1 UNK         0.0800 
    134 H134        2.4031  -15.5793  -51.3497 H         1 UNK         0.0800 
    135 H135        3.3181  -16.6910  -52.3458 H         1 UNK         0.0800 
    136 H136        0.2571  -16.4647  -50.9158 H         1 UNK         0.1150 
    137 H137       -0.2917  -20.5887  -49.8981 H         1 UNK         0.1150 
    138 H138        3.6194  -19.1288  -50.8670 H         1 UNK         0.1150 
    139 H139        1.5281  -22.1441  -50.1002 H         1 UNK         0.0800 
    140 H140        2.9785  -21.6488  -50.9252 H         1 UNK         0.0800 
    141 H141        1.2792  -20.2914  -47.6842 H         1 UNK         0.0800 
    142 H142        2.5557  -20.4395  -46.5262 H         1 UNK         0.0800 
    143 H143        2.0927  -22.9433  -46.3892 H         1 UNK         0.0600 
    144 H144        0.6016  -20.8561  -45.1585 H         1 UNK         0.3000 
    145 H145       -1.0510  -22.9693  -42.7623 H         1 UNK         0.0600 
    146 H146        0.0484  -21.3253  -41.2857 H         1 UNK         0.0600 
    147 H147        1.2552  -22.4196  -41.9438 H         1 UNK         0.0600 
    148 H148        1.0994  -20.7914  -42.5954 H         1 UNK         0.0600 
    149 H149       -1.2400  -20.1742  -43.1729 H         1 UNK         0.3000 
    150 H150       -4.0267  -20.2645  -45.4603 H         1 UNK         0.0600 
    151 H151       -4.8636  -20.5005  -43.1103 H         1 UNK         0.0600 
    152 H152       -4.9383  -18.8373  -43.6716 H         1 UNK         0.0600 
    153 H153       -3.6601  -19.3367  -42.5657 H         1 UNK         0.0600 
    154 H154       -2.6654  -18.0271  -44.4453 H         1 UNK         0.3000 
    155 H155       -0.2297  -17.7127  -47.0937 H         1 UNK         0.0600 
    156 H156       -1.3376  -15.4634  -46.9526 H         1 UNK         0.0600 
    157 H157       -2.3799  -16.6437  -47.7280 H         1 UNK         0.0600 
    158 H158       -2.6766  -16.1713  -46.0647 H         1 UNK         0.0600 
    159 H159       -0.4782  -16.2054  -44.7272 H         1 UNK         0.3000 
    160 H160        1.6395  -18.1549  -42.5917 H         1 UNK         0.0600 
    161 H161        1.8879  -15.3890  -43.8960 H         1 UNK         0.0600 
    162 H162        3.0958  -16.6621  -43.9552 H         1 UNK         0.0600 
    163 H163        2.6911  -15.9151  -42.4180 H         1 UNK         0.0600 
    164 H164        0.0650  -15.7698  -42.2364 H         1 UNK         0.3000 
    165 H165       -2.8427  -17.3854  -40.9420 H         1 UNK         0.0600 
    166 H166       -2.3153  -15.9027  -39.0273 H         1 UNK         0.0600 
    167 H167       -1.2251  -17.2795  -39.0395 H         1 UNK         0.0600 
    168 H168       -0.6558  -15.7091  -39.5927 H         1 UNK         0.0600 
    169 H169       -2.1180  -14.6349  -41.2831 H         1 UNK         0.3000 
    170 H170       -3.3050  -14.2494  -44.6121 H         1 UNK         0.0600 
    171 H171       -5.3797  -14.1711  -43.2201 H         1 UNK         0.0600 
    172 H172       -4.5140  -13.3028  -41.9581 H         1 UNK         0.0600 
    173 H173       -4.7607  -12.5590  -43.5386 H         1 UNK         0.0600 
    174 H174       -2.3569  -12.3340  -42.7651 H         1 UNK         0.3000 
    175 H175       -0.3912  -11.3115  -43.1659 H         1 UNK         0.0600 
    176 H176        0.1978  -12.7963  -41.2364 H         1 UNK         0.0600 
    177 H177        1.4605  -13.5613  -42.1931 H         1 UNK         0.0600 
    178 H178        1.5864  -11.8583  -41.7594 H         1 UNK         0.0600 
    179 H179        2.0213  -12.4520  -44.2991 H         1 UNK         0.3000 
    180 H180        1.5113  -11.6790  -47.5743 H         1 UNK         0.0600 
    181 H181        2.8620   -9.5039  -45.9105 H         1 UNK         0.0600 
    182 H182        1.6066   -9.2617  -47.1200 H         1 UNK         0.0600 
    183 H183        3.1884   -9.8467  -47.6092 H         1 UNK         0.0600 
    184 H184        3.7278  -11.7402  -45.5953 H         1 UNK         0.3000 
    185 H185        3.2937  -15.0608  -47.9906 H         1 UNK         0.0600 
    186 H186        1.4325  -15.2334  -46.3464 H         1 UNK         0.0600 
    187 H187        0.6051  -13.9137  -47.1590 H         1 UNK         0.0600 
    188 H188        0.9304  -15.4162  -48.0174 H         1 UNK         0.0600 
    189 H189        1.6060  -13.0552  -49.1551 H         1 UNK         0.3000 
    190 H190       -1.1047  -21.4732  -47.2120 H         1 UNK         0.3000 
    191 H191       -1.6083  -22.9990  -49.5245 H         1 UNK         0.0600 
    192 H192       -3.5754  -21.7723  -47.5268 H         1 UNK         0.0600 
    193 H193       -3.9769  -22.3151  -49.1519 H         1 UNK         0.0600 
    194 H194       -2.8776  -20.9677  -48.9312 H         1 UNK         0.0600 
    195 H195       -2.4079  -23.7076  -46.0823 H         1 UNK         0.3000 
    196 H196       -3.7509  -26.1583  -46.5219 H         1 UNK         0.0600 
    197 H197       -3.2474  -26.5614  -44.0991 H         1 UNK         0.0600 
    198 H198       -3.8627  -24.9399  -44.3792 H         1 UNK         0.0600 
    199 H199       -2.1414  -25.1922  -44.0996 H         1 UNK         0.0600 
    200 H200       -0.2604  -25.4807  -46.0359 H         1 UNK         0.3000 
    201 H201        0.5994  -28.2133  -46.0830 H         1 UNK         0.0600 
    202 H202        1.9628  -26.3929  -45.0963 H         1 UNK         0.0600 
    203 H203        2.1408  -25.6310  -46.6743 H         1 UNK         0.0600 
    204 H204        2.8600  -27.2069  -46.3697 H         1 UNK         0.0600 
    205 H205        0.3071  -25.7160  -48.6328 H         1 UNK         0.3000 
    206 H206        1.3411  -27.3365  -50.7684 H         1 UNK         0.0600 
    207 H207        1.4002  -24.8458  -50.7678 H         1 UNK         0.0600 
    208 H208        0.5275  -25.4390  -52.1727 H         1 UNK         0.0600 
    209 H209       -0.3615  -24.7861  -50.8024 H         1 UNK         0.0600 
    210 H210       -1.7453  -27.2208  -49.2634 H         1 UNK         0.3000 
    211 H211       -3.7404  -28.1057  -49.5560 H         1 UNK         0.0600 
    212 H212       -2.6306  -29.8299  -51.8345 H         1 UNK         0.0600 
    213 H213       -4.1396  -30.0746  -50.9695 H         1 UNK         0.0600 
    214 H214       -2.6110  -30.2682  -50.1265 H         1 UNK         0.0600 
    215 H215       -3.3113  -25.6599  -50.4455 H         1 UNK         0.3000 
    216 H216       -4.8322  -25.3126  -53.0027 H         1 UNK         0.0600 
    217 H217       -2.7716  -23.4689  -51.6516 H         1 UNK         0.0600 
    218 H218       -3.6206  -23.1343  -53.1544 H         1 UNK         0.0600 
    219 H219       -2.4608  -24.4517  -53.0802 H         1 UNK         0.0600 
    220 H220       -6.0933  -23.2299  -52.9649 H         1 UNK         0.3000 
    221 H221       -7.5749  -22.8467  -50.4291 H         1 UNK         0.0600 
    222 H222       -8.8929  -23.0782  -52.5147 H         1 UNK         0.0600 
    223 H223       -8.0127  -21.7458  -53.2588 H         1 UNK         0.0600 
    224 H224       -9.0578  -21.4503  -51.8746 H         1 UNK         0.0600 
    225 H225       -6.9335  -21.2589  -49.0588 H         1 UNK         0.3000 
    226 H226       -4.7545  -19.5404  -49.4959 H         1 UNK         0.0600 
    227 H227       -5.5670  -20.2943  -47.2582 H         1 UNK         0.0600 
    228 H228       -5.3983  -18.5472  -47.3301 H         1 UNK         0.0600 
    229 H229       -6.9970  -19.2795  -47.4275 H         1 UNK         0.0600 
    230 H230       -8.1969  -19.0046  -50.0354 H         1 UNK         0.3000 
    231 H231       -8.1046  -16.1684  -50.4522 H         1 UNK         0.0600 
    232 H232      -10.1366  -18.2798  -51.3595 H         1 UNK         0.0600 
    233 H233      -10.3992  -16.5401  -51.3683 H         1 UNK         0.0600 
    234 H234      -10.1856  -17.3810  -49.8419 H         1 UNK         0.0600 
    235 H235       -7.1826  -18.8602  -52.5068 H         1 UNK         0.3000 
    236 H236       -7.5262  -17.3802  -55.0225 H         1 UNK         0.0600 
    237 H237       -7.9162  -19.8378  -54.9598 H         1 UNK         0.0600 
    238 H238       -6.6122  -19.4139  -56.0571 H         1 UNK         0.0600 
    239 H239       -6.2383  -20.1061  -54.4878 H         1 UNK         0.0600 
    240 H240       -4.8232  -18.5544  -52.9310 H         1 UNK         0.3000 
    241 H241       -2.8468  -17.1502  -54.5547 H         1 UNK         0.0600 
    242 H242       -4.6043  -16.2859  -51.5327 H         1 UNK         0.3800 
    243 H243       -3.7626  -14.7666  -51.3907 H         1 UNK         0.3800 
    244 H244       -1.1674  -18.0525  -52.9604 H         1 UNK         0.0800 
    245 H245       -2.1304  -19.2500  -53.7579 H         1 UNK         0.0800 
    246 H246       -1.9173  -17.2175  -50.3010 H         1 UNK         0.0800 
    247 H247       -1.9651  -18.5914  -49.2298 H         1 UNK         0.0800 
@<TRIPOS>BOND
     1    1    2 1    
     2    1  127 1    
     3    1  128 1    
     4    1  129 1    
     5    2    3 2    
     6    2    4 am   BACKBONE|DICT|INTERRES
     7    4    5 1    
     8    4  130 1    
     9    5    6 1    
    10    5   65 1    
    11    5  131 1    
    12    6    7 1    
    13    6  132 1    
    14    6  133 1    
    15    7    8 1    
    16    8    9 1    
    17    8  134 1    
    18    8  135 1    
    19    9   10 ar   
    20    9   14 ar   
    21   10   11 ar   
    22   10  136 1    
    23   11   12 ar   
    24   11  126 1    
    25   12   13 ar   
    26   12  137 1    
    27   13   14 ar   
    28   13   15 1    
    29   14  138 1    
    30   15   16 1    
    31   15  139 1    
    32   15  140 1    
    33   16   17 1    
    34   17   18 1    
    35   17  141 1    
    36   17  142 1    
    37   18   19 1    
    38   18   67 1    
    39   18  143 1    
    40   19   20 am   BACKBONE|DICT|INTERRES
    41   19  144 1    
    42   20   21 2    
    43   20   22 1    
    44   22   23 1    
    45   22   24 1    
    46   22  145 1    
    47   23  146 1    
    48   23  147 1    
    49   23  148 1    
    50   24   25 am   BACKBONE|DICT|INTERRES
    51   24  149 1    
    52   25   26 2    
    53   25   27 1    
    54   27   28 1    
    55   27   29 1    
    56   27  150 1    
    57   28  151 1    
    58   28  152 1    
    59   28  153 1    
    60   29   30 am   BACKBONE|DICT|INTERRES
    61   29  154 1    
    62   30   31 2    
    63   30   32 1    
    64   32   33 1    
    65   32   34 1    
    66   32  155 1    
    67   33  156 1    
    68   33  157 1    
    69   33  158 1    
    70   34   35 am   BACKBONE|DICT|INTERRES
    71   34  159 1    
    72   35   36 2    
    73   35   37 1    
    74   37   38 1    
    75   37   39 1    
    76   37  160 1    
    77   38  161 1    
    78   38  162 1    
    79   38  163 1    
    80   39   40 am   BACKBONE|DICT|INTERRES
    81   39  164 1    
    82   40   41 2    
    83   40   42 1    
    84   42   43 1    
    85   42   44 1    
    86   42  165 1    
    87   43  166 1    
    88   43  167 1    
    89   43  168 1    
    90   44   45 am   BACKBONE|DICT|INTERRES
    91   44  169 1    
    92   45   46 2    
    93   45   47 1    
    94   47   48 1    
    95   47   49 1    
    96   47  170 1    
    97   48  171 1    
    98   48  172 1    
    99   48  173 1    
   100   49   50 am   BACKBONE|DICT|INTERRES
   101   49  174 1    
   102   50   51 2    
   103   50   52 1    
   104   52   53 1    
   105   52   54 1    
   106   52  175 1    
   107   53  176 1    
   108   53  177 1    
   109   53  178 1    
   110   54   55 am   BACKBONE|DICT|INTERRES
   111   54  179 1    
   112   55   56 2    
   113   55   57 1    
   114   57   58 1    
   115   57   59 1    
   116   57  180 1    
   117   58  181 1    
   118   58  182 1    
   119   58  183 1    
   120   59   60 am   BACKBONE|DICT|INTERRES
   121   59  184 1    
   122   60   61 2    
   123   60   62 1    
   124   62   63 1    
   125   62   64 1    
   126   62  185 1    
   127   63  186 1    
   128   63  187 1    
   129   63  188 1    
   130   64   65 am   BACKBONE|DICT|INTERRES
   131   64  189 1    
   132   65   66 2    
   133   67   68 2    
   134   67   69 am   BACKBONE|DICT|INTERRES
   135   69   70 1    
   136   69  190 1    
   137   70   71 1    
   138   70   72 1    
   139   70  191 1    
   140   71  192 1    
   141   71  193 1    
   142   71  194 1    
   143   72   73 2    
   144   72   74 am   BACKBONE|DICT|INTERRES
   145   74   75 1    
   146   74  195 1    
   147   75   76 1    
   148   75   77 1    
   149   75  196 1    
   150   76  197 1    
   151   76  198 1    
   152   76  199 1    
   153   77   78 2    
   154   77   79 am   BACKBONE|DICT|INTERRES
   155   79   80 1    
   156   79  200 1    
   157   80   81 1    
   158   80   82 1    
   159   80  201 1    
   160   81  202 1    
   161   81  203 1    
   162   81  204 1    
   163   82   83 2    
   164   82   84 am   BACKBONE|DICT|INTERRES
   165   84   85 1    
   166   84  205 1    
   167   85   86 1    
   168   85   87 1    
   169   85  206 1    
   170   86  207 1    
   171   86  208 1    
   172   86  209 1    
   173   87   88 2    
   174   87   89 am   BACKBONE|DICT|INTERRES
   175   89   90 1    
   176   89  210 1    
   177   90   91 1    
   178   90   92 1    
   179   90  211 1    
   180   91  212 1    
   181   91  213 1    
   182   91  214 1    
   183   92   93 2    
   184   92   94 am   BACKBONE|DICT|INTERRES
   185   94   95 1    
   186   94  215 1    
   187   95   96 1    
   188   95   97 1    
   189   95  216 1    
   190   96  217 1    
   191   96  218 1    
   192   96  219 1    
   193   97   98 2    
   194   97   99 am   BACKBONE|DICT|INTERRES
   195   99  100 1    
   196   99  220 1    
   197  100  101 1    
   198  100  102 1    
   199  100  221 1    
   200  101  222 1    
   201  101  223 1    
   202  101  224 1    
   203  102  103 2    
   204  102  104 am   BACKBONE|DICT|INTERRES
   205  104  105 1    
   206  104  225 1    
   207  105  106 1    
   208  105  107 1    
   209  105  226 1    
   210  106  227 1    
   211  106  228 1    
   212  106  229 1    
   213  107  108 2    
   214  107  109 am   BACKBONE|DICT|INTERRES
   215  109  110 1    
   216  109  230 1    
   217  110  111 1    
   218  110  112 1    
   219  110  231 1    
   220  111  232 1    
   221  111  233 1    
   222  111  234 1    
   223  112  113 2    
   224  112  114 am   BACKBONE|DICT|INTERRES
   225  114  115 1    
   226  114  235 1    
   227  115  116 1    
   228  115  117 1    
   229  115  236 1    
   230  116  237 1    
   231  116  238 1    
   232  116  239 1    
   233  117  118 2    
   234  117  119 am   BACKBONE|DICT|INTERRES
   235  119  120 1    
   236  119  240 1    
   237  120  121 1    
   238  120  124 1    
   239  120  241 1    
   240  121  122 am   BACKBONE|DICT|INTERRES
   241  121  123 2    
   242  122  242 1    
   243  122  243 1    
   244  124  125 1    
   245  124  244 1    
   246  124  245 1    
   247  125  126 1    
   248  126  246 1    
   249  126  247 1    
@<TRIPOS>SUBSTRUCTURE
     1 UNK         1 GROUP             0       ****    0 ROOT    
