@<TRIPOS>MOLECULE
3R540
247   249    1
SMALL
USER_CHARGES


@<TRIPOS>ATOM
      1 CA          7.2693  -13.7206  -51.5620 C.3       0 UNK        -0.1800 
      2 C           5.9108  -13.1102  -51.2475 C.2       0 UNK         0.5000 
      3 O           5.6997  -11.9262  -51.5101 O.2       0 UNK        -0.5000 
      4 N           4.9998  -13.9166  -50.6842 N.am      1 UNK        -0.5000 
      5 CA          3.6282  -13.5516  -50.2955 C.3       1 UNK         0.1400 
      6 C6          2.7203  -13.1401  -51.4917 C.3       23 UNK        -0.0398 
      7 S7          2.6087  -14.2809  -52.9243 S.3       23 UNK        -0.2404 
      8 C8          2.8230  -15.9716  -52.2579 C.3       23 UNK        -0.0205 
      9 C9          1.8754  -16.3489  -51.1216 C.ar      23 UNK        -0.0193 
     10 C10         0.5628  -15.8666  -51.0628 C.ar      23 UNK        -0.1150 
     11 C11        -0.2687  -16.1982  -49.9907 C.ar      23 UNK        -0.0193 
     12 C12         0.2094  -17.0392  -48.9830 C.ar      23 UNK        -0.1150 
     13 C13         1.5114  -17.5408  -49.0337 C.ar      23 UNK        -0.0193 
     14 C14         2.3363  -17.1935  -50.1066 C.ar      23 UNK        -0.1150 
     15 C15         2.0516  -18.4129  -47.9102 C.3       23 UNK        -0.0205 
     16 S16         2.1603  -20.1665  -48.3884 S.3       23 UNK        -0.2404 
     17 C17         0.4909  -20.7967  -48.0033 C.3       23 UNK        -0.0398 
     18 CA          0.5452  -22.2167  -47.3918 C.3       11 UNK         0.1400 
     19 N           1.3044  -22.2874  -46.1392 N.am      11 UNK        -0.5000 
     20 C           1.7632  -23.4335  -45.6162 C.2       10 UNK         0.5000 
     21 O           1.5911  -24.5365  -46.1336 O.2       10 UNK        -0.5000 
     22 CA          2.5057  -23.3393  -44.2726 C.3       10 UNK         0.1400 
     23 CB          3.9693  -22.9287  -44.4911 C.3       10 UNK        -0.1800 
     24 N           1.8819  -22.4140  -43.3276 N.am      10 UNK        -0.5000 
     25 C           0.6370  -22.5085  -42.8450 C.2       9 UNK         0.5000 
     26 O          -0.1557  -23.3888  -43.1786 O.2       9 UNK        -0.5000 
     27 CA          0.1848  -21.4319  -41.8426 C.3       9 UNK         0.1400 
     28 CB          0.5869  -21.7991  -40.4029 C.3       9 UNK        -0.1800 
     29 N           0.6041  -20.0705  -42.1919 N.am      9 UNK        -0.5000 
     30 C           1.8256  -19.5175  -42.2061 C.2       8 UNK         0.5000 
     31 O           2.8615  -20.1209  -41.9257 O.2       8 UNK        -0.5000 
     32 CA          1.8985  -18.0422  -42.6427 C.3       8 UNK         0.1400 
     33 CB          2.1135  -17.9593  -44.1610 C.3       8 UNK        -0.1800 
     34 N           0.6867  -17.2982  -42.3004 N.am      8 UNK        -0.5000 
     35 C           0.2987  -16.9848  -41.0567 C.2       7 UNK         0.5000 
     36 O           0.9768  -17.1939  -40.0504 O.2       7 UNK        -0.5000 
     37 CA         -1.1055  -16.3731  -40.9184 C.3       7 UNK         0.1400 
     38 CB         -1.0931  -14.8740  -41.2567 C.3       7 UNK        -0.1800 
     39 N          -2.0736  -17.0613  -41.7746 N.am      7 UNK        -0.5000 
     40 C          -2.6281  -18.2490  -41.4924 C.2       6 UNK         0.5000 
     41 O          -2.4116  -18.8745  -40.4548 O.2       6 UNK        -0.5000 
     42 CA         -3.5809  -18.8466  -42.5457 C.3       6 UNK         0.1400 
     43 CB         -5.0346  -18.4584  -42.2378 C.3       6 UNK        -0.1800 
     44 N          -3.2550  -18.4290  -43.9099 N.am      6 UNK        -0.5000 
     45 C          -2.2404  -18.9273  -44.6271 C.2       5 UNK         0.5000 
     46 O          -1.4855  -19.8156  -44.2322 O.2       5 UNK        -0.5000 
     47 CA         -2.0048  -18.3074  -46.0131 C.3       5 UNK         0.1400 
     48 CB         -2.8429  -19.0282  -47.0788 C.3       5 UNK        -0.1800 
     49 N          -2.2356  -16.8611  -46.0881 N.am      5 UNK        -0.5000 
     50 C          -1.5675  -15.9598  -45.3563 C.2       4 UNK         0.5000 
     51 O          -0.7878  -16.2664  -44.4522 O.2       4 UNK        -0.5000 
     52 CA         -1.8427  -14.4736  -45.6484 C.3       4 UNK         0.1400 
     53 CB         -3.0925  -14.0083  -44.8857 C.3       4 UNK        -0.1800 
     54 N          -0.7104  -13.6323  -45.2559 N.am      4 UNK        -0.5000 
     55 C           0.5017  -13.6662  -45.8248 C.2       3 UNK         0.5000 
     56 O           0.7735  -14.3167  -46.8380 O.2       3 UNK        -0.5000 
     57 CA          1.5956  -12.8485  -45.1240 C.3       3 UNK         0.1400 
     58 CB          2.0374  -13.5203  -43.8101 C.3       3 UNK        -0.1800 
     59 N           2.7428  -12.7218  -46.0155 N.am      3 UNK        -0.5000 
     60 C           3.6162  -11.7097  -46.0228 C.2       2 UNK         0.5000 
     61 O           3.5620  -10.7608  -45.2389 O.2       2 UNK        -0.5000 
     62 CA          4.7504  -11.7551  -47.0680 C.3       2 UNK         0.1400 
     63 CB          6.0828  -12.1255  -46.3972 C.3       2 UNK        -0.1800 
     64 N           4.5179  -12.6783  -48.1826 N.am      2 UNK        -0.5000 
     65 C           3.6197  -12.4973  -49.1619 C.2       1 UNK         0.5000 
     66 O           2.8367  -11.5461  -49.1944 O.2       1 UNK        -0.5000 
     67 C          -0.8607  -22.8242  -47.2229 C.2       11 UNK         0.5000 
     68 O          -1.2911  -23.5763  -48.0947 O.2       11 UNK        -0.5000 
     69 N          -1.5259  -22.5610  -46.0863 N.am      12 UNK        -0.5000 
     70 CA         -2.8139  -23.1726  -45.7449 C.3       12 UNK         0.1400 
     71 CB         -3.4124  -22.5004  -44.5006 C.3       12 UNK        -0.1800 
     72 C          -2.7147  -24.6980  -45.5570 C.2       12 UNK         0.5000 
     73 O          -3.5697  -25.4241  -46.0638 O.2       12 UNK        -0.5000 
     74 N          -1.6477  -25.1613  -44.8898 N.am      13 UNK        -0.5000 
     75 CA         -1.3254  -26.5801  -44.7076 C.3       13 UNK         0.1400 
     76 CB         -0.1412  -26.7144  -43.7387 C.3       13 UNK        -0.1800 
     77 C          -1.0323  -27.3121  -46.0331 C.2       13 UNK         0.5000 
     78 O          -1.3926  -28.4808  -46.1752 O.2       13 UNK        -0.5000 
     79 N          -0.4250  -26.6002  -46.9918 N.am      14 UNK        -0.5000 
     80 CA         -0.1733  -27.0589  -48.3600 C.3       14 UNK         0.1400 
     81 CB          0.9862  -26.2369  -48.9474 C.3       14 UNK        -0.1800 
     82 C          -1.4136  -26.9833  -49.2787 C.2       14 UNK         0.5000 
     83 O          -1.3159  -27.3783  -50.4411 O.2       14 UNK        -0.5000 
     84 N          -2.5408  -26.4695  -48.7612 N.am      15 UNK        -0.5000 
     85 CA         -3.8172  -26.2252  -49.4437 C.3       15 UNK         0.1400 
     86 CB         -4.4303  -27.5332  -49.9861 C.3       15 UNK        -0.1800 
     87 C          -3.7501  -25.1052  -50.5045 C.2       15 UNK         0.5000 
     88 O          -4.6180  -25.0297  -51.3752 O.2       15 UNK        -0.5000 
     89 N          -2.7575  -24.2166  -50.3836 N.am      16 UNK        -0.5000 
     90 CA         -2.5862  -23.0024  -51.1739 C.3       16 UNK         0.1400 
     91 CB         -1.0868  -22.8021  -51.4605 C.3       16 UNK        -0.1800 
     92 C          -3.2172  -21.8199  -50.4164 C.2       16 UNK         0.5000 
     93 O          -2.5385  -20.8453  -50.0917 O.2       16 UNK        -0.5000 
     94 N          -4.5154  -21.9503  -50.1201 N.am      17 UNK        -0.5000 
     95 CA         -5.3529  -20.9002  -49.5467 C.3       17 UNK         0.1400 
     96 CB         -6.5871  -21.5579  -48.9105 C.3       17 UNK        -0.1800 
     97 C          -5.7734  -19.8921  -50.6301 C.2       17 UNK         0.5000 
     98 O          -5.6522  -20.1847  -51.8223 O.2       17 UNK        -0.5000 
     99 N          -6.3037  -18.7352  -50.2125 N.am      18 UNK        -0.5000 
    100 CA        -6.7453  -17.6481  -51.0975 C.3       18 UNK         0.1400 
    101 CB        -7.2395  -16.4712  -50.2448 C.3       18 UNK        -0.1800 
    102 C         -7.8153  -18.0631  -52.1297 C.2       18 UNK         0.5000 
    103 O         -7.8181  -17.5423  -53.2452 O.2       18 UNK        -0.5000 
    104 N         -8.6567  -19.0416  -51.7656 N.am      19 UNK        -0.5000 
    105 CA        -9.6432  -19.6812  -52.6418 C.3       19 UNK         0.1400 
    106 CB       -10.5644  -20.5634  -51.7853 C.3       19 UNK        -0.1800 
    107 C         -9.0177  -20.5099  -53.7857 C.2       19 UNK         0.5000 
    108 O         -9.6778  -20.7292  -54.8014 O.2       19 UNK        -0.5000 
    109 N         -7.7590  -20.9343  -53.6126 N.am      20 UNK        -0.5000 
    110 CA        -6.9412  -21.6439  -54.5971 C.3       20 UNK         0.1400 
    111 CB        -6.2762  -22.8481  -53.9046 C.3       20 UNK        -0.1800 
    112 C         -5.8971  -20.7032  -55.2388 C.2       20 UNK         0.5000 
    113 O         -4.8933  -21.1822  -55.7667 O.2       20 UNK        -0.5000 
    114 N         -6.1476  -19.3855  -55.1729 N.am      21 UNK        -0.5000 
    115 CA        -5.3214  -18.2750  -55.6638 C.3       21 UNK         0.1400 
    116 CB        -5.0322  -18.3981  -57.1749 C.3       21 UNK        -0.1800 
    117 C         -4.0499  -18.0103  -54.8285 C.2       21 UNK         0.5000 
    118 O         -3.1881  -17.2461  -55.2665 O.2       21 UNK        -0.5000 
    119 N         -3.9824  -18.5837  -53.6204 N.am      22 UNK        -0.5000 
    120 CA        -2.9171  -18.4053  -52.6235 C.3       22 UNK         0.1400 
    121 C         -1.5400  -19.0182  -53.0212 C.2       22 UNK         0.5000 
    122 N         -0.5026  -18.8091  -52.2227 N.am      22 UNK        -0.7600 
    123 O         -1.4014  -19.7185  -54.0217 O.2       22 UNK        -0.5000 
    124 C124       -2.8413  -16.9359  -52.1059 C.3       23 UNK        -0.0398 
    125 S125       -2.9506  -16.8422  -50.2877 S.3       23 UNK        -0.2404 
    126 C126       -1.6688  -15.6160  -49.8960 C.3       23 UNK        -0.0205 
    127 H127        7.4771  -13.6422  -52.6291 H         1 UNK         0.0600 
    128 H128        7.3163  -14.7737  -51.2836 H         1 UNK         0.0600 
    129 H129        8.0530  -13.1904  -51.0209 H         1 UNK         0.0600 
    130 H130        5.2585  -14.8740  -50.4934 H         1 UNK         0.3000 
    131 H131        3.1975  -14.4397  -49.8366 H         1 UNK         0.0600 
    132 H132        1.6995  -12.9920  -51.1351 H         1 UNK         0.0800 
    133 H133        3.0346  -12.1710  -51.8823 H         1 UNK         0.0800 
    134 H134        2.6686  -16.6793  -53.0732 H         1 UNK         0.0800 
    135 H135        3.8606  -16.0949  -51.9475 H         1 UNK         0.0800 
    136 H136        0.1915  -15.2167  -51.8419 H         1 UNK         0.1150 
    137 H137       -0.4292  -17.2835  -48.1500 H         1 UNK         0.1150 
    138 H138        3.3472  -17.5751  -50.1411 H         1 UNK         0.1150 
    139 H139        3.0498  -18.0642  -47.6416 H         1 UNK         0.0800 
    140 H140        1.4460  -18.3015  -47.0120 H         1 UNK         0.0800 
    141 H141       -0.0877  -20.7929  -48.9287 H         1 UNK         0.0800 
    142 H142       -0.0144  -20.1168  -47.3232 H         1 UNK         0.0800 
    143 H143        1.0641  -22.8482  -48.1169 H         1 UNK         0.0600 
    144 H144        1.4873  -21.4204  -45.6573 H         1 UNK         0.3000 
    145 H145        2.4929  -24.3319  -43.8182 H         1 UNK         0.0600 
    146 H146        4.5276  -22.9474  -43.5549 H         1 UNK         0.0600 
    147 H147        4.0482  -21.9237  -44.9080 H         1 UNK         0.0600 
    148 H148        4.4682  -23.6113  -45.1804 H         1 UNK         0.0600 
    149 H149        2.4602  -21.6614  -42.9650 H         1 UNK         0.3000 
    150 H150       -0.9057  -21.4147  -41.8805 H         1 UNK         0.0600 
    151 H151        0.1715  -22.7670  -40.1199 H         1 UNK         0.0600 
    152 H152        0.2116  -21.0630  -39.6916 H         1 UNK         0.0600 
    153 H153        1.6686  -21.8623  -40.2826 H         1 UNK         0.0600 
    154 H154       -0.1492  -19.4982  -42.5513 H         1 UNK         0.3000 
    155 H155        2.7483  -17.5769  -42.1393 H         1 UNK         0.0600 
    156 H156        3.0262  -18.4766  -44.4597 H         1 UNK         0.0600 
    157 H157        2.1983  -16.9254  -44.4956 H         1 UNK         0.0600 
    158 H158        1.2823  -18.4159  -44.6990 H         1 UNK         0.0600 
    159 H159        0.0907  -17.0212  -43.0788 H         1 UNK         0.3000 
    160 H160       -1.4177  -16.4801  -39.8773 H         1 UNK         0.0600 
    161 H161       -0.8127  -14.6941  -42.2939 H         1 UNK         0.0600 
    162 H162       -0.3818  -14.3382  -40.6271 H         1 UNK         0.0600 
    163 H163       -2.0735  -14.4263  -41.0935 H         1 UNK         0.0600 
    164 H164       -2.2512  -16.6462  -42.6774 H         1 UNK         0.3000 
    165 H165       -3.5001  -19.9343  -42.4849 H         1 UNK         0.0600 
    166 H166       -5.7250  -18.9317  -42.9363 H         1 UNK         0.0600 
    167 H167       -5.3198  -18.7776  -41.2345 H         1 UNK         0.0600 
    168 H168       -5.1850  -17.3796  -42.2945 H         1 UNK         0.0600 
    169 H169       -3.8260  -17.7033  -44.3171 H         1 UNK         0.3000 
    170 H170       -0.9503  -18.4642  -46.2352 H         1 UNK         0.0600 
    171 H171       -3.9045  -18.8016  -46.9768 H         1 UNK         0.0600 
    172 H172       -2.7307  -20.1107  -47.0086 H         1 UNK         0.0600 
    173 H173       -2.5316  -18.7449  -48.0834 H         1 UNK         0.0600 
    174 H174       -2.8881  -16.5440  -46.7905 H         1 UNK         0.3000 
    175 H175       -2.0107  -14.3473  -46.7188 H         1 UNK         0.0600 
    176 H176       -2.9704  -14.1138  -43.8068 H         1 UNK         0.0600 
    177 H177       -3.3158  -12.9622  -45.0965 H         1 UNK         0.0600 
    178 H178       -3.9693  -14.5890  -45.1750 H         1 UNK         0.0600 
    179 H179       -0.8356  -13.0857  -44.4172 H         1 UNK         0.3000 
    180 H180        1.1883  -11.8578  -44.9106 H         1 UNK         0.0600 
    181 H181        2.8127  -12.9401  -43.3097 H         1 UNK         0.0600 
    182 H182        2.4307  -14.5222  -43.9851 H         1 UNK         0.0600 
    183 H183        1.2051  -13.6127  -43.1125 H         1 UNK         0.0600 
    184 H184        2.7998  -13.4378  -46.7281 H         1 UNK         0.3000 
    185 H185        4.8474  -10.7485  -47.4804 H         1 UNK         0.0600 
    186 H186        6.9092  -12.0784  -47.1067 H         1 UNK         0.0600 
    187 H187        6.3168  -11.4376  -45.5835 H         1 UNK         0.0600 
    188 H188        6.0551  -13.1321  -45.9777 H         1 UNK         0.0600 
    189 H189        5.1307  -13.4788  -48.2364 H         1 UNK         0.3000 
    190 H190       -1.1071  -21.9637  -45.3863 H         1 UNK         0.3000 
    191 H191       -3.4972  -22.9944  -46.5786 H         1 UNK         0.0600 
    192 H192       -3.6894  -21.4685  -44.7103 H         1 UNK         0.0600 
    193 H193       -2.7152  -22.5008  -43.6625 H         1 UNK         0.0600 
    194 H194       -4.3188  -23.0124  -44.1750 H         1 UNK         0.0600 
    195 H195       -1.0168  -24.4930  -44.4537 H         1 UNK         0.3000 
    196 H196       -2.1933  -27.0605  -44.2515 H         1 UNK         0.0600 
    197 H197       -0.3679  -26.2606  -42.7738 H         1 UNK         0.0600 
    198 H198        0.7558  -26.2348  -44.1308 H         1 UNK         0.0600 
    199 H199        0.0989  -27.7628  -43.5575 H         1 UNK         0.0600 
    200 H200       -0.1048  -25.6648  -46.7678 H         1 UNK         0.3000 
    201 H201        0.1384  -28.1046  -48.3247 H         1 UNK         0.0600 
    202 H202        1.8792  -26.3149  -48.3271 H         1 UNK         0.0600 
    203 H203        0.7280  -25.1812  -49.0316 H         1 UNK         0.0600 
    204 H204        1.2538  -26.5890  -49.9443 H         1 UNK         0.0600 
    205 H205       -2.5142  -26.1614  -47.7966 H         1 UNK         0.3000 
    206 H206       -4.4917  -25.8523  -48.6719 H         1 UNK         0.0600 
    207 H207       -3.8691  -27.9258  -50.8341 H         1 UNK         0.0600 
    208 H208       -4.4606  -28.3038  -49.2158 H         1 UNK         0.0600 
    209 H209       -5.4550  -27.3729  -50.3230 H         1 UNK         0.0600 
    210 H210       -2.1496  -24.2814  -49.5698 H         1 UNK         0.3000 
    211 H211       -3.1018  -23.0952  -52.1319 H         1 UNK         0.0600 
    212 H212       -0.5089  -22.6864  -50.5437 H         1 UNK         0.0600 
    213 H213       -0.9213  -21.9120  -52.0679 H         1 UNK         0.0600 
    214 H214       -0.6758  -23.6503  -52.0079 H         1 UNK         0.0600 
    215 H215       -4.9943  -22.7749  -50.4538 H         1 UNK         0.3000 
    216 H216       -4.7909  -20.3716  -48.7752 H         1 UNK         0.0600 
    217 H217       -7.2245  -20.8180  -48.4251 H         1 UNK         0.0600 
    218 H218       -6.2969  -22.2814  -48.1482 H         1 UNK         0.0600 
    219 H219       -7.1939  -22.0790  -49.6524 H         1 UNK         0.0600 
    220 H220       -6.3857  -18.5627  -49.2211 H         1 UNK         0.3000 
    221 H221       -5.8725  -17.3127  -51.6603 H         1 UNK         0.0600 
    222 H222       -8.0886  -16.7541  -49.6214 H         1 UNK         0.0600 
    223 H223       -6.4495  -16.1001  -49.5914 H         1 UNK         0.0600 
    224 H224       -7.5560  -15.6382  -50.8739 H         1 UNK         0.0600 
    225 H225       -8.5785  -19.4114  -50.8298 H         1 UNK         0.3000 
    226 H226      -10.2478  -18.8955  -53.0996 H         1 UNK         0.0600 
    227 H227      -11.0745  -19.9768  -51.0210 H         1 UNK         0.0600 
    228 H228      -11.3340  -21.0356  -52.3975 H         1 UNK         0.0600 
    229 H229      -10.0090  -21.3582  -51.2855 H         1 UNK         0.0600 
    230 H230       -7.2620  -20.6648  -52.7692 H         1 UNK         0.3000 
    231 H231       -7.5688  -22.0237  -55.4055 H         1 UNK         0.0600 
    232 H232       -5.7273  -23.4609  -54.6203 H         1 UNK         0.0600 
    233 H233       -7.0186  -23.4921  -53.4329 H         1 UNK         0.0600 
    234 H234       -5.5707  -22.5339  -53.1349 H         1 UNK         0.0600 
    235 H235       -6.9876  -19.0976  -54.6869 H         1 UNK         0.3000 
    236 H236       -5.9388  -17.3854  -55.5319 H         1 UNK         0.0600 
    237 H237       -4.3277  -19.2014  -57.3910 H         1 UNK         0.0600 
    238 H238       -5.9454  -18.5883  -57.7387 H         1 UNK         0.0600 
    239 H239       -4.5985  -17.4765  -57.5646 H         1 UNK         0.0600 
    240 H240       -4.7200  -19.2207  -53.3414 H         1 UNK         0.3000 
    241 H241       -3.2459  -19.0388  -51.8038 H         1 UNK         0.0600 
    242 H242        0.3872  -19.2143  -52.4628 H         1 UNK         0.3800 
    243 H243       -0.5904  -18.2645  -51.3779 H         1 UNK         0.3800 
    244 H244       -1.9471  -16.4283  -52.4698 H         1 UNK         0.0800 
    245 H245       -3.6724  -16.3420  -52.4876 H         1 UNK         0.0800 
    246 H246       -1.8310  -15.2514  -48.8823 H         1 UNK         0.0800 
    247 H247       -1.7785  -14.7485  -50.5488 H         1 UNK         0.0800 
@<TRIPOS>BOND
     1    1    2 1    
     2    1  127 1    
     3    1  128 1    
     4    1  129 1    
     5    2    3 2    
     6    2    4 am   BACKBONE|DICT|INTERRES
     7    4    5 1    
     8    4  130 1    
     9    5    6 1    
    10    5   65 1    
    11    5  131 1    
    12    6    7 1    
    13    6  132 1    
    14    6  133 1    
    15    7    8 1    
    16    8    9 1    
    17    8  134 1    
    18    8  135 1    
    19    9   10 ar   
    20    9   14 ar   
    21   10   11 ar   
    22   10  136 1    
    23   11   12 ar   
    24   11  126 1    
    25   12   13 ar   
    26   12  137 1    
    27   13   14 ar   
    28   13   15 1    
    29   14  138 1    
    30   15   16 1    
    31   15  139 1    
    32   15  140 1    
    33   16   17 1    
    34   17   18 1    
    35   17  141 1    
    36   17  142 1    
    37   18   19 1    
    38   18   67 1    
    39   18  143 1    
    40   19   20 am   BACKBONE|DICT|INTERRES
    41   19  144 1    
    42   20   21 2    
    43   20   22 1    
    44   22   23 1    
    45   22   24 1    
    46   22  145 1    
    47   23  146 1    
    48   23  147 1    
    49   23  148 1    
    50   24   25 am   BACKBONE|DICT|INTERRES
    51   24  149 1    
    52   25   26 2    
    53   25   27 1    
    54   27   28 1    
    55   27   29 1    
    56   27  150 1    
    57   28  151 1    
    58   28  152 1    
    59   28  153 1    
    60   29   30 am   BACKBONE|DICT|INTERRES
    61   29  154 1    
    62   30   31 2    
    63   30   32 1    
    64   32   33 1    
    65   32   34 1    
    66   32  155 1    
    67   33  156 1    
    68   33  157 1    
    69   33  158 1    
    70   34   35 am   BACKBONE|DICT|INTERRES
    71   34  159 1    
    72   35   36 2    
    73   35   37 1    
    74   37   38 1    
    75   37   39 1    
    76   37  160 1    
    77   38  161 1    
    78   38  162 1    
    79   38  163 1    
    80   39   40 am   BACKBONE|DICT|INTERRES
    81   39  164 1    
    82   40   41 2    
    83   40   42 1    
    84   42   43 1    
    85   42   44 1    
    86   42  165 1    
    87   43  166 1    
    88   43  167 1    
    89   43  168 1    
    90   44   45 am   BACKBONE|DICT|INTERRES
    91   44  169 1    
    92   45   46 2    
    93   45   47 1    
    94   47   48 1    
    95   47   49 1    
    96   47  170 1    
    97   48  171 1    
    98   48  172 1    
    99   48  173 1    
   100   49   50 am   BACKBONE|DICT|INTERRES
   101   49  174 1    
   102   50   51 2    
   103   50   52 1    
   104   52   53 1    
   105   52   54 1    
   106   52  175 1    
   107   53  176 1    
   108   53  177 1    
   109   53  178 1    
   110   54   55 am   BACKBONE|DICT|INTERRES
   111   54  179 1    
   112   55   56 2    
   113   55   57 1    
   114   57   58 1    
   115   57   59 1    
   116   57  180 1    
   117   58  181 1    
   118   58  182 1    
   119   58  183 1    
   120   59   60 am   BACKBONE|DICT|INTERRES
   121   59  184 1    
   122   60   61 2    
   123   60   62 1    
   124   62   63 1    
   125   62   64 1    
   126   62  185 1    
   127   63  186 1    
   128   63  187 1    
   129   63  188 1    
   130   64   65 am   BACKBONE|DICT|INTERRES
   131   64  189 1    
   132   65   66 2    
   133   67   68 2    
   134   67   69 am   BACKBONE|DICT|INTERRES
   135   69   70 1    
   136   69  190 1    
   137   70   71 1    
   138   70   72 1    
   139   70  191 1    
   140   71  192 1    
   141   71  193 1    
   142   71  194 1    
   143   72   73 2    
   144   72   74 am   BACKBONE|DICT|INTERRES
   145   74   75 1    
   146   74  195 1    
   147   75   76 1    
   148   75   77 1    
   149   75  196 1    
   150   76  197 1    
   151   76  198 1    
   152   76  199 1    
   153   77   78 2    
   154   77   79 am   BACKBONE|DICT|INTERRES
   155   79   80 1    
   156   79  200 1    
   157   80   81 1    
   158   80   82 1    
   159   80  201 1    
   160   81  202 1    
   161   81  203 1    
   162   81  204 1    
   163   82   83 2    
   164   82   84 am   BACKBONE|DICT|INTERRES
   165   84   85 1    
   166   84  205 1    
   167   85   86 1    
   168   85   87 1    
   169   85  206 1    
   170   86  207 1    
   171   86  208 1    
   172   86  209 1    
   173   87   88 2    
   174   87   89 am   BACKBONE|DICT|INTERRES
   175   89   90 1    
   176   89  210 1    
   177   90   91 1    
   178   90   92 1    
   179   90  211 1    
   180   91  212 1    
   181   91  213 1    
   182   91  214 1    
   183   92   93 2    
   184   92   94 am   BACKBONE|DICT|INTERRES
   185   94   95 1    
   186   94  215 1    
   187   95   96 1    
   188   95   97 1    
   189   95  216 1    
   190   96  217 1    
   191   96  218 1    
   192   96  219 1    
   193   97   98 2    
   194   97   99 am   BACKBONE|DICT|INTERRES
   195   99  100 1    
   196   99  220 1    
   197  100  101 1    
   198  100  102 1    
   199  100  221 1    
   200  101  222 1    
   201  101  223 1    
   202  101  224 1    
   203  102  103 2    
   204  102  104 am   BACKBONE|DICT|INTERRES
   205  104  105 1    
   206  104  225 1    
   207  105  106 1    
   208  105  107 1    
   209  105  226 1    
   210  106  227 1    
   211  106  228 1    
   212  106  229 1    
   213  107  108 2    
   214  107  109 am   BACKBONE|DICT|INTERRES
   215  109  110 1    
   216  109  230 1    
   217  110  111 1    
   218  110  112 1    
   219  110  231 1    
   220  111  232 1    
   221  111  233 1    
   222  111  234 1    
   223  112  113 2    
   224  112  114 am   BACKBONE|DICT|INTERRES
   225  114  115 1    
   226  114  235 1    
   227  115  116 1    
   228  115  117 1    
   229  115  236 1    
   230  116  237 1    
   231  116  238 1    
   232  116  239 1    
   233  117  118 2    
   234  117  119 am   BACKBONE|DICT|INTERRES
   235  119  120 1    
   236  119  240 1    
   237  120  121 1    
   238  120  124 1    
   239  120  241 1    
   240  121  122 am   BACKBONE|DICT|INTERRES
   241  121  123 2    
   242  122  242 1    
   243  122  243 1    
   244  124  125 1    
   245  124  244 1    
   246  124  245 1    
   247  125  126 1    
   248  126  246 1    
   249  126  247 1    
@<TRIPOS>SUBSTRUCTURE
     1 UNK         1 GROUP             0       ****    0 ROOT    
