@<TRIPOS>MOLECULE
3R540
247   249    1
SMALL
USER_CHARGES


@<TRIPOS>ATOM
      1 CA          4.5606  -12.0453  -44.4742 C.3       0 UNK        -0.1800 
      2 C           3.7438  -12.3399  -45.7224 C.2       0 UNK         0.5000 
      3 O           2.5563  -12.0251  -45.7759 O.2       0 UNK        -0.5000 
      4 N           4.3873  -12.9193  -46.7443 N.am      1 UNK        -0.5000 
      5 CA          3.7799  -13.2968  -48.0302 C.3       1 UNK         0.1400 
      6 C6          4.7232  -14.2346  -48.8290 C.3       23 UNK        -0.0398 
      7 S7          3.8417  -15.2828  -50.0327 S.3       23 UNK        -0.2404 
      8 C8          3.2757  -16.6389  -48.9603 C.3       23 UNK        -0.0205 
      9 C9          2.0896  -17.3600  -49.5779 C.ar      23 UNK        -0.0193 
     10 C10         0.8338  -16.7447  -49.5912 C.ar      23 UNK        -0.1150 
     11 C11        -0.2713  -17.3988  -50.1404 C.ar      23 UNK        -0.0193 
     12 C12        -0.1107  -18.6785  -50.6733 C.ar      23 UNK        -0.1150 
     13 C13         1.1289  -19.3207  -50.6409 C.ar      23 UNK        -0.0193 
     14 C14         2.2342  -18.6444  -50.1116 C.ar      23 UNK        -0.1150 
     15 C15         1.2395  -20.7566  -51.1467 C.3       23 UNK        -0.0205 
     16 S16         2.0983  -21.8847  -49.9931 S.3       23 UNK        -0.2404 
     17 C17         1.3677  -21.4615  -48.3730 C.3       23 UNK        -0.0398 
     18 CA          0.7935  -22.6819  -47.6173 C.3       11 UNK         0.1400 
     19 N           0.8733  -22.5015  -46.1655 N.am      11 UNK        -0.5000 
     20 C           0.5970  -23.4476  -45.2577 C.2       10 UNK         0.5000 
     21 O           0.2991  -24.6059  -45.5470 O.2       10 UNK        -0.5000 
     22 CA          0.6063  -23.0143  -43.7808 C.3       10 UNK         0.1400 
     23 CB          2.0365  -23.0126  -43.2214 C.3       10 UNK        -0.1800 
     24 N          -0.0057  -21.6997  -43.5799 N.am      10 UNK        -0.5000 
     25 C          -1.2972  -21.4222  -43.8103 C.2       9 UNK         0.5000 
     26 O          -2.1225  -22.2674  -44.1547 O.2       9 UNK        -0.5000 
     27 CA         -1.7307  -19.9489  -43.6852 C.3       9 UNK         0.1400 
     28 CB         -1.9717  -19.5690  -42.2173 C.3       9 UNK        -0.1800 
     29 N          -0.7689  -19.0215  -44.2834 N.am      9 UNK        -0.5000 
     30 C          -0.4425  -19.0003  -45.5842 C.2       8 UNK         0.5000 
     31 O          -0.9392  -19.7457  -46.4265 O.2       8 UNK        -0.5000 
     32 CA          0.6737  -18.0275  -45.9994 C.3       8 UNK         0.1400 
     33 CB          0.1272  -16.6022  -46.1813 C.3       8 UNK        -0.1800 
     34 N           1.7700  -18.0184  -45.0299 N.am      8 UNK        -0.5000 
     35 C           2.6009  -19.0498  -44.8200 C.2       7 UNK         0.5000 
     36 O           2.5511  -20.1072  -45.4470 O.2       7 UNK        -0.5000 
     37 CA          3.6304  -18.8865  -43.6869 C.3       7 UNK         0.1400 
     38 CB          4.8193  -18.0337  -44.1560 C.3       7 UNK        -0.1800 
     39 N           3.0498  -18.2901  -42.4828 N.am      7 UNK        -0.5000 
     40 C           2.0933  -18.8595  -41.7345 C.2       6 UNK         0.5000 
     41 O           1.6382  -19.9818  -41.9479 O.2       6 UNK        -0.5000 
     42 CA          1.5085  -18.0126  -40.5862 C.3       6 UNK         0.1400 
     43 CB          2.2942  -18.2515  -39.2885 C.3       6 UNK        -0.1800 
     44 N           1.4739  -16.5752  -40.8750 N.am      6 UNK        -0.5000 
     45 C           0.8281  -16.0162  -41.9069 C.2       5 UNK         0.5000 
     46 O           0.1641  -16.6592  -42.7266 O.2       5 UNK        -0.5000 
     47 CA          1.0008  -14.5005  -42.0821 C.3       5 UNK         0.1400 
     48 CB          2.4817  -14.1388  -42.3212 C.3       5 UNK        -0.1800 
     49 N           0.1943  -14.0746  -43.2203 N.am      5 UNK        -0.5000 
     50 C          -0.1100  -12.8163  -43.5445 C.2       4 UNK         0.5000 
     51 O           0.2071  -11.8323  -42.8693 O.2       4 UNK        -0.5000 
     52 CA         -0.9116  -12.6259  -44.8388 C.3       4 UNK         0.1400 
     53 CB         -2.4243  -12.7367  -44.5878 C.3       4 UNK        -0.1800 
     54 N          -0.5906  -11.3087  -45.3711 N.am      4 UNK        -0.5000 
     55 C          -0.4852  -10.9965  -46.6652 C.2       3 UNK         0.5000 
     56 O          -0.7921  -11.7631  -47.5796 O.2       3 UNK        -0.5000 
     57 CA          0.0858   -9.6110  -47.0095 C.3       3 UNK         0.1400 
     58 CB          0.1654   -8.6330  -45.8187 C.3       3 UNK        -0.1800 
     59 N           1.4219   -9.8113  -47.5570 N.am      3 UNK        -0.5000 
     60 C           1.9229   -9.1971  -48.6362 C.2       2 UNK         0.5000 
     61 O           1.3162   -8.3319  -49.2696 O.2       2 UNK        -0.5000 
     62 CA          3.3426   -9.6025  -49.0932 C.3       2 UNK         0.1400 
     63 CB          4.3594   -8.5148  -48.7129 C.3       2 UNK        -0.1800 
     64 N           3.7972  -10.8808  -48.5411 N.am      2 UNK        -0.5000 
     65 C           3.2991  -12.0829  -48.8662 C.2       1 UNK         0.5000 
     66 O           2.4624  -12.2436  -49.7548 O.2       1 UNK        -0.5000 
     67 C          -0.6439  -23.0137  -48.0700 C.2       11 UNK         0.5000 
     68 O          -0.8367  -23.9652  -48.8257 O.2       11 UNK        -0.5000 
     69 N          -1.6286  -22.2666  -47.5499 N.am      12 UNK        -0.5000 
     70 CA         -3.0569  -22.4914  -47.7703 C.3       12 UNK         0.1400 
     71 CB         -3.8655  -21.3287  -47.1799 C.3       12 UNK        -0.1800 
     72 C          -3.5513  -23.8436  -47.2330 C.2       12 UNK         0.5000 
     73 O          -4.3477  -24.4985  -47.9022 O.2       12 UNK        -0.5000 
     74 N          -3.0520  -24.2636  -46.0639 N.am      13 UNK        -0.5000 
     75 CA         -3.3315  -25.5779  -45.4852 C.3       13 UNK         0.1400 
     76 CB         -2.8158  -25.6246  -44.0389 C.3       13 UNK        -0.1800 
     77 C          -2.7411  -26.7326  -46.3185 C.2       13 UNK         0.5000 
     78 O          -3.3997  -27.7605  -46.4800 O.2       13 UNK        -0.5000 
     79 N          -1.5193  -26.5417  -46.8336 N.am      14 UNK        -0.5000 
     80 CA         -0.7959  -27.5217  -47.6407 C.3       14 UNK         0.1400 
     81 CB          0.6955  -27.1507  -47.6770 C.3       14 UNK        -0.1800 
     82 C          -1.3579  -27.6640  -49.0667 C.2       14 UNK         0.5000 
     83 O          -1.6233  -28.7845  -49.5043 O.2       14 UNK        -0.5000 
     84 N          -1.5035  -26.5368  -49.7752 N.am      15 UNK        -0.5000 
     85 CA         -1.8786  -26.5000  -51.1915 C.3       15 UNK         0.1400 
     86 CB         -1.3119  -25.2171  -51.8217 C.3       15 UNK        -0.1800 
     87 C          -3.3961  -26.5751  -51.4353 C.2       15 UNK         0.5000 
     88 O          -3.7962  -26.9078  -52.5507 O.2       15 UNK        -0.5000 
     89 N          -4.1897  -26.2527  -50.4040 N.am      16 UNK        -0.5000 
     90 CA         -5.6208  -25.9307  -50.4051 C.3       16 UNK         0.1400 
     91 CB         -6.4778  -26.9029  -51.2400 C.3       16 UNK        -0.1800 
     92 C          -5.8456  -24.4663  -50.8229 C.2       16 UNK         0.5000 
     93 O          -5.1611  -23.9528  -51.7128 O.2       16 UNK        -0.5000 
     94 N          -6.8172  -23.8173  -50.1674 N.am      17 UNK        -0.5000 
     95 CA         -7.1191  -22.3870  -50.2854 C.3       17 UNK         0.1400 
     96 CB         -8.2718  -22.0374  -49.3330 C.3       17 UNK        -0.1800 
     97 C          -7.4441  -21.9196  -51.7159 C.2       17 UNK         0.5000 
     98 O          -7.0779  -20.8055  -52.0890 O.2       17 UNK        -0.5000 
     99 N          -8.0914  -22.7927  -52.4993 N.am      18 UNK        -0.5000 
    100 CA        -8.4437  -22.5553  -53.8996 C.3       18 UNK         0.1400 
    101 CB        -9.4055  -23.6584  -54.3668 C.3       18 UNK        -0.1800 
    102 C         -7.2225  -22.4729  -54.8363 C.2       18 UNK         0.5000 
    103 O         -7.2749  -21.7441  -55.8276 O.2       18 UNK        -0.5000 
    104 N         -6.1518  -23.2101  -54.5107 N.am      19 UNK        -0.5000 
    105 CA        -4.8905  -23.1951  -55.2512 C.3       19 UNK         0.1400 
    106 CB        -4.2144  -24.5685  -55.1353 C.3       19 UNK        -0.1800 
    107 C         -3.9565  -22.0911  -54.7317 C.2       19 UNK         0.5000 
    108 O         -3.2967  -21.4259  -55.5307 O.2       19 UNK        -0.5000 
    109 N         -3.9233  -21.9167  -53.4036 N.am      20 UNK        -0.5000 
    110 CA        -3.1183  -20.9139  -52.7080 C.3       20 UNK         0.1400 
    111 CB        -3.1497  -21.2250  -51.2065 C.3       20 UNK        -0.1800 
    112 C         -3.5727  -19.4668  -52.9695 C.2       20 UNK         0.5000 
    113 O         -2.7288  -18.5731  -53.0142 O.2       20 UNK        -0.5000 
    114 N         -4.8890  -19.2705  -53.1340 N.am      21 UNK        -0.5000 
    115 CA        -5.5820  -17.9879  -53.2929 C.3       21 UNK         0.1400 
    116 CB        -5.1267  -17.2499  -54.5696 C.3       21 UNK        -0.1800 
    117 C         -5.5197  -17.1132  -52.0214 C.2       21 UNK         0.5000 
    118 O         -5.5242  -15.8841  -52.1117 O.2       21 UNK        -0.5000 
    119 N         -5.4939  -17.7668  -50.8561 N.am      22 UNK        -0.5000 
    120 CA        -5.5518  -17.1658  -49.5203 C.3       22 UNK         0.1400 
    121 C         -6.0512  -18.1979  -48.4719 C.2       22 UNK         0.5000 
    122 N         -6.3394  -17.7678  -47.2509 N.am      22 UNK        -0.7600 
    123 O         -6.1921  -19.3857  -48.7538 O.2       22 UNK        -0.5000 
    124 C124       -4.2388  -16.4419  -49.1058 C.3       23 UNK        -0.0398 
    125 S125       -2.7720  -17.5245  -48.9700 S.3       23 UNK        -0.2404 
    126 C126       -1.6395  -16.7343  -50.1553 C.3       23 UNK        -0.0205 
    127 H127        4.7461  -12.9632  -43.9171 H         1 UNK         0.0600 
    128 H128        5.5206  -11.5993  -44.7348 H         1 UNK         0.0600 
    129 H129        4.0300  -11.3498  -43.8235 H         1 UNK         0.0600 
    130 H130        5.3690  -13.1359  -46.6420 H         1 UNK         0.3000 
    131 H131        2.8787  -13.8600  -47.7781 H         1 UNK         0.0600 
    132 H132        5.4916  -13.6625  -49.3520 H         1 UNK         0.0800 
    133 H133        5.2615  -14.9000  -48.1521 H         1 UNK         0.0800 
    134 H134        2.9826  -16.2523  -47.9835 H         1 UNK         0.0800 
    135 H135        4.1030  -17.3277  -48.7827 H         1 UNK         0.0800 
    136 H136        0.7209  -15.7536  -49.1743 H         1 UNK         0.1150 
    137 H137       -0.9647  -19.1797  -51.0986 H         1 UNK         0.1150 
    138 H138        3.1992  -19.1309  -50.0892 H         1 UNK         0.1150 
    139 H139        0.2485  -21.1695  -51.3438 H         1 UNK         0.0800 
    140 H140        1.7683  -20.7555  -52.1005 H         1 UNK         0.0800 
    141 H141        0.6187  -20.6741  -48.4629 H         1 UNK         0.0800 
    142 H142        2.1830  -21.0185  -47.8023 H         1 UNK         0.0800 
    143 H143        1.4150  -23.5501  -47.8473 H         1 UNK         0.0600 
    144 H144        1.1517  -21.5828  -45.8383 H         1 UNK         0.3000 
    145 H145        0.0228  -23.7448  -43.2169 H         1 UNK         0.0600 
    146 H146        2.0407  -22.7918  -42.1539 H         1 UNK         0.0600 
    147 H147        2.5095  -23.9864  -43.3543 H         1 UNK         0.0600 
    148 H148        2.6633  -22.2712  -43.7178 H         1 UNK         0.0600 
    149 H149        0.6020  -20.9637  -43.2310 H         1 UNK         0.3000 
    150 H150       -2.6738  -19.8336  -44.2232 H         1 UNK         0.0600 
    151 H151       -2.7542  -20.1900  -41.7797 H         1 UNK         0.0600 
    152 H152       -2.2881  -18.5299  -42.1235 H         1 UNK         0.0600 
    153 H153       -1.0744  -19.7027  -41.6142 H         1 UNK         0.0600 
    154 H154       -0.3307  -18.3477  -43.6634 H         1 UNK         0.3000 
    155 H155        1.0714  -18.3650  -46.9588 H         1 UNK         0.0600 
    156 H156       -0.6293  -16.5782  -46.9660 H         1 UNK         0.0600 
    157 H157       -0.3416  -16.2260  -45.2734 H         1 UNK         0.0600 
    158 H158        0.9154  -15.9063  -46.4685 H         1 UNK         0.0600 
    159 H159        1.8309  -17.2157  -44.4219 H         1 UNK         0.3000 
    160 H160        4.0014  -19.8803  -43.4273 H         1 UNK         0.0600 
    161 H161        4.5166  -17.0145  -44.3999 H         1 UNK         0.0600 
    162 H162        5.2782  -18.4620  -45.0482 H         1 UNK         0.0600 
    163 H163        5.5921  -17.9797  -43.3890 H         1 UNK         0.0600 
    164 H164        3.3721  -17.3687  -42.2279 H         1 UNK         0.3000 
    165 H165        0.4800  -18.3403  -40.4257 H         1 UNK         0.0600 
    166 H166        1.8364  -17.7296  -38.4480 H         1 UNK         0.0600 
    167 H167        2.3175  -19.3126  -39.0362 H         1 UNK         0.0600 
    168 H168        3.3270  -17.9115  -39.3740 H         1 UNK         0.0600 
    169 H169        1.9959  -15.9816  -40.2465 H         1 UNK         0.3000 
    170 H170        0.6364  -14.0079  -41.1785 H         1 UNK         0.0600 
    171 H171        3.1132  -14.4508  -41.4891 H         1 UNK         0.0600 
    172 H172        2.8676  -14.6115  -43.2253 H         1 UNK         0.0600 
    173 H173        2.6140  -13.0623  -42.4266 H         1 UNK         0.0600 
    174 H174       -0.1641  -14.8468  -43.7676 H         1 UNK         0.3000 
    175 H175       -0.6011  -13.3957  -45.5493 H         1 UNK         0.0600 
    176 H176       -2.7692  -11.9844  -43.8773 H         1 UNK         0.0600 
    177 H177       -2.9871  -12.6075  -45.5124 H         1 UNK         0.0600 
    178 H178       -2.6831  -13.7161  -44.1837 H         1 UNK         0.0600 
    179 H179       -0.2525  -10.6578  -44.6734 H         1 UNK         0.3000 
    180 H180       -0.5760   -9.1825  -47.7649 H         1 UNK         0.0600 
    181 H181        0.8598   -8.9781  -45.0514 H         1 UNK         0.0600 
    182 H182       -0.8120   -8.4959  -45.3542 H         1 UNK         0.0600 
    183 H183        0.5039   -7.6504  -46.1479 H         1 UNK         0.0600 
    184 H184        1.9616  -10.5470  -47.1120 H         1 UNK         0.3000 
    185 H185        3.3234   -9.6881  -50.1816 H         1 UNK         0.0600 
    186 H186        4.0767   -7.5497  -49.1356 H         1 UNK         0.0600 
    187 H187        4.4301   -8.3911  -47.6315 H         1 UNK         0.0600 
    188 H188        5.3538   -8.7538  -49.0906 H         1 UNK         0.0600 
    189 H189        4.4771  -10.8345  -47.7964 H         1 UNK         0.3000 
    190 H190       -1.3820  -21.4655  -46.9722 H         1 UNK         0.3000 
    191 H191       -3.2282  -22.5064  -48.8442 H         1 UNK         0.0600 
    192 H192       -4.9330  -21.4680  -47.3553 H         1 UNK         0.0600 
    193 H193       -3.5829  -20.3807  -47.6386 H         1 UNK         0.0600 
    194 H194       -3.7174  -21.2373  -46.1043 H         1 UNK         0.0600 
    195 H195       -2.4571  -23.6380  -45.5290 H         1 UNK         0.3000 
    196 H196       -4.4154  -25.7084  -45.4596 H         1 UNK         0.0600 
    197 H197       -3.0470  -26.5834  -43.5733 H         1 UNK         0.0600 
    198 H198       -3.2780  -24.8470  -43.4305 H         1 UNK         0.0600 
    199 H199       -1.7356  -25.4884  -43.9901 H         1 UNK         0.0600 
    200 H200       -1.0239  -25.6849  -46.6072 H         1 UNK         0.3000 
    201 H201       -0.8830  -28.4945  -47.1520 H         1 UNK         0.0600 
    202 H202        1.1240  -27.1493  -46.6745 H         1 UNK         0.0600 
    203 H203        0.8563  -26.1618  -48.1079 H         1 UNK         0.0600 
    204 H204        1.2633  -27.8664  -48.2727 H         1 UNK         0.0600 
    205 H205       -1.2617  -25.6429  -49.3484 H         1 UNK         0.3000 
    206 H206       -1.4214  -27.3515  -51.7001 H         1 UNK         0.0600 
    207 H207       -0.2321  -25.1513  -51.6867 H         1 UNK         0.0600 
    208 H208       -1.5102  -25.1857  -52.8938 H         1 UNK         0.0600 
    209 H209       -1.7596  -24.3259  -51.3820 H         1 UNK         0.0600 
    210 H210       -3.7212  -25.9843  -49.5480 H         1 UNK         0.3000 
    211 H211       -5.9361  -26.0364  -49.3662 H         1 UNK         0.0600 
    212 H212       -6.3458  -26.7504  -52.3117 H         1 UNK         0.0600 
    213 H213       -7.5377  -26.7604  -51.0272 H         1 UNK         0.0600 
    214 H214       -6.2368  -27.9412  -51.0121 H         1 UNK         0.0600 
    215 H215       -7.3306  -24.3165  -49.4557 H         1 UNK         0.3000 
    216 H216       -6.2342  -21.8415  -49.9556 H         1 UNK         0.0600 
    217 H217       -8.5128  -20.9747  -49.3870 H         1 UNK         0.0600 
    218 H218       -8.0061  -22.2534  -48.2980 H         1 UNK         0.0600 
    219 H219       -9.1784  -22.5937  -49.5738 H         1 UNK         0.0600 
    220 H220       -8.3449  -23.6886  -52.1098 H         1 UNK         0.3000 
    221 H221       -8.9674  -21.5987  -53.9571 H         1 UNK         0.0600 
    222 H222       -8.9450  -24.6455  -54.3080 H         1 UNK         0.0600 
    223 H223      -10.3126  -23.6734  -53.7624 H         1 UNK         0.0600 
    224 H224       -9.7092  -23.4989  -55.4023 H         1 UNK         0.0600 
    225 H225       -6.1623  -23.7380  -53.6471 H         1 UNK         0.3000 
    226 H226       -5.0869  -23.0065  -56.3089 H         1 UNK         0.0600 
    227 H227       -4.8649  -25.3636  -55.4997 H         1 UNK         0.0600 
    228 H228       -3.2956  -24.6022  -55.7217 H         1 UNK         0.0600 
    229 H229       -3.9515  -24.7970  -54.1028 H         1 UNK         0.0600 
    230 H230       -4.4589  -22.5525  -52.8187 H         1 UNK         0.3000 
    231 H231       -2.0866  -21.0028  -53.0548 H         1 UNK         0.0600 
    232 H232       -2.6538  -22.1735  -51.0051 H         1 UNK         0.0600 
    233 H233       -4.1714  -21.2911  -50.8350 H         1 UNK         0.0600 
    234 H234       -2.6472  -20.4620  -50.6142 H         1 UNK         0.0600 
    235 H235       -5.5068  -20.0680  -53.0171 H         1 UNK         0.3000 
    236 H236       -6.6351  -18.2397  -53.4257 H         1 UNK         0.0600 
    237 H237       -5.7705  -16.3939  -54.7744 H         1 UNK         0.0600 
    238 H238       -4.1070  -16.8745  -54.4825 H         1 UNK         0.0600 
    239 H239       -5.1713  -17.9045  -55.4401 H         1 UNK         0.0600 
    240 H240       -5.5373  -18.7778  -50.8540 H         1 UNK         0.3000 
    241 H241       -6.3399  -16.4116  -49.5636 H         1 UNK         0.0600 
    242 H242       -6.2488  -16.7990  -46.9896 H         1 UNK         0.3800 
    243 H243       -6.6666  -18.4345  -46.5701 H         1 UNK         0.3800 
    244 H244       -4.0308  -15.6401  -49.8149 H         1 UNK         0.0800 
    245 H245       -4.3713  -15.9411  -48.1461 H         1 UNK         0.0800 
    246 H246       -1.5485  -15.6741  -49.9142 H         1 UNK         0.0800 
    247 H247       -2.0650  -16.7901  -51.1579 H         1 UNK         0.0800 
@<TRIPOS>BOND
     1    1    2 1    
     2    1  127 1    
     3    1  128 1    
     4    1  129 1    
     5    2    3 2    
     6    2    4 am   BACKBONE|DICT|INTERRES
     7    4    5 1    
     8    4  130 1    
     9    5    6 1    
    10    5   65 1    
    11    5  131 1    
    12    6    7 1    
    13    6  132 1    
    14    6  133 1    
    15    7    8 1    
    16    8    9 1    
    17    8  134 1    
    18    8  135 1    
    19    9   10 ar   
    20    9   14 ar   
    21   10   11 ar   
    22   10  136 1    
    23   11   12 ar   
    24   11  126 1    
    25   12   13 ar   
    26   12  137 1    
    27   13   14 ar   
    28   13   15 1    
    29   14  138 1    
    30   15   16 1    
    31   15  139 1    
    32   15  140 1    
    33   16   17 1    
    34   17   18 1    
    35   17  141 1    
    36   17  142 1    
    37   18   19 1    
    38   18   67 1    
    39   18  143 1    
    40   19   20 am   BACKBONE|DICT|INTERRES
    41   19  144 1    
    42   20   21 2    
    43   20   22 1    
    44   22   23 1    
    45   22   24 1    
    46   22  145 1    
    47   23  146 1    
    48   23  147 1    
    49   23  148 1    
    50   24   25 am   BACKBONE|DICT|INTERRES
    51   24  149 1    
    52   25   26 2    
    53   25   27 1    
    54   27   28 1    
    55   27   29 1    
    56   27  150 1    
    57   28  151 1    
    58   28  152 1    
    59   28  153 1    
    60   29   30 am   BACKBONE|DICT|INTERRES
    61   29  154 1    
    62   30   31 2    
    63   30   32 1    
    64   32   33 1    
    65   32   34 1    
    66   32  155 1    
    67   33  156 1    
    68   33  157 1    
    69   33  158 1    
    70   34   35 am   BACKBONE|DICT|INTERRES
    71   34  159 1    
    72   35   36 2    
    73   35   37 1    
    74   37   38 1    
    75   37   39 1    
    76   37  160 1    
    77   38  161 1    
    78   38  162 1    
    79   38  163 1    
    80   39   40 am   BACKBONE|DICT|INTERRES
    81   39  164 1    
    82   40   41 2    
    83   40   42 1    
    84   42   43 1    
    85   42   44 1    
    86   42  165 1    
    87   43  166 1    
    88   43  167 1    
    89   43  168 1    
    90   44   45 am   BACKBONE|DICT|INTERRES
    91   44  169 1    
    92   45   46 2    
    93   45   47 1    
    94   47   48 1    
    95   47   49 1    
    96   47  170 1    
    97   48  171 1    
    98   48  172 1    
    99   48  173 1    
   100   49   50 am   BACKBONE|DICT|INTERRES
   101   49  174 1    
   102   50   51 2    
   103   50   52 1    
   104   52   53 1    
   105   52   54 1    
   106   52  175 1    
   107   53  176 1    
   108   53  177 1    
   109   53  178 1    
   110   54   55 am   BACKBONE|DICT|INTERRES
   111   54  179 1    
   112   55   56 2    
   113   55   57 1    
   114   57   58 1    
   115   57   59 1    
   116   57  180 1    
   117   58  181 1    
   118   58  182 1    
   119   58  183 1    
   120   59   60 am   BACKBONE|DICT|INTERRES
   121   59  184 1    
   122   60   61 2    
   123   60   62 1    
   124   62   63 1    
   125   62   64 1    
   126   62  185 1    
   127   63  186 1    
   128   63  187 1    
   129   63  188 1    
   130   64   65 am   BACKBONE|DICT|INTERRES
   131   64  189 1    
   132   65   66 2    
   133   67   68 2    
   134   67   69 am   BACKBONE|DICT|INTERRES
   135   69   70 1    
   136   69  190 1    
   137   70   71 1    
   138   70   72 1    
   139   70  191 1    
   140   71  192 1    
   141   71  193 1    
   142   71  194 1    
   143   72   73 2    
   144   72   74 am   BACKBONE|DICT|INTERRES
   145   74   75 1    
   146   74  195 1    
   147   75   76 1    
   148   75   77 1    
   149   75  196 1    
   150   76  197 1    
   151   76  198 1    
   152   76  199 1    
   153   77   78 2    
   154   77   79 am   BACKBONE|DICT|INTERRES
   155   79   80 1    
   156   79  200 1    
   157   80   81 1    
   158   80   82 1    
   159   80  201 1    
   160   81  202 1    
   161   81  203 1    
   162   81  204 1    
   163   82   83 2    
   164   82   84 am   BACKBONE|DICT|INTERRES
   165   84   85 1    
   166   84  205 1    
   167   85   86 1    
   168   85   87 1    
   169   85  206 1    
   170   86  207 1    
   171   86  208 1    
   172   86  209 1    
   173   87   88 2    
   174   87   89 am   BACKBONE|DICT|INTERRES
   175   89   90 1    
   176   89  210 1    
   177   90   91 1    
   178   90   92 1    
   179   90  211 1    
   180   91  212 1    
   181   91  213 1    
   182   91  214 1    
   183   92   93 2    
   184   92   94 am   BACKBONE|DICT|INTERRES
   185   94   95 1    
   186   94  215 1    
   187   95   96 1    
   188   95   97 1    
   189   95  216 1    
   190   96  217 1    
   191   96  218 1    
   192   96  219 1    
   193   97   98 2    
   194   97   99 am   BACKBONE|DICT|INTERRES
   195   99  100 1    
   196   99  220 1    
   197  100  101 1    
   198  100  102 1    
   199  100  221 1    
   200  101  222 1    
   201  101  223 1    
   202  101  224 1    
   203  102  103 2    
   204  102  104 am   BACKBONE|DICT|INTERRES
   205  104  105 1    
   206  104  225 1    
   207  105  106 1    
   208  105  107 1    
   209  105  226 1    
   210  106  227 1    
   211  106  228 1    
   212  106  229 1    
   213  107  108 2    
   214  107  109 am   BACKBONE|DICT|INTERRES
   215  109  110 1    
   216  109  230 1    
   217  110  111 1    
   218  110  112 1    
   219  110  231 1    
   220  111  232 1    
   221  111  233 1    
   222  111  234 1    
   223  112  113 2    
   224  112  114 am   BACKBONE|DICT|INTERRES
   225  114  115 1    
   226  114  235 1    
   227  115  116 1    
   228  115  117 1    
   229  115  236 1    
   230  116  237 1    
   231  116  238 1    
   232  116  239 1    
   233  117  118 2    
   234  117  119 am   BACKBONE|DICT|INTERRES
   235  119  120 1    
   236  119  240 1    
   237  120  121 1    
   238  120  124 1    
   239  120  241 1    
   240  121  122 am   BACKBONE|DICT|INTERRES
   241  121  123 2    
   242  122  242 1    
   243  122  243 1    
   244  124  125 1    
   245  124  244 1    
   246  124  245 1    
   247  125  126 1    
   248  126  246 1    
   249  126  247 1    
@<TRIPOS>SUBSTRUCTURE
     1 UNK         1 GROUP             0       ****    0 ROOT    
