@<TRIPOS>MOLECULE
3R540
247   249    1
SMALL
USER_CHARGES


@<TRIPOS>ATOM
      1 CA         -0.4303  -10.5779  -49.8894 C.3       0 UNK        -0.1800 
      2 C          -0.1321  -11.2047  -48.5364 C.2       0 UNK         0.5000 
      3 O           0.8932  -10.8921  -47.9305 O.2       0 UNK        -0.5000 
      4 N          -1.0325  -12.0691  -48.0493 N.am      1 UNK        -0.5000 
      5 CA         -0.9110  -12.8635  -46.8150 C.3       1 UNK         0.1400 
      6 C6         -2.1004  -13.8351  -46.6407 C.3       23 UNK        -0.0398 
      7 S7         -2.2038  -15.0555  -47.9883 S.3       23 UNK        -0.2404 
      8 C8         -3.9127  -14.8040  -48.5522 C.3       23 UNK        -0.0205 
      9 C9         -4.3136  -15.9071  -49.5130 C.ar      23 UNK        -0.0193 
     10 C10        -4.2142  -15.7161  -50.8921 C.ar      23 UNK        -0.1150 
     11 C11        -4.5207  -16.7568  -51.7711 C.ar      23 UNK        -0.0193 
     12 C12        -4.9559  -17.9829  -51.2582 C.ar      23 UNK        -0.1150 
     13 C13        -5.0802  -18.1866  -49.8799 C.ar      23 UNK        -0.0193 
     14 C14        -4.7577  -17.1338  -49.0137 C.ar      23 UNK        -0.1150 
     15 C15        -5.5613  -19.5572  -49.3940 C.3       23 UNK        -0.0205 
     16 S16        -5.7067  -19.7858  -47.5852 S.3       23 UNK        -0.2404 
     17 C17        -3.9584  -19.8887  -47.0641 C.3       23 UNK        -0.0398 
     18 CA         -3.4575  -21.3426  -46.8946 C.3       11 UNK         0.1400 
     19 N          -1.9966  -21.4038  -46.8187 N.am      11 UNK        -0.5000 
     20 C          -1.2779  -22.5312  -46.8998 C.2       10 UNK         0.5000 
     21 O          -1.7715  -23.6387  -47.1076 O.2       10 UNK        -0.5000 
     22 CA          0.2385  -22.4115  -46.6635 C.3       10 UNK         0.1400 
     23 CB          0.9593  -21.9396  -47.9353 C.3       10 UNK        -0.1800 
     24 N           0.5688  -21.5212  -45.5486 N.am      10 UNK        -0.5000 
     25 C           0.2070  -21.7342  -44.2750 C.2       9 UNK         0.5000 
     26 O          -0.4097  -22.7298  -43.9012 O.2       9 UNK        -0.5000 
     27 CA          0.5465  -20.6365  -43.2514 C.3       9 UNK         0.1400 
     28 CB          2.0130  -20.7370  -42.8071 C.3       9 UNK        -0.1800 
     29 N           0.2727  -19.2898  -43.7512 N.am      9 UNK        -0.5000 
     30 C          -0.9391  -18.8310  -44.0987 C.2       8 UNK         0.5000 
     31 O          -1.9773  -19.4859  -44.0017 O.2       8 UNK        -0.5000 
     32 CA         -0.9825  -17.4236  -44.7226 C.3       8 UNK         0.1400 
     33 CB         -0.8186  -16.3403  -43.6442 C.3       8 UNK        -0.1800 
     34 N           0.0430  -17.2593  -45.7533 N.am      8 UNK        -0.5000 
     35 C           0.1122  -17.9936  -46.8736 C.2       7 UNK         0.5000 
     36 O          -0.7233  -18.8370  -47.1991 O.2       7 UNK        -0.5000 
     37 CA          1.3603  -17.7996  -47.7460 C.3       7 UNK         0.1400 
     38 CB          1.1744  -16.6181  -48.7042 C.3       7 UNK        -0.1800 
     39 N           2.5632  -17.6112  -46.9348 N.am      7 UNK        -0.5000 
     40 C           3.1663  -18.5968  -46.2534 C.2       6 UNK         0.5000 
     41 O           2.7895  -19.7672  -46.2793 O.2       6 UNK        -0.5000 
     42 CA          4.3666  -18.2125  -45.3672 C.3       6 UNK         0.1400 
     43 CB          5.6646  -18.2219  -46.1878 C.3       6 UNK        -0.1800 
     44 N           4.2086  -16.9060  -44.7291 N.am      6 UNK        -0.5000 
     45 C           3.2776  -16.6132  -43.8097 C.2       5 UNK         0.5000 
     46 O           2.4995  -17.4439  -43.3423 O.2       5 UNK        -0.5000 
     47 CA          3.1577  -15.1331  -43.3893 C.3       5 UNK         0.1400 
     48 CB          4.0199  -14.8514  -42.1506 C.3       5 UNK        -0.1800 
     49 N           3.5181  -14.1906  -44.4547 N.am      5 UNK        -0.5000 
     50 C           2.9189  -14.1280  -45.6503 C.2       4 UNK         0.5000 
     51 O           1.9694  -14.8465  -45.9662 O.2       4 UNK        -0.5000 
     52 CA          3.5009  -13.1210  -46.6574 C.3       4 UNK         0.1400 
     53 CB          3.1239  -13.4624  -48.1105 C.3       4 UNK        -0.1800 
     54 N           3.0556  -11.7649  -46.3578 N.am      4 UNK        -0.5000 
     55 C           3.5786  -10.9668  -45.4178 C.2       3 UNK         0.5000 
     56 O           4.5086  -11.3004  -44.6817 O.2       3 UNK        -0.5000 
     57 CA          2.9547   -9.5696  -45.2717 C.3       3 UNK         0.1400 
     58 CB          3.4420   -8.6401  -46.3945 C.3       3 UNK        -0.1800 
     59 N           1.4962   -9.6521  -45.3163 N.am      3 UNK        -0.5000 
     60 C           0.6858   -9.5114  -44.2586 C.2       2 UNK         0.5000 
     61 O           1.0738   -9.2005  -43.1317 O.2       2 UNK        -0.5000 
     62 CA         -0.8170   -9.7753  -44.4908 C.3       2 UNK         0.1400 
     63 CB         -1.5500   -8.4646  -44.8144 C.3       2 UNK        -0.1800 
     64 N          -1.0730  -10.7411  -45.5612 N.am      2 UNK        -0.5000 
     65 C          -0.7188  -12.0338  -45.5250 C.2       1 UNK         0.5000 
     66 O          -0.2397  -12.5739  -44.5281 O.2       1 UNK        -0.5000 
     67 C          -4.1200  -22.0735  -45.7063 C.2       11 UNK         0.5000 
     68 O          -5.0310  -22.8723  -45.9256 O.2       11 UNK        -0.5000 
     69 N          -3.6136  -21.8483  -44.4842 N.am      12 UNK        -0.5000 
     70 CA         -4.0615  -22.5229  -43.2611 C.3       12 UNK         0.1400 
     71 CB         -3.3870  -21.8770  -42.0417 C.3       12 UNK        -0.1800 
     72 C          -3.8185  -24.0461  -43.2797 C.2       12 UNK         0.5000 
     73 O          -4.6652  -24.8035  -42.8048 O.2       12 UNK        -0.5000 
     74 N          -2.6885  -24.4676  -43.8628 N.am      13 UNK        -0.5000 
     75 CA         -2.3261  -25.8670  -44.1018 C.3       13 UNK         0.1400 
     76 CB         -0.8105  -25.9473  -44.3466 C.3       13 UNK        -0.1800 
     77 C          -3.0916  -26.5150  -45.2755 C.2       13 UNK         0.5000 
     78 O          -2.9893  -27.7290  -45.4566 O.2       13 UNK        -0.5000 
     79 N          -3.8252  -25.7039  -46.0516 N.am      14 UNK        -0.5000 
     80 CA         -4.5838  -26.0521  -47.2539 C.3       14 UNK         0.1400 
     81 CB         -5.7530  -27.0021  -46.9221 C.3       14 UNK        -0.1800 
     82 C          -3.6923  -26.5628  -48.4054 C.2       14 UNK         0.5000 
     83 O          -4.0961  -27.4627  -49.1458 O.2       14 UNK        -0.5000 
     84 N          -2.5050  -25.9601  -48.5588 N.am      15 UNK        -0.5000 
     85 CA         -1.5121  -26.2893  -49.5818 C.3       15 UNK         0.1400 
     86 CB         -0.2689  -25.4131  -49.3813 C.3       15 UNK        -0.1800 
     87 C          -2.0608  -26.1138  -51.0088 C.2       15 UNK         0.5000 
     88 O          -2.6275  -25.0615  -51.3207 O.2       15 UNK        -0.5000 
     89 N          -1.8857  -27.1572  -51.8324 N.am      16 UNK        -0.5000 
     90 CA         -2.3582  -27.2761  -53.2165 C.3       16 UNK         0.1400 
     91 CB         -1.5651  -26.3263  -54.1385 C.3       16 UNK        -0.1800 
     92 C          -3.8898  -27.1166  -53.3334 C.2       16 UNK         0.5000 
     93 O          -4.3722  -26.3823  -54.1950 O.2       16 UNK        -0.5000 
     94 N          -4.6187  -27.7862  -52.4259 N.am      17 UNK        -0.5000 
     95 CA         -6.0754  -27.7232  -52.2405 C.3       17 UNK         0.1400 
     96 CB         -6.8206  -28.2975  -53.4640 C.3       17 UNK        -0.1800 
     97 C          -6.5499  -26.3092  -51.8418 C.2       17 UNK         0.5000 
     98 O          -7.5586  -25.8172  -52.3503 O.2       17 UNK        -0.5000 
     99 N          -5.7811  -25.6879  -50.9370 N.am      18 UNK        -0.5000 
    100 CA        -5.9299  -24.3299  -50.4051 C.3       18 UNK         0.1400 
    101 CB        -7.2200  -24.1979  -49.5698 C.3       18 UNK        -0.1800 
    102 C         -5.7781  -23.2228  -51.4668 C.2       18 UNK         0.5000 
    103 O         -6.3610  -22.1482  -51.3175 O.2       18 UNK        -0.5000 
    104 N         -4.9728  -23.4856  -52.5044 N.am      19 UNK        -0.5000 
    105 CA        -4.5633  -22.4814  -53.4839 C.3       19 UNK         0.1400 
    106 CB        -4.1127  -23.1647  -54.7821 C.3       19 UNK        -0.1800 
    107 C         -3.4539  -21.5738  -52.9252 C.2       19 UNK         0.5000 
    108 O         -3.4734  -20.3780  -53.2071 O.2       19 UNK        -0.5000 
    109 N         -2.5410  -22.1526  -52.1252 N.am      20 UNK        -0.5000 
    110 CA        -1.4181  -21.5002  -51.4394 C.3       20 UNK         0.1400 
    111 CB        -1.9548  -20.5785  -50.3232 C.3       20 UNK        -0.1800 
    112 C         -0.4278  -20.7734  -52.3821 C.2       20 UNK         0.5000 
    113 O         -0.4326  -21.0006  -53.5944 O.2       20 UNK        -0.5000 
    114 N          0.4417  -19.9403  -51.7940 N.am      21 UNK        -0.5000 
    115 CA         1.4054  -19.0972  -52.5088 C.3       21 UNK         0.1400 
    116 CB         2.6884  -18.9992  -51.6673 C.3       21 UNK        -0.1800 
    117 C          0.8527  -17.6873  -52.8037 C.2       21 UNK         0.5000 
    118 O          1.3731  -17.0088  -53.6887 O.2       21 UNK        -0.5000 
    119 N         -0.1644  -17.2665  -52.0407 N.am      22 UNK        -0.5000 
    120 CA        -0.8765  -15.9738  -52.0948 C.3       22 UNK         0.1400 
    121 C         -0.0566  -14.7027  -51.7127 C.2       22 UNK         0.5000 
    122 N          1.2487  -14.7775  -51.4913 N.am      22 UNK        -0.7600 
    123 O         -0.6279  -13.6234  -51.5876 O.2       22 UNK        -0.5000 
    124 C124       -1.6569  -15.7442  -53.4199 C.3       23 UNK        -0.0398 
    125 S125       -2.7608  -17.1216  -53.8870 S.3       23 UNK        -0.2404 
    126 C126       -4.3821  -16.5608  -53.2735 C.3       23 UNK        -0.0205 
    127 H127        0.3610  -10.8267  -50.5966 H         1 UNK         0.0600 
    128 H128       -0.4819   -9.4931  -49.7987 H         1 UNK         0.0600 
    129 H129       -1.3751  -10.9337  -50.3010 H         1 UNK         0.0600 
    130 H130       -1.8408  -12.2871  -48.6139 H         1 UNK         0.3000 
    131 H131       -0.0071  -13.4631  -46.9247 H         1 UNK         0.0600 
    132 H132       -3.0356  -13.2777  -46.5649 H         1 UNK         0.0800 
    133 H133       -2.0118  -14.3990  -45.7121 H         1 UNK         0.0800 
    134 H134       -4.0035  -13.8260  -49.0271 H         1 UNK         0.0800 
    135 H135       -4.5888  -14.8023  -47.6958 H         1 UNK         0.0800 
    136 H136       -3.8684  -14.7679  -51.2795 H         1 UNK         0.1150 
    137 H137       -5.1918  -18.7891  -51.9390 H         1 UNK         0.1150 
    138 H138       -4.8298  -17.2560  -47.9437 H         1 UNK         0.1150 
    139 H139       -6.5449  -19.7418  -49.8281 H         1 UNK         0.0800 
    140 H140       -4.9065  -20.3305  -49.7957 H         1 UNK         0.0800 
    141 H141       -3.8329  -19.3255  -46.1379 H         1 UNK         0.0800 
    142 H142       -3.3471  -19.3729  -47.8058 H         1 UNK         0.0800 
    143 H143       -3.7431  -21.8931  -47.7934 H         1 UNK         0.0600 
    144 H144       -1.5096  -20.5202  -46.6939 H         1 UNK         0.3000 
    145 H145        0.6112  -23.4071  -46.4148 H         1 UNK         0.0600 
    146 H146        2.0408  -21.9513  -47.8001 H         1 UNK         0.0600 
    147 H147        0.7351  -22.5848  -48.7833 H         1 UNK         0.0600 
    148 H148        0.6692  -20.9271  -48.2094 H         1 UNK         0.0600 
    149 H149        1.1351  -20.7081  -45.7695 H         1 UNK         0.3000 
    150 H150       -0.0835  -20.7958  -42.3741 H         1 UNK         0.0600 
    151 H151        2.2314  -21.7261  -42.4029 H         1 UNK         0.0600 
    152 H152        2.2390  -20.0094  -42.0273 H         1 UNK         0.0600 
    153 H153        2.6989  -20.5619  -43.6358 H         1 UNK         0.0600 
    154 H154        1.0689  -18.6622  -43.8198 H         1 UNK         0.3000 
    155 H155       -1.9548  -17.2898  -45.2016 H         1 UNK         0.0600 
    156 H156        0.0649  -16.5059  -43.0289 H         1 UNK         0.0600 
    157 H157       -1.6801  -16.3293  -42.9758 H         1 UNK         0.0600 
    158 H158       -0.7287  -15.3464  -44.0800 H         1 UNK         0.0600 
    159 H159        0.7587  -16.5602  -45.5915 H         1 UNK         0.3000 
    160 H160        1.4927  -18.6990  -48.3496 H         1 UNK         0.0600 
    161 H161        0.9854  -15.6846  -48.1762 H         1 UNK         0.0600 
    162 H162        0.3185  -16.7880  -49.3559 H         1 UNK         0.0600 
    163 H163        2.0512  -16.4778  -49.3352 H         1 UNK         0.0600 
    164 H164        2.8645  -16.6568  -46.7935 H         1 UNK         0.3000 
    165 H165        4.4537  -18.9648  -44.5805 H         1 UNK         0.0600 
    166 H166        6.5318  -18.0264  -45.5568 H         1 UNK         0.0600 
    167 H167        5.8201  -19.1930  -46.6599 H         1 UNK         0.0600 
    168 H168        5.6478  -17.4712  -46.9790 H         1 UNK         0.0600 
    169 H169        4.8130  -16.1647  -45.0505 H         1 UNK         0.3000 
    170 H170        2.1130  -14.9505  -43.1293 H         1 UNK         0.0600 
    171 H171        3.7568  -15.5217  -41.3312 H         1 UNK         0.0600 
    172 H172        5.0816  -14.9880  -42.3596 H         1 UNK         0.0600 
    173 H173        3.8758  -13.8314  -41.7939 H         1 UNK         0.0600 
    174 H174        4.2520  -13.5235  -44.2515 H         1 UNK         0.3000 
    175 H175        4.5897  -13.1635  -46.5840 H         1 UNK         0.0600 
    176 H176        2.0462  -13.4305  -48.2714 H         1 UNK         0.0600 
    177 H177        3.5836  -12.7643  -48.8100 H         1 UNK         0.0600 
    178 H178        3.4661  -14.4626  -48.3780 H         1 UNK         0.0600 
    179 H179        2.2828  -11.4199  -46.9232 H         1 UNK         0.3000 
    180 H180        3.2894   -9.1525  -44.3197 H         1 UNK         0.0600 
    181 H181        3.1340   -8.9967  -47.3784 H         1 UNK         0.0600 
    182 H182        4.5303   -8.5665  -46.3961 H         1 UNK         0.0600 
    183 H183        3.0479   -7.6318  -46.2669 H         1 UNK         0.0600 
    184 H184        1.0928   -9.9434  -46.2007 H         1 UNK         0.3000 
    185 H185       -1.2291  -10.1800  -43.5641 H         1 UNK         0.0600 
    186 H186       -1.4011   -7.7285  -44.0232 H         1 UNK         0.0600 
    187 H187       -1.1924   -8.0227  -45.7453 H         1 UNK         0.0600 
    188 H188       -2.6241   -8.6255  -44.9086 H         1 UNK         0.0600 
    189 H189       -1.4609  -10.3776  -46.4195 H         1 UNK         0.3000 
    190 H190       -2.8807  -21.1520  -44.3754 H         1 UNK         0.3000 
    191 H191       -5.1383  -22.3639  -43.1744 H         1 UNK         0.0600 
    192 H192       -2.3032  -21.9867  -42.0755 H         1 UNK         0.0600 
    193 H193       -3.7347  -22.3350  -41.1149 H         1 UNK         0.0600 
    194 H194       -3.6133  -20.8122  -41.9838 H         1 UNK         0.0600 
    195 H195       -2.0038  -23.7726  -44.1487 H         1 UNK         0.3000 
    196 H196       -2.5579  -26.4426  -43.2035 H         1 UNK         0.0600 
    197 H197       -0.4875  -26.9799  -44.4843 H         1 UNK         0.0600 
    198 H198       -0.2523  -25.5433  -43.5020 H         1 UNK         0.0600 
    199 H199       -0.5195  -25.3905  -45.2380 H         1 UNK         0.0600 
    200 H200       -3.8302  -24.7188  -45.8178 H         1 UNK         0.3000 
    201 H201       -5.0191  -25.1157  -47.6004 H         1 UNK         0.0600 
    202 H202       -6.3976  -27.1465  -47.7899 H         1 UNK         0.0600 
    203 H203       -6.3732  -26.5975  -46.1223 H         1 UNK         0.0600 
    204 H204       -5.4020  -27.9862  -46.6110 H         1 UNK         0.0600 
    205 H205       -2.2687  -25.1852  -47.9414 H         1 UNK         0.3000 
    206 H206       -1.2253  -27.3321  -49.4324 H         1 UNK         0.0600 
    207 H207        0.1387  -25.5236  -48.3762 H         1 UNK         0.0600 
    208 H208        0.5187  -25.6810  -50.0865 H         1 UNK         0.0600 
    209 H209       -0.5049  -24.3609  -49.5361 H         1 UNK         0.0600 
    210 H210       -1.4141  -27.9742  -51.4697 H         1 UNK         0.3000 
    211 H211       -2.1402  -28.2964  -53.5355 H         1 UNK         0.0600 
    212 H212       -1.6817  -25.2835  -53.8466 H         1 UNK         0.0600 
    213 H213       -1.8893  -26.4183  -55.1757 H         1 UNK         0.0600 
    214 H214       -0.5004  -26.5577  -54.1122 H         1 UNK         0.0600 
    215 H215       -4.1205  -28.3292  -51.7333 H         1 UNK         0.3000 
    216 H216       -6.3016  -28.3672  -51.3892 H         1 UNK         0.0600 
    217 H217       -7.8901  -28.3761  -53.2659 H         1 UNK         0.0600 
    218 H218       -6.4627  -29.2971  -53.7100 H         1 UNK         0.0600 
    219 H219       -6.6993  -27.6703  -54.3475 H         1 UNK         0.0600 
    220 H220       -4.9778  -26.2031  -50.5963 H         1 UNK         0.3000 
    221 H221       -5.0869  -24.1805  -49.7306 H         1 UNK         0.0600 
    222 H222       -8.1121  -24.2430  -50.1950 H         1 UNK         0.0600 
    223 H223       -7.2936  -24.9887  -48.8239 H         1 UNK         0.0600 
    224 H224       -7.2433  -23.2475  -49.0349 H         1 UNK         0.0600 
    225 H225       -4.5140  -24.3864  -52.5487 H         1 UNK         0.3000 
    226 H226       -5.4231  -21.8518  -53.7237 H         1 UNK         0.0600 
    227 H227       -4.9084  -23.7817  -55.1998 H         1 UNK         0.0600 
    228 H228       -3.8421  -22.4252  -55.5367 H         1 UNK         0.0600 
    229 H229       -3.2437  -23.8009  -54.6221 H         1 UNK         0.0600 
    230 H230       -2.6190  -23.1523  -51.9650 H         1 UNK         0.3000 
    231 H231       -0.8539  -22.3047  -50.9662 H         1 UNK         0.0600 
    232 H232       -2.6777  -21.1099  -49.7085 H         1 UNK         0.0600 
    233 H233       -2.4487  -19.6946  -50.7287 H         1 UNK         0.0600 
    234 H234       -1.1651  -20.2382  -49.6544 H         1 UNK         0.0600 
    235 H235        0.4228  -19.8505  -50.7897 H         1 UNK         0.3000 
    236 H236        1.6644  -19.5559  -53.4654 H         1 UNK         0.0600 
    237 H237        3.4426  -18.3944  -52.1725 H         1 UNK         0.0600 
    238 H238        2.5027  -18.5457  -50.6937 H         1 UNK         0.0600 
    239 H239        3.1243  -19.9843  -51.4993 H         1 UNK         0.0600 
    240 H240       -0.5310  -17.9156  -51.3630 H         1 UNK         0.3000 
    241 H241       -1.6092  -16.0558  -51.2946 H         1 UNK         0.0600 
    242 H242        1.7538  -13.9436  -51.2409 H         1 UNK         0.3800 
    243 H243        1.7429  -15.6378  -51.6591 H         1 UNK         0.3800 
    244 H244       -0.9549  -15.5921  -54.2409 H         1 UNK         0.0800 
    245 H245       -2.2488  -14.8293  -53.3642 H         1 UNK         0.0800 
    246 H246       -5.1598  -17.1304  -53.7843 H         1 UNK         0.0800 
    247 H247       -4.5465  -15.5170  -53.5448 H         1 UNK         0.0800 
@<TRIPOS>BOND
     1    1    2 1    
     2    1  127 1    
     3    1  128 1    
     4    1  129 1    
     5    2    3 2    
     6    2    4 am   BACKBONE|DICT|INTERRES
     7    4    5 1    
     8    4  130 1    
     9    5    6 1    
    10    5   65 1    
    11    5  131 1    
    12    6    7 1    
    13    6  132 1    
    14    6  133 1    
    15    7    8 1    
    16    8    9 1    
    17    8  134 1    
    18    8  135 1    
    19    9   10 ar   
    20    9   14 ar   
    21   10   11 ar   
    22   10  136 1    
    23   11   12 ar   
    24   11  126 1    
    25   12   13 ar   
    26   12  137 1    
    27   13   14 ar   
    28   13   15 1    
    29   14  138 1    
    30   15   16 1    
    31   15  139 1    
    32   15  140 1    
    33   16   17 1    
    34   17   18 1    
    35   17  141 1    
    36   17  142 1    
    37   18   19 1    
    38   18   67 1    
    39   18  143 1    
    40   19   20 am   BACKBONE|DICT|INTERRES
    41   19  144 1    
    42   20   21 2    
    43   20   22 1    
    44   22   23 1    
    45   22   24 1    
    46   22  145 1    
    47   23  146 1    
    48   23  147 1    
    49   23  148 1    
    50   24   25 am   BACKBONE|DICT|INTERRES
    51   24  149 1    
    52   25   26 2    
    53   25   27 1    
    54   27   28 1    
    55   27   29 1    
    56   27  150 1    
    57   28  151 1    
    58   28  152 1    
    59   28  153 1    
    60   29   30 am   BACKBONE|DICT|INTERRES
    61   29  154 1    
    62   30   31 2    
    63   30   32 1    
    64   32   33 1    
    65   32   34 1    
    66   32  155 1    
    67   33  156 1    
    68   33  157 1    
    69   33  158 1    
    70   34   35 am   BACKBONE|DICT|INTERRES
    71   34  159 1    
    72   35   36 2    
    73   35   37 1    
    74   37   38 1    
    75   37   39 1    
    76   37  160 1    
    77   38  161 1    
    78   38  162 1    
    79   38  163 1    
    80   39   40 am   BACKBONE|DICT|INTERRES
    81   39  164 1    
    82   40   41 2    
    83   40   42 1    
    84   42   43 1    
    85   42   44 1    
    86   42  165 1    
    87   43  166 1    
    88   43  167 1    
    89   43  168 1    
    90   44   45 am   BACKBONE|DICT|INTERRES
    91   44  169 1    
    92   45   46 2    
    93   45   47 1    
    94   47   48 1    
    95   47   49 1    
    96   47  170 1    
    97   48  171 1    
    98   48  172 1    
    99   48  173 1    
   100   49   50 am   BACKBONE|DICT|INTERRES
   101   49  174 1    
   102   50   51 2    
   103   50   52 1    
   104   52   53 1    
   105   52   54 1    
   106   52  175 1    
   107   53  176 1    
   108   53  177 1    
   109   53  178 1    
   110   54   55 am   BACKBONE|DICT|INTERRES
   111   54  179 1    
   112   55   56 2    
   113   55   57 1    
   114   57   58 1    
   115   57   59 1    
   116   57  180 1    
   117   58  181 1    
   118   58  182 1    
   119   58  183 1    
   120   59   60 am   BACKBONE|DICT|INTERRES
   121   59  184 1    
   122   60   61 2    
   123   60   62 1    
   124   62   63 1    
   125   62   64 1    
   126   62  185 1    
   127   63  186 1    
   128   63  187 1    
   129   63  188 1    
   130   64   65 am   BACKBONE|DICT|INTERRES
   131   64  189 1    
   132   65   66 2    
   133   67   68 2    
   134   67   69 am   BACKBONE|DICT|INTERRES
   135   69   70 1    
   136   69  190 1    
   137   70   71 1    
   138   70   72 1    
   139   70  191 1    
   140   71  192 1    
   141   71  193 1    
   142   71  194 1    
   143   72   73 2    
   144   72   74 am   BACKBONE|DICT|INTERRES
   145   74   75 1    
   146   74  195 1    
   147   75   76 1    
   148   75   77 1    
   149   75  196 1    
   150   76  197 1    
   151   76  198 1    
   152   76  199 1    
   153   77   78 2    
   154   77   79 am   BACKBONE|DICT|INTERRES
   155   79   80 1    
   156   79  200 1    
   157   80   81 1    
   158   80   82 1    
   159   80  201 1    
   160   81  202 1    
   161   81  203 1    
   162   81  204 1    
   163   82   83 2    
   164   82   84 am   BACKBONE|DICT|INTERRES
   165   84   85 1    
   166   84  205 1    
   167   85   86 1    
   168   85   87 1    
   169   85  206 1    
   170   86  207 1    
   171   86  208 1    
   172   86  209 1    
   173   87   88 2    
   174   87   89 am   BACKBONE|DICT|INTERRES
   175   89   90 1    
   176   89  210 1    
   177   90   91 1    
   178   90   92 1    
   179   90  211 1    
   180   91  212 1    
   181   91  213 1    
   182   91  214 1    
   183   92   93 2    
   184   92   94 am   BACKBONE|DICT|INTERRES
   185   94   95 1    
   186   94  215 1    
   187   95   96 1    
   188   95   97 1    
   189   95  216 1    
   190   96  217 1    
   191   96  218 1    
   192   96  219 1    
   193   97   98 2    
   194   97   99 am   BACKBONE|DICT|INTERRES
   195   99  100 1    
   196   99  220 1    
   197  100  101 1    
   198  100  102 1    
   199  100  221 1    
   200  101  222 1    
   201  101  223 1    
   202  101  224 1    
   203  102  103 2    
   204  102  104 am   BACKBONE|DICT|INTERRES
   205  104  105 1    
   206  104  225 1    
   207  105  106 1    
   208  105  107 1    
   209  105  226 1    
   210  106  227 1    
   211  106  228 1    
   212  106  229 1    
   213  107  108 2    
   214  107  109 am   BACKBONE|DICT|INTERRES
   215  109  110 1    
   216  109  230 1    
   217  110  111 1    
   218  110  112 1    
   219  110  231 1    
   220  111  232 1    
   221  111  233 1    
   222  111  234 1    
   223  112  113 2    
   224  112  114 am   BACKBONE|DICT|INTERRES
   225  114  115 1    
   226  114  235 1    
   227  115  116 1    
   228  115  117 1    
   229  115  236 1    
   230  116  237 1    
   231  116  238 1    
   232  116  239 1    
   233  117  118 2    
   234  117  119 am   BACKBONE|DICT|INTERRES
   235  119  120 1    
   236  119  240 1    
   237  120  121 1    
   238  120  124 1    
   239  120  241 1    
   240  121  122 am   BACKBONE|DICT|INTERRES
   241  121  123 2    
   242  122  242 1    
   243  122  243 1    
   244  124  125 1    
   245  124  244 1    
   246  124  245 1    
   247  125  126 1    
   248  126  246 1    
   249  126  247 1    
@<TRIPOS>SUBSTRUCTURE
     1 UNK         1 GROUP             0       ****    0 ROOT    
