@<TRIPOS>MOLECULE
3R540
247   249    1
SMALL
USER_CHARGES


@<TRIPOS>ATOM
      1 CA          4.4692  -12.3059  -48.0665 C.3       0 UNK        -0.1800 
      2 C           2.9520  -12.4002  -47.9897 C.2       0 UNK         0.5000 
      3 O           2.2598  -11.4909  -48.4469 O.2       0 UNK        -0.5000 
      4 N           2.4414  -13.4926  -47.4040 N.am      1 UNK        -0.5000 
      5 CA          1.0127  -13.8092  -47.2335 C.3       1 UNK         0.1400 
      6 C6          0.2465  -14.0030  -48.5727 C.3       23 UNK        -0.0398 
      7 S7          0.9625  -15.3193  -49.6177 S.3       23 UNK        -0.2404 
      8 C8          0.0187  -16.7501  -49.0133 C.3       23 UNK        -0.0205 
      9 C9          0.3563  -18.0269  -49.7677 C.ar      23 UNK        -0.0193 
     10 C10        -0.5387  -18.5526  -50.7048 C.ar      23 UNK        -0.1150 
     11 C11        -0.2542  -19.7512  -51.3672 C.ar      23 UNK        -0.0193 
     12 C12         0.9484  -20.4121  -51.1003 C.ar      23 UNK        -0.1150 
     13 C13         1.8503  -19.8986  -50.1641 C.ar      23 UNK        -0.0193 
     14 C14         1.5472  -18.7068  -49.4988 C.ar      23 UNK        -0.1150 
     15 C15         3.1548  -20.6299  -49.8805 C.3       23 UNK        -0.0205 
     16 S16         2.9024  -22.1803  -48.9564 S.3       23 UNK        -0.2404 
     17 C17         2.3472  -21.5629  -47.3312 C.3       23 UNK        -0.0398 
     18 CA          1.0960  -22.2969  -46.7937 C.3       11 UNK         0.1400 
     19 N           0.9070  -22.0651  -45.3594 N.am      11 UNK        -0.5000 
     20 C           0.0015  -22.6893  -44.5922 C.2       10 UNK         0.5000 
     21 O          -0.7400  -23.5839  -44.9986 O.2       10 UNK        -0.5000 
     22 CA         -0.1386  -22.1892  -43.1429 C.3       10 UNK         0.1400 
     23 CB          0.9590  -22.7821  -42.2473 C.3       10 UNK        -0.1800 
     24 N          -0.1129  -20.7278  -43.0597 N.am      10 UNK        -0.5000 
     25 C          -1.0492  -19.9259  -43.5878 C.2       9 UNK         0.5000 
     26 O          -2.0785  -20.3443  -44.1184 O.2       9 UNK        -0.5000 
     27 CA         -0.7636  -18.4106  -43.5688 C.3       9 UNK         0.1400 
     28 CB         -1.1386  -17.7922  -42.2143 C.3       9 UNK        -0.1800 
     29 N           0.6328  -18.0998  -43.8806 N.am      9 UNK        -0.5000 
     30 C           1.2199  -18.3463  -45.0595 C.2       8 UNK         0.5000 
     31 O           0.6254  -18.7992  -46.0337 O.2       8 UNK        -0.5000 
     32 CA          2.7338  -18.1007  -45.1575 C.3       8 UNK         0.1400 
     33 CB          3.0349  -16.6426  -45.5292 C.3       8 UNK        -0.1800 
     34 N           3.4192  -18.4602  -43.9170 N.am      8 UNK        -0.5000 
     35 C           3.6250  -19.7232  -43.5178 C.2       7 UNK         0.5000 
     36 O           3.2848  -20.7072  -44.1747 O.2       7 UNK        -0.5000 
     37 CA          4.2836  -19.9199  -42.1396 C.3       7 UNK         0.1400 
     38 CB          5.8118  -19.8159  -42.2506 C.3       7 UNK        -0.1800 
     39 N           3.8028  -18.9621  -41.1428 N.am      7 UNK        -0.5000 
     40 C           2.5511  -18.9361  -40.6642 C.2       6 UNK         0.5000 
     41 O           1.6841  -19.7495  -40.9811 O.2       6 UNK        -0.5000 
     42 CA          2.1922  -17.7783  -39.7120 C.3       6 UNK         0.1400 
     43 CB          2.5171  -18.1553  -38.2593 C.3       6 UNK        -0.1800 
     44 N           2.8415  -16.5038  -40.0375 N.am      6 UNK        -0.5000 
     45 C           2.7619  -15.8717  -41.2158 C.2       5 UNK         0.5000 
     46 O           2.1664  -16.3251  -42.1934 O.2       5 UNK        -0.5000 
     47 CA          3.4445  -14.4978  -41.2956 C.3       5 UNK         0.1400 
     48 CB          3.7976  -14.0942  -42.7389 C.3       5 UNK        -0.1800 
     49 N           2.5588  -13.4920  -40.7182 N.am      5 UNK        -0.5000 
     50 C           2.5208  -13.1609  -39.4199 C.2       4 UNK         0.5000 
     51 O           3.2610  -13.6631  -38.5727 O.2       4 UNK        -0.5000 
     52 CA          1.5002  -12.0895  -38.9852 C.3       4 UNK         0.1400 
     53 CB          2.2021  -10.7384  -38.7776 C.3       4 UNK        -0.1800 
     54 N           0.4099  -11.9075  -39.9438 N.am      4 UNK        -0.5000 
     55 C          -0.6396  -12.7302  -40.0774 C.2       3 UNK         0.5000 
     56 O          -0.8363  -13.7111  -39.3597 O.2       3 UNK        -0.5000 
     57 CA         -1.6234  -12.4113  -41.2227 C.3       3 UNK         0.1400 
     58 CB         -2.7900  -11.5547  -40.7076 C.3       3 UNK        -0.1800 
     59 N          -0.9955  -11.7335  -42.3641 N.am      3 UNK        -0.5000 
     60 C          -0.0546  -12.2856  -43.1407 C.2       2 UNK         0.5000 
     61 O           0.3918  -13.4196  -42.9606 O.2       2 UNK        -0.5000 
     62 CA          0.5341  -11.4022  -44.2545 C.3       2 UNK         0.1400 
     63 CB          1.6846  -10.5477  -43.6989 C.3       2 UNK        -0.1800 
     64 N           1.0479  -12.2189  -45.3525 N.am      2 UNK        -0.5000 
     65 C           0.2881  -12.8466  -46.2604 C.2       1 UNK         0.5000 
     66 O          -0.9345  -12.7055  -46.3274 O.2       1 UNK        -0.5000 
     67 C          -0.1801  -21.9696  -47.5999 C.2       11 UNK         0.5000 
     68 O          -0.5940  -22.7854  -48.4207 O.2       11 UNK        -0.5000 
     69 N          -0.8215  -20.8307  -47.3009 N.am      12 UNK        -0.5000 
     70 CA         -2.0851  -20.3920  -47.8963 C.3       12 UNK         0.1400 
     71 CB         -2.4638  -19.0089  -47.3449 C.3       12 UNK        -0.1800 
     72 C          -3.2432  -21.3780  -47.6749 C.2       12 UNK         0.5000 
     73 O          -4.0443  -21.5833  -48.5872 O.2       12 UNK        -0.5000 
     74 N          -3.3019  -21.9802  -46.4805 N.am      13 UNK        -0.5000 
     75 CA         -4.2617  -23.0267  -46.1404 C.3       13 UNK         0.1400 
     76 CB         -4.2880  -23.2251  -44.6170 C.3       13 UNK        -0.1800 
     77 C          -3.9575  -24.3482  -46.8697 C.2       13 UNK         0.5000 
     78 O          -4.8707  -24.9532  -47.4316 O.2       13 UNK        -0.5000 
     79 N          -2.6833  -24.7637  -46.8581 N.am      14 UNK        -0.5000 
     80 CA         -2.2058  -26.0138  -47.4515 C.3       14 UNK         0.1400 
     81 CB         -0.7647  -26.2777  -46.9881 C.3       14 UNK        -0.1800 
     82 C          -2.2938  -26.0394  -48.9885 C.2       14 UNK         0.5000 
     83 O          -2.7581  -27.0297  -49.5543 O.2       14 UNK        -0.5000 
     84 N          -1.8486  -24.9544  -49.6334 N.am      15 UNK        -0.5000 
     85 CA         -1.8152  -24.7990  -51.0894 C.3       15 UNK         0.1400 
     86 CB         -0.6098  -23.9239  -51.4626 C.3       15 UNK        -0.1800 
     87 C          -3.1227  -24.2252  -51.6712 C.2       15 UNK         0.5000 
     88 O          -3.2336  -24.1260  -52.8927 O.2       15 UNK        -0.5000 
     89 N          -4.0803  -23.8790  -50.7975 N.am      16 UNK        -0.5000 
     90 CA         -5.4271  -23.3826  -51.0853 C.3       16 UNK         0.1400 
     91 CB         -6.2718  -24.4684  -51.7837 C.3       16 UNK        -0.1800 
     92 C          -5.4158  -22.0497  -51.8571 C.2       16 UNK         0.5000 
     93 O          -5.7339  -22.0130  -53.0454 O.2       16 UNK        -0.5000 
     94 N          -5.0715  -20.9656  -51.1500 N.am      17 UNK        -0.5000 
     95 CA         -5.0288  -19.5834  -51.6486 C.3       17 UNK         0.1400 
     96 CB         -4.5507  -18.6620  -50.5189 C.3       17 UNK        -0.1800 
     97 C          -6.3484  -19.0588  -52.2506 C.2       17 UNK         0.5000 
     98 O          -6.3150  -18.1598  -53.0912 O.2       17 UNK        -0.5000 
     99 N          -7.4800  -19.6313  -51.8221 N.am      18 UNK        -0.5000 
    100 CA        -8.8133  -19.3432  -52.3497 C.3       18 UNK         0.1400 
    101 CB        -9.8519  -19.7623  -51.2968 C.3       18 UNK        -0.1800 
    102 C         -9.1078  -20.0341  -53.6991 C.2       18 UNK         0.5000 
    103 O        -10.0936  -19.6747  -54.3450 O.2       18 UNK        -0.5000 
    104 N         -8.2874  -21.0175  -54.0920 N.am      19 UNK        -0.5000 
    105 CA        -8.4504  -21.8200  -55.3011 C.3       19 UNK         0.1400 
    106 CB        -8.3777  -23.3060  -54.9068 C.3       19 UNK        -0.1800 
    107 C         -7.3605  -21.4896  -56.3342 C.2       19 UNK         0.5000 
    108 O         -6.3574  -20.8461  -56.0166 O.2       19 UNK        -0.5000 
    109 N         -7.5607  -21.9929  -57.5591 N.am      20 UNK        -0.5000 
    110 CA        -6.6350  -21.8747  -58.6915 C.3       20 UNK         0.1400 
    111 CB        -7.3838  -22.2626  -59.9770 C.3       20 UNK        -0.1800 
    112 C         -5.3418  -22.7070  -58.5415 C.2       20 UNK         0.5000 
    113 O         -4.4356  -22.5652  -59.3632 O.2       20 UNK        -0.5000 
    114 N         -5.2741  -23.5588  -57.5077 N.am      21 UNK        -0.5000 
    115 CA        -4.1000  -24.3467  -57.1282 C.3       21 UNK         0.1400 
    116 CB        -4.5031  -25.3300  -56.0183 C.3       21 UNK        -0.1800 
    117 C         -2.9063  -23.4812  -56.6750 C.2       21 UNK         0.5000 
    118 O         -1.7589  -23.8872  -56.8651 O.2       21 UNK        -0.5000 
    119 N         -3.1959  -22.3067  -56.1021 N.am      22 UNK        -0.5000 
    120 CA        -2.2078  -21.2911  -55.7288 C.3       22 UNK         0.1400 
    121 C         -1.6949  -20.5252  -56.9796 C.2       22 UNK         0.5000 
    122 N         -0.3877  -20.4729  -57.1973 N.am      22 UNK        -0.7600 
    123 O         -2.4736  -19.9528  -57.7386 O.2       22 UNK        -0.5000 
    124 C124       -2.8035  -20.3410  -54.6647 C.3       23 UNK        -0.0398 
    125 S125       -1.5462  -19.3367  -53.7993 S.3       23 UNK        -0.2404 
    126 C126       -1.2673  -20.3621  -52.3250 C.3       23 UNK        -0.0205 
    127 H127        4.7880  -12.2391  -49.1067 H         1 UNK         0.0600 
    128 H128        4.9537  -13.1735  -47.6178 H         1 UNK         0.0600 
    129 H129        4.8166  -11.4145  -47.5442 H         1 UNK         0.0600 
    130 H130        3.0792  -14.1960  -47.0610 H         1 UNK         0.3000 
    131 H131        0.9867  -14.7692  -46.7177 H         1 UNK         0.0600 
    132 H132        0.2382  -13.0761  -49.1471 H         1 UNK         0.0800 
    133 H133       -0.8019  -14.2449  -48.3910 H         1 UNK         0.0800 
    134 H134       -1.0484  -16.5375  -49.0949 H         1 UNK         0.0800 
    135 H135        0.2278  -16.8921  -47.9524 H         1 UNK         0.0800 
    136 H136       -1.4665  -18.0380  -50.9095 H         1 UNK         0.1150 
    137 H137        1.1785  -21.3404  -51.6038 H         1 UNK         0.1150 
    138 H138        2.2345  -18.3049  -48.7679 H         1 UNK         0.1150 
    139 H139        3.6436  -20.8625  -50.8276 H         1 UNK         0.0800 
    140 H140        3.8476  -19.9910  -49.3305 H         1 UNK         0.0800 
    141 H141        2.1768  -20.4879  -47.3700 H         1 UNK         0.0800 
    142 H142        3.1818  -21.7071  -46.6444 H         1 UNK         0.0800 
    143 H143        1.2743  -23.3687  -46.9034 H         1 UNK         0.0600 
    144 H144        1.5137  -21.3754  -44.9295 H         1 UNK         0.3000 
    145 H145       -1.1049  -22.5306  -42.7657 H         1 UNK         0.0600 
    146 H146        0.8181  -22.4889  -41.2068 H         1 UNK         0.0600 
    147 H147        1.9527  -22.4552  -42.5538 H         1 UNK         0.0600 
    148 H148        0.9454  -23.8721  -42.2832 H         1 UNK         0.0600 
    149 H149        0.6711  -20.3109  -42.5669 H         1 UNK         0.3000 
    150 H150       -1.3852  -17.9452  -44.3365 H         1 UNK         0.0600 
    151 H151       -2.1981  -17.9381  -42.0008 H         1 UNK         0.0600 
    152 H152       -0.9469  -16.7186  -42.2030 H         1 UNK         0.0600 
    153 H153       -0.5756  -18.2414  -41.3969 H         1 UNK         0.0600 
    154 H154        1.1832  -17.6543  -43.1513 H         1 UNK         0.3000 
    155 H155        3.1268  -18.7325  -45.9566 H         1 UNK         0.0600 
    156 H156        2.6690  -16.4276  -46.5332 H         1 UNK         0.0600 
    157 H157        4.1068  -16.4444  -45.5256 H         1 UNK         0.0600 
    158 H158        2.5581  -15.9413  -44.8442 H         1 UNK         0.0600 
    159 H159        3.6387  -17.7034  -43.2850 H         1 UNK         0.3000 
    160 H160        4.0345  -20.9252  -41.7931 H         1 UNK         0.0600 
    161 H161        6.1275  -18.8219  -42.5701 H         1 UNK         0.0600 
    162 H162        6.1995  -20.5326  -42.9760 H         1 UNK         0.0600 
    163 H163        6.2918  -20.0304  -41.2956 H         1 UNK         0.0600 
    164 H164        4.4534  -18.2566  -40.8304 H         1 UNK         0.3000 
    165 H165        1.1152  -17.6181  -39.7863 H         1 UNK         0.0600 
    166 H166        2.1715  -17.3883  -37.5659 H         1 UNK         0.0600 
    167 H167        2.0277  -19.0891  -37.9789 H         1 UNK         0.0600 
    168 H168        3.5891  -18.2874  -38.1077 H         1 UNK         0.0600 
    169 H169        3.3176  -16.0349  -39.2784 H         1 UNK         0.3000 
    170 H170        4.3781  -14.5450  -40.7309 H         1 UNK         0.0600 
    171 H171        2.9128  -14.0085  -43.3689 H         1 UNK         0.0600 
    172 H172        4.3160  -13.1356  -42.7623 H         1 UNK         0.0600 
    173 H173        4.4566  -14.8314  -43.1988 H         1 UNK         0.0600 
    174 H174        1.8474  -13.1268  -41.3382 H         1 UNK         0.3000 
    175 H175        1.0783  -12.4054  -38.0287 H         1 UNK         0.0600 
    176 H176        2.6415  -10.3662  -39.7040 H         1 UNK         0.0600 
    177 H177        1.5062   -9.9847  -38.4085 H         1 UNK         0.0600 
    178 H178        3.0053  -10.8233  -38.0443 H         1 UNK         0.0600 
    179 H179        0.4821  -11.1188  -40.5691 H         1 UNK         0.3000 
    180 H180       -2.0283  -13.3613  -41.5785 H         1 UNK         0.0600 
    181 H181       -3.5356  -11.3936  -41.4864 H         1 UNK         0.0600 
    182 H182       -2.4501  -10.5786  -40.3593 H         1 UNK         0.0600 
    183 H183       -3.2947  -12.0434  -39.8730 H         1 UNK         0.0600 
    184 H184       -1.3093  -10.7934  -42.5593 H         1 UNK         0.3000 
    185 H185       -0.2469  -10.7418  -44.6373 H         1 UNK         0.0600 
    186 H186        1.3370   -9.8911  -42.9004 H         1 UNK         0.0600 
    187 H187        2.4862  -11.1649  -43.2906 H         1 UNK         0.0600 
    188 H188        2.1133   -9.9128  -44.4746 H         1 UNK         0.0600 
    189 H189        2.0386  -12.4082  -45.3496 H         1 UNK         0.3000 
    190 H190       -0.3790  -20.1787  -46.6567 H         1 UNK         0.3000 
    191 H191       -1.9243  -20.3098  -48.9716 H         1 UNK         0.0600 
    192 H192       -1.6638  -18.2891  -47.4946 H         1 UNK         0.0600 
    193 H193       -2.6766  -19.0433  -46.2776 H         1 UNK         0.0600 
    194 H194       -3.3540  -18.6165  -47.8354 H         1 UNK         0.0600 
    195 H195       -2.6283  -21.7193  -45.7701 H         1 UNK         0.3000 
    196 H196       -5.2541  -22.6934  -46.4520 H         1 UNK         0.0600 
    197 H197       -4.5578  -22.3011  -44.1052 H         1 UNK         0.0600 
    198 H198       -3.3207  -23.5476  -44.2317 H         1 UNK         0.0600 
    199 H199       -5.0222  -23.9808  -44.3351 H         1 UNK         0.0600 
    200 H200       -1.9957  -24.2137  -46.3504 H         1 UNK         0.3000 
    201 H201       -2.8337  -26.8225  -47.0718 H         1 UNK         0.0600 
    202 H202       -0.7081  -26.3543  -45.9021 H         1 UNK         0.0600 
    203 H203       -0.0894  -25.4808  -47.3016 H         1 UNK         0.0600 
    204 H204       -0.3851  -27.2132  -47.4010 H         1 UNK         0.0600 
    205 H205       -1.4608  -24.1796  -49.0941 H         1 UNK         0.3000 
    206 H206       -1.6666  -25.7775  -51.5505 H         1 UNK         0.0600 
    207 H207       -0.6933  -22.9321  -51.0213 H         1 UNK         0.0600 
    208 H208       -0.5252  -23.8044  -52.5433 H         1 UNK         0.0600 
    209 H209        0.3225  -24.3652  -51.1098 H         1 UNK         0.0600 
    210 H210       -3.8570  -23.9698  -49.8162 H         1 UNK         0.3000 
    211 H211       -5.8927  -23.1851  -50.1184 H         1 UNK         0.0600 
    212 H212       -5.8703  -24.7344  -52.7618 H         1 UNK         0.0600 
    213 H213       -7.2963  -24.1262  -51.9344 H         1 UNK         0.0600 
    214 H214       -6.3173  -25.3769  -51.1832 H         1 UNK         0.0600 
    215 H215       -4.7865  -21.1069  -50.1818 H         1 UNK         0.3000 
    216 H216       -4.2904  -19.5375  -52.4456 H         1 UNK         0.0600 
    217 H217       -4.4987  -17.6240  -50.8504 H         1 UNK         0.0600 
    218 H218       -3.5534  -18.9440  -50.1873 H         1 UNK         0.0600 
    219 H219       -5.2183  -18.7024  -49.6575 H         1 UNK         0.0600 
    220 H220       -7.4143  -20.3565  -51.1236 H         1 UNK         0.3000 
    221 H221       -8.9044  -18.2664  -52.5070 H         1 UNK         0.0600 
    222 H222       -9.8113  -20.8336  -51.0958 H         1 UNK         0.0600 
    223 H223       -9.6936  -19.2367  -50.3548 H         1 UNK         0.0600 
    224 H224      -10.8642  -19.5292  -51.6300 H         1 UNK         0.0600 
    225 H225       -7.4332  -21.1980  -53.5722 H         1 UNK         0.3000 
    226 H226       -9.4226  -21.6307  -55.7606 H         1 UNK         0.0600 
    227 H227       -8.5849  -23.9540  -55.7589 H         1 UNK         0.0600 
    228 H228       -7.3926  -23.5743  -54.5239 H         1 UNK         0.0600 
    229 H229       -9.1107  -23.5451  -54.1361 H         1 UNK         0.0600 
    230 H230       -8.4055  -22.5179  -57.7352 H         1 UNK         0.3000 
    231 H231       -6.3332  -20.8286  -58.7746 H         1 UNK         0.0600 
    232 H232       -8.2601  -21.6322  -60.1294 H         1 UNK         0.0600 
    233 H233       -7.7160  -23.3012  -59.9506 H         1 UNK         0.0600 
    234 H234       -6.7461  -22.1445  -60.8541 H         1 UNK         0.0600 
    235 H235       -6.0718  -23.6166  -56.8935 H         1 UNK         0.3000 
    236 H236       -3.7815  -24.9210  -58.0005 H         1 UNK         0.0600 
    237 H237       -4.8632  -24.8065  -55.1314 H         1 UNK         0.0600 
    238 H238       -5.2897  -26.0060  -56.3535 H         1 UNK         0.0600 
    239 H239       -3.6546  -25.9434  -55.7123 H         1 UNK         0.0600 
    240 H240       -4.1667  -22.0382  -56.0124 H         1 UNK         0.3000 
    241 H241       -1.3665  -21.8137  -55.2687 H         1 UNK         0.0600 
    242 H242       -0.0439  -19.9684  -57.9995 H         1 UNK         0.3800 
    243 H243        0.2678  -20.9294  -56.5821 H         1 UNK         0.3800 
    244 H244       -3.3380  -20.9360  -53.9239 H         1 UNK         0.0800 
    245 H245       -3.5501  -19.6773  -55.1052 H         1 UNK         0.0800 
    246 H246       -0.9337  -21.3423  -52.6635 H         1 UNK         0.0800 
    247 H247       -2.2042  -20.5216  -51.7917 H         1 UNK         0.0800 
@<TRIPOS>BOND
     1    1    2 1    
     2    1  127 1    
     3    1  128 1    
     4    1  129 1    
     5    2    3 2    
     6    2    4 am   BACKBONE|DICT|INTERRES
     7    4    5 1    
     8    4  130 1    
     9    5    6 1    
    10    5   65 1    
    11    5  131 1    
    12    6    7 1    
    13    6  132 1    
    14    6  133 1    
    15    7    8 1    
    16    8    9 1    
    17    8  134 1    
    18    8  135 1    
    19    9   10 ar   
    20    9   14 ar   
    21   10   11 ar   
    22   10  136 1    
    23   11   12 ar   
    24   11  126 1    
    25   12   13 ar   
    26   12  137 1    
    27   13   14 ar   
    28   13   15 1    
    29   14  138 1    
    30   15   16 1    
    31   15  139 1    
    32   15  140 1    
    33   16   17 1    
    34   17   18 1    
    35   17  141 1    
    36   17  142 1    
    37   18   19 1    
    38   18   67 1    
    39   18  143 1    
    40   19   20 am   BACKBONE|DICT|INTERRES
    41   19  144 1    
    42   20   21 2    
    43   20   22 1    
    44   22   23 1    
    45   22   24 1    
    46   22  145 1    
    47   23  146 1    
    48   23  147 1    
    49   23  148 1    
    50   24   25 am   BACKBONE|DICT|INTERRES
    51   24  149 1    
    52   25   26 2    
    53   25   27 1    
    54   27   28 1    
    55   27   29 1    
    56   27  150 1    
    57   28  151 1    
    58   28  152 1    
    59   28  153 1    
    60   29   30 am   BACKBONE|DICT|INTERRES
    61   29  154 1    
    62   30   31 2    
    63   30   32 1    
    64   32   33 1    
    65   32   34 1    
    66   32  155 1    
    67   33  156 1    
    68   33  157 1    
    69   33  158 1    
    70   34   35 am   BACKBONE|DICT|INTERRES
    71   34  159 1    
    72   35   36 2    
    73   35   37 1    
    74   37   38 1    
    75   37   39 1    
    76   37  160 1    
    77   38  161 1    
    78   38  162 1    
    79   38  163 1    
    80   39   40 am   BACKBONE|DICT|INTERRES
    81   39  164 1    
    82   40   41 2    
    83   40   42 1    
    84   42   43 1    
    85   42   44 1    
    86   42  165 1    
    87   43  166 1    
    88   43  167 1    
    89   43  168 1    
    90   44   45 am   BACKBONE|DICT|INTERRES
    91   44  169 1    
    92   45   46 2    
    93   45   47 1    
    94   47   48 1    
    95   47   49 1    
    96   47  170 1    
    97   48  171 1    
    98   48  172 1    
    99   48  173 1    
   100   49   50 am   BACKBONE|DICT|INTERRES
   101   49  174 1    
   102   50   51 2    
   103   50   52 1    
   104   52   53 1    
   105   52   54 1    
   106   52  175 1    
   107   53  176 1    
   108   53  177 1    
   109   53  178 1    
   110   54   55 am   BACKBONE|DICT|INTERRES
   111   54  179 1    
   112   55   56 2    
   113   55   57 1    
   114   57   58 1    
   115   57   59 1    
   116   57  180 1    
   117   58  181 1    
   118   58  182 1    
   119   58  183 1    
   120   59   60 am   BACKBONE|DICT|INTERRES
   121   59  184 1    
   122   60   61 2    
   123   60   62 1    
   124   62   63 1    
   125   62   64 1    
   126   62  185 1    
   127   63  186 1    
   128   63  187 1    
   129   63  188 1    
   130   64   65 am   BACKBONE|DICT|INTERRES
   131   64  189 1    
   132   65   66 2    
   133   67   68 2    
   134   67   69 am   BACKBONE|DICT|INTERRES
   135   69   70 1    
   136   69  190 1    
   137   70   71 1    
   138   70   72 1    
   139   70  191 1    
   140   71  192 1    
   141   71  193 1    
   142   71  194 1    
   143   72   73 2    
   144   72   74 am   BACKBONE|DICT|INTERRES
   145   74   75 1    
   146   74  195 1    
   147   75   76 1    
   148   75   77 1    
   149   75  196 1    
   150   76  197 1    
   151   76  198 1    
   152   76  199 1    
   153   77   78 2    
   154   77   79 am   BACKBONE|DICT|INTERRES
   155   79   80 1    
   156   79  200 1    
   157   80   81 1    
   158   80   82 1    
   159   80  201 1    
   160   81  202 1    
   161   81  203 1    
   162   81  204 1    
   163   82   83 2    
   164   82   84 am   BACKBONE|DICT|INTERRES
   165   84   85 1    
   166   84  205 1    
   167   85   86 1    
   168   85   87 1    
   169   85  206 1    
   170   86  207 1    
   171   86  208 1    
   172   86  209 1    
   173   87   88 2    
   174   87   89 am   BACKBONE|DICT|INTERRES
   175   89   90 1    
   176   89  210 1    
   177   90   91 1    
   178   90   92 1    
   179   90  211 1    
   180   91  212 1    
   181   91  213 1    
   182   91  214 1    
   183   92   93 2    
   184   92   94 am   BACKBONE|DICT|INTERRES
   185   94   95 1    
   186   94  215 1    
   187   95   96 1    
   188   95   97 1    
   189   95  216 1    
   190   96  217 1    
   191   96  218 1    
   192   96  219 1    
   193   97   98 2    
   194   97   99 am   BACKBONE|DICT|INTERRES
   195   99  100 1    
   196   99  220 1    
   197  100  101 1    
   198  100  102 1    
   199  100  221 1    
   200  101  222 1    
   201  101  223 1    
   202  101  224 1    
   203  102  103 2    
   204  102  104 am   BACKBONE|DICT|INTERRES
   205  104  105 1    
   206  104  225 1    
   207  105  106 1    
   208  105  107 1    
   209  105  226 1    
   210  106  227 1    
   211  106  228 1    
   212  106  229 1    
   213  107  108 2    
   214  107  109 am   BACKBONE|DICT|INTERRES
   215  109  110 1    
   216  109  230 1    
   217  110  111 1    
   218  110  112 1    
   219  110  231 1    
   220  111  232 1    
   221  111  233 1    
   222  111  234 1    
   223  112  113 2    
   224  112  114 am   BACKBONE|DICT|INTERRES
   225  114  115 1    
   226  114  235 1    
   227  115  116 1    
   228  115  117 1    
   229  115  236 1    
   230  116  237 1    
   231  116  238 1    
   232  116  239 1    
   233  117  118 2    
   234  117  119 am   BACKBONE|DICT|INTERRES
   235  119  120 1    
   236  119  240 1    
   237  120  121 1    
   238  120  124 1    
   239  120  241 1    
   240  121  122 am   BACKBONE|DICT|INTERRES
   241  121  123 2    
   242  122  242 1    
   243  122  243 1    
   244  124  125 1    
   245  124  244 1    
   246  124  245 1    
   247  125  126 1    
   248  126  246 1    
   249  126  247 1    
@<TRIPOS>SUBSTRUCTURE
     1 UNK         1 GROUP             0       ****    0 ROOT    
