@<TRIPOS>MOLECULE
3R540
247   249    1
SMALL
USER_CHARGES


@<TRIPOS>ATOM
      1 CA          0.8895  -14.5306  -45.6584 C.3       0 UNK        -0.1800 
      2 C           2.1171  -14.5386  -46.5565 C.2       0 UNK         0.5000 
      3 O           2.3727  -13.5462  -47.2375 O.2       0 UNK        -0.5000 
      4 N           2.8716  -15.6481  -46.5712 N.am      1 UNK        -0.5000 
      5 CA          4.0848  -15.8148  -47.3883 C.3       1 UNK         0.1400 
      6 C6          4.5935  -17.2785  -47.4382 C.3       23 UNK        -0.0398 
      7 S7          3.3508  -18.4891  -48.0035 S.3       23 UNK        -0.2404 
      8 C8          3.3589  -18.2277  -49.8141 C.3       23 UNK        -0.0205 
      9 C9          2.0279  -17.7233  -50.3702 C.ar      23 UNK        -0.0193 
     10 C10         1.6175  -18.1129  -51.6508 C.ar      23 UNK        -0.1150 
     11 C11         0.4003  -17.6658  -52.1774 C.ar      23 UNK        -0.0193 
     12 C12        -0.4126  -16.8267  -51.4100 C.ar      23 UNK        -0.1150 
     13 C13        -0.0233  -16.4415  -50.1274 C.ar      23 UNK        -0.0193 
     14 C14         1.2059  -16.8689  -49.6280 C.ar      23 UNK        -0.1150 
     15 C15        -0.9407  -15.5885  -49.2692 C.3       23 UNK        -0.0205 
     16 S16        -2.1750  -16.6090  -48.4008 S.3       23 UNK        -0.2404 
     17 C17        -1.1669  -17.5278  -47.1803 C.3       23 UNK        -0.0398 
     18 CA         -0.8119  -18.9863  -47.5737 C.3       11 UNK         0.1400 
     19 N           0.0389  -19.6139  -46.5566 N.am      11 UNK        -0.5000 
     20 C           0.6285  -20.8126  -46.6764 C.2       10 UNK         0.5000 
     21 O           0.5832  -21.5002  -47.6943 O.2       10 UNK        -0.5000 
     22 CA          1.3242  -21.3745  -45.4242 C.3       10 UNK         0.1400 
     23 CB          2.7512  -20.8279  -45.2779 C.3       10 UNK        -0.1800 
     24 N           0.5575  -21.1027  -44.2082 N.am      10 UNK        -0.5000 
     25 C          -0.6097  -21.6909  -43.9087 C.2       9 UNK         0.5000 
     26 O          -1.1373  -22.5534  -44.6086 O.2       9 UNK        -0.5000 
     27 CA         -1.3287  -21.2062  -42.6366 C.3       9 UNK         0.1400 
     28 CB         -0.8103  -21.9580  -41.4020 C.3       9 UNK        -0.1800 
     29 N          -1.1838  -19.7661  -42.4241 N.am      9 UNK        -0.5000 
     30 C          -1.7012  -18.8247  -43.2260 C.2       8 UNK         0.5000 
     31 O          -2.4017  -19.0713  -44.2075 O.2       8 UNK        -0.5000 
     32 CA         -1.3149  -17.3675  -42.9106 C.3       8 UNK         0.1400 
     33 CB         -2.2808  -16.7650  -41.8816 C.3       8 UNK        -0.1800 
     34 N           0.0673  -17.2358  -42.4356 N.am      8 UNK        -0.5000 
     35 C           1.1446  -17.5519  -43.1706 C.2       7 UNK         0.5000 
     36 O           1.0655  -17.9472  -44.3360 O.2       7 UNK        -0.5000 
     37 CA          2.5269  -17.4283  -42.5057 C.3       7 UNK         0.1400 
     38 CB          3.6114  -17.0054  -43.5063 C.3       7 UNK        -0.1800 
     39 N           2.5089  -16.4753  -41.3976 N.am      7 UNK        -0.5000 
     40 C           2.8657  -16.7518  -40.1360 C.2       6 UNK         0.5000 
     41 O           3.2503  -17.8604  -39.7619 O.2       6 UNK        -0.5000 
     42 CA          2.7695  -15.6076  -39.1045 C.3       6 UNK         0.1400 
     43 CB          4.1504  -14.9733  -38.8899 C.3       6 UNK        -0.1800 
     44 N           1.8208  -14.5542  -39.4697 N.am      6 UNK        -0.5000 
     45 C           0.5003  -14.7255  -39.6229 C.2       5 UNK         0.5000 
     46 O          -0.0748  -15.7959  -39.4234 O.2       5 UNK        -0.5000 
     47 CA         -0.3137  -13.5182  -40.1278 C.3       5 UNK         0.1400 
     48 CB         -1.0121  -12.8166  -38.9535 C.3       5 UNK        -0.1800 
     49 N           0.4512  -12.5246  -40.8865 N.am      5 UNK        -0.5000 
     50 C           1.1811  -12.7465  -41.9893 C.2       4 UNK         0.5000 
     51 O           1.3659  -13.8647  -42.4740 O.2       4 UNK        -0.5000 
     52 CA          1.8237  -11.5140  -42.6622 C.3       4 UNK         0.1400 
     53 CB          1.3231  -10.1594  -42.1111 C.3       4 UNK        -0.1800 
     54 N           3.2876  -11.5541  -42.6296 N.am      4 UNK        -0.5000 
     55 C           4.0821  -11.6934  -41.5566 C.2       3 UNK         0.5000 
     56 O           3.6634  -11.8393  -40.4059 O.2       3 UNK        -0.5000 
     57 CA          5.6043  -11.6325  -41.8311 C.3       3 UNK         0.1400 
     58 CB          6.4551  -12.2676  -40.7110 C.3       3 UNK        -0.1800 
     59 N           5.9982  -12.1651  -43.1447 N.am      3 UNK        -0.5000 
     60 C           5.7809  -13.4084  -43.5953 C.2       2 UNK         0.5000 
     61 O           5.2019  -14.2840  -42.9507 O.2       2 UNK        -0.5000 
     62 CA          6.2959  -13.7324  -45.0029 C.3       2 UNK         0.1400 
     63 CB          7.6884  -14.3858  -44.9390 C.3       2 UNK        -0.1800 
     64 N           5.3373  -14.6314  -45.6344 N.am      2 UNK        -0.5000 
     65 C           5.2302  -14.8768  -46.9457 C.2       1 UNK         0.5000 
     66 O           5.9793  -14.3920  -47.7949 O.2       1 UNK        -0.5000 
     67 C          -2.0538  -19.8558  -47.8763 C.2       11 UNK         0.5000 
     68 O          -2.3311  -20.1389  -49.0426 O.2       11 UNK        -0.5000 
     69 N          -2.7400  -20.3207  -46.8212 N.am      12 UNK        -0.5000 
     70 CA         -3.8853  -21.2275  -46.9158 C.3       12 UNK         0.1400 
     71 CB         -4.5126  -21.4158  -45.5272 C.3       12 UNK        -0.1800 
     72 C          -3.5328  -22.5883  -47.5453 C.2       12 UNK         0.5000 
     73 O          -4.3155  -23.0981  -48.3482 O.2       12 UNK        -0.5000 
     74 N          -2.3596  -23.1356  -47.1966 N.am      13 UNK        -0.5000 
     75 CA         -1.8182  -24.3734  -47.7576 C.3       13 UNK         0.1400 
     76 CB         -0.6251  -24.8514  -46.9170 C.3       13 UNK        -0.1800 
     77 C          -1.4226  -24.2346  -49.2384 C.2       13 UNK         0.5000 
     78 O          -1.7231  -25.1345  -50.0221 O.2       13 UNK        -0.5000 
     79 N          -0.7942  -23.1073  -49.6049 N.am      14 UNK        -0.5000 
     80 CA         -0.4304  -22.7602  -50.9826 C.3       14 UNK         0.1400 
     81 CB          0.4339  -21.4888  -50.9906 C.3       14 UNK        -0.1800 
     82 C          -1.6618  -22.5858  -51.8889 C.2       14 UNK         0.5000 
     83 O          -1.6556  -23.0557  -53.0269 O.2       14 UNK        -0.5000 
     84 N          -2.7105  -21.9549  -51.3456 N.am      15 UNK        -0.5000 
     85 CA         -4.0138  -21.8046  -51.9886 C.3       15 UNK         0.1400 
     86 CB         -4.8022  -20.7186  -51.2419 C.3       15 UNK        -0.1800 
     87 C          -4.8206  -23.1159  -52.0476 C.2       15 UNK         0.5000 
     88 O          -5.7366  -23.2268  -52.8640 O.2       15 UNK        -0.5000 
     89 N          -4.4985  -24.0581  -51.1496 N.am      16 UNK        -0.5000 
     90 CA         -5.2124  -25.3016  -50.8463 C.3       16 UNK         0.1400 
     91 CB         -5.1317  -26.2869  -52.0285 C.3       16 UNK        -0.1800 
     92 C          -6.6577  -25.0145  -50.3953 C.2       16 UNK         0.5000 
     93 O          -7.6015  -25.6037  -50.9207 O.2       16 UNK        -0.5000 
     94 N          -6.8053  -24.0420  -49.4820 N.am      17 UNK        -0.5000 
     95 CA         -8.0745  -23.4511  -49.0326 C.3       17 UNK         0.1400 
     96 CB         -8.8856  -24.4642  -48.1987 C.3       17 UNK        -0.1800 
     97 C          -8.8861  -22.8354  -50.1981 C.2       17 UNK         0.5000 
     98 O         -10.1137  -22.9285  -50.2240 O.2       17 UNK        -0.5000 
     99 N          -8.1540  -22.2419  -51.1522 N.am      18 UNK        -0.5000 
    100 CA        -8.5869  -21.6392  -52.4180 C.3       18 UNK         0.1400 
    101 CB        -9.6542  -20.5478  -52.1978 C.3       18 UNK        -0.1800 
    102 C         -8.9969  -22.6491  -53.5103 C.2       18 UNK         0.5000 
    103 O         -9.3658  -22.2156  -54.6028 O.2       18 UNK        -0.5000 
    104 N         -8.8920  -23.9617  -53.2504 N.am      19 UNK        -0.5000 
    105 CA        -9.2342  -25.0145  -54.2124 C.3       19 UNK         0.1400 
    106 CB        -9.3719  -26.3595  -53.4842 C.3       19 UNK        -0.1800 
    107 C         -8.2286  -25.1368  -55.3738 C.2       19 UNK         0.5000 
    108 O         -8.6146  -25.5872  -56.4532 O.2       19 UNK        -0.5000 
    109 N         -6.9727  -24.7290  -55.1453 N.am      20 UNK        -0.5000 
    110 CA        -5.8992  -24.7262  -56.1431 C.3       20 UNK         0.1400 
    111 CB        -4.6396  -25.3503  -55.5175 C.3       20 UNK        -0.1800 
    112 C         -5.6021  -23.3078  -56.6654 C.2       20 UNK         0.5000 
    113 O         -4.6222  -23.1333  -57.3943 O.2       20 UNK        -0.5000 
    114 N         -6.4215  -22.3212  -56.2645 N.am      21 UNK        -0.5000 
    115 CA        -6.2571  -20.8738  -56.4363 C.3       21 UNK         0.1400 
    116 CB        -6.2920  -20.4609  -57.9228 C.3       21 UNK        -0.1800 
    117 C         -5.0037  -20.3755  -55.6946 C.2       21 UNK         0.5000 
    118 O         -5.1266  -19.8550  -54.5871 O.2       21 UNK        -0.5000 
    119 N         -3.8321  -20.6057  -56.2941 N.am      22 UNK        -0.5000 
    120 CA        -2.5074  -20.5436  -55.6659 C.3       22 UNK         0.1400 
    121 C         -1.4364  -21.3518  -56.4550 C.2       22 UNK         0.5000 
    122 N         -1.8184  -22.3344  -57.2660 N.am      22 UNK        -0.7600 
    123 O         -0.2410  -21.0960  -56.3387 O.2       22 UNK        -0.5000 
    124 C124       -2.0754  -19.1026  -55.2619 C.3       23 UNK        -0.0398 
    125 S125       -1.6027  -19.0237  -53.5016 S.3       23 UNK        -0.2404 
    126 C126       -0.0495  -18.0813  -53.5706 C.3       23 UNK        -0.0205 
    127 H127        0.8290  -13.5862  -45.1193 H         1 UNK         0.0600 
    128 H128        0.9197  -15.3321  -44.9245 H         1 UNK         0.0600 
    129 H129       -0.0196  -14.6377  -46.2479 H         1 UNK         0.0600 
    130 H130        2.5914  -16.4516  -46.0255 H         1 UNK         0.3000 
    131 H131        3.8233  -15.5260  -48.4086 H         1 UNK         0.0600 
    132 H132        5.4674  -17.3589  -48.0876 H         1 UNK         0.0800 
    133 H133        4.9307  -17.5951  -46.4501 H         1 UNK         0.0800 
    134 H134        3.6169  -19.1782  -50.2834 H         1 UNK         0.0800 
    135 H135        4.1422  -17.5236  -50.0959 H         1 UNK         0.0800 
    136 H136        2.2456  -18.7681  -52.2379 H         1 UNK         0.1150 
    137 H137       -1.3635  -16.4951  -51.8033 H         1 UNK         0.1150 
    138 H138        1.5008  -16.5583  -48.6399 H         1 UNK         0.1150 
    139 H139       -0.3654  -15.0021  -48.5529 H         1 UNK         0.0800 
    140 H140       -1.4626  -14.8672  -49.8997 H         1 UNK         0.0800 
    141 H141       -1.7157  -17.5189  -46.2388 H         1 UNK         0.0800 
    142 H142       -0.2501  -16.9716  -46.9869 H         1 UNK         0.0800 
    143 H143       -0.2248  -18.9518  -48.4928 H         1 UNK         0.0600 
    144 H144        0.1791  -19.0972  -45.6946 H         1 UNK         0.3000 
    145 H145        1.3960  -22.4577  -45.5418 H         1 UNK         0.0600 
    146 H146        3.2484  -21.2455  -44.4024 H         1 UNK         0.0600 
    147 H147        3.3544  -21.0867  -46.1490 H         1 UNK         0.0600 
    148 H148        2.7634  -19.7431  -45.1867 H         1 UNK         0.0600 
    149 H149        0.9001  -20.3673  -43.6096 H         1 UNK         0.3000 
    150 H150       -2.3921  -21.4270  -42.7500 H         1 UNK         0.0600 
    151 H151       -0.9234  -23.0358  -41.5264 H         1 UNK         0.0600 
    152 H152       -1.3648  -21.6756  -40.5069 H         1 UNK         0.0600 
    153 H153        0.2464  -21.7574  -41.2204 H         1 UNK         0.0600 
    154 H154       -0.6231  -19.4735  -41.6375 H         1 UNK         0.3000 
    155 H155       -1.4064  -16.7957  -43.8363 H         1 UNK         0.0600 
    156 H156       -2.1684  -17.2283  -40.9006 H         1 UNK         0.0600 
    157 H157       -3.3180  -16.8980  -42.1924 H         1 UNK         0.0600 
    158 H158       -2.1153  -15.6951  -41.7707 H         1 UNK         0.0600 
    159 H159        0.1992  -16.9109  -41.4865 H         1 UNK         0.3000 
    160 H160        2.7746  -18.4295  -42.1489 H         1 UNK         0.0600 
    161 H161        4.5923  -16.9779  -43.0315 H         1 UNK         0.0600 
    162 H162        3.4027  -16.0124  -43.9011 H         1 UNK         0.0600 
    163 H163        3.6798  -17.6985  -44.3441 H         1 UNK         0.0600 
    164 H164        2.1975  -15.5356  -41.6283 H         1 UNK         0.3000 
    165 H165        2.4380  -16.0422  -38.1594 H         1 UNK         0.0600 
    166 H166        4.1164  -14.1884  -38.1341 H         1 UNK         0.0600 
    167 H167        4.8775  -15.7157  -38.5587 H         1 UNK         0.0600 
    168 H168        4.5256  -14.5348  -39.8143 H         1 UNK         0.0600 
    169 H169        2.2150  -13.6472  -39.6859 H         1 UNK         0.3000 
    170 H170       -1.0828  -13.9042  -40.7969 H         1 UNK         0.0600 
    171 H171       -1.6189  -13.5200  -38.3816 H         1 UNK         0.0600 
    172 H172       -0.2914  -12.3705  -38.2668 H         1 UNK         0.0600 
    173 H173       -1.6776  -12.0270  -39.3032 H         1 UNK         0.0600 
    174 H174        0.3939  -11.5745  -40.5499 H         1 UNK         0.3000 
    175 H175        1.5376  -11.5649  -43.7135 H         1 UNK         0.0600 
    176 H176        1.6049  -10.0075  -41.0685 H         1 UNK         0.0600 
    177 H177        1.7395   -9.3314  -42.6849 H         1 UNK         0.0600 
    178 H178        0.2375  -10.0791  -42.1823 H         1 UNK         0.0600 
    179 H179        3.7410  -11.4779  -43.5282 H         1 UNK         0.3000 
    180 H180        5.8475  -10.5693  -41.8520 H         1 UNK         0.0600 
    181 H181        6.3062  -13.3446  -40.6470 H         1 UNK         0.0600 
    182 H182        6.2122  -11.8424  -39.7365 H         1 UNK         0.0600 
    183 H183        7.5171  -12.0918  -40.8817 H         1 UNK         0.0600 
    184 H184        6.4805  -11.5129  -43.7480 H         1 UNK         0.3000 
    185 H185        6.3507  -12.8083  -45.5823 H         1 UNK         0.0600 
    186 H186        8.4029  -13.7336  -44.4353 H         1 UNK         0.0600 
    187 H187        7.6622  -15.3295  -44.3927 H         1 UNK         0.0600 
    188 H188        8.0816  -14.5868  -45.9355 H         1 UNK         0.0600 
    189 H189        4.6749  -15.0430  -44.9898 H         1 UNK         0.3000 
    190 H190       -2.4766  -20.0155  -45.8882 H         1 UNK         0.3000 
    191 H191       -4.6276  -20.7516  -47.5598 H         1 UNK         0.0600 
    192 H192       -3.8125  -21.8722  -44.8274 H         1 UNK         0.0600 
    193 H193       -5.3916  -22.0594  -45.5798 H         1 UNK         0.0600 
    194 H194       -4.8316  -20.4621  -45.1062 H         1 UNK         0.0600 
    195 H195       -1.8072  -22.6872  -46.4728 H         1 UNK         0.3000 
    196 H196       -2.5981  -25.1353  -47.6945 H         1 UNK         0.0600 
    197 H197       -0.2228  -25.7872  -47.3069 H         1 UNK         0.0600 
    198 H198       -0.9184  -25.0302  -45.8825 H         1 UNK         0.0600 
    199 H199        0.1845  -24.1220  -46.9147 H         1 UNK         0.0600 
    200 H200       -0.5254  -22.4385  -48.8867 H         1 UNK         0.3000 
    201 H201        0.1667  -23.5802  -51.3865 H         1 UNK         0.0600 
    202 H202        1.3512  -21.6288  -50.4186 H         1 UNK         0.0600 
    203 H203       -0.0965  -20.6360  -50.5654 H         1 UNK         0.0600 
    204 H204        0.7212  -21.2179  -52.0074 H         1 UNK         0.0600 
    205 H205       -2.6004  -21.5258  -50.4306 H         1 UNK         0.3000 
    206 H206       -3.8578  -21.4715  -53.0110 H         1 UNK         0.0600 
    207 H207       -4.2404  -19.7846  -51.2062 H         1 UNK         0.0600 
    208 H208       -5.7442  -20.5018  -51.7435 H         1 UNK         0.0600 
    209 H209       -5.0265  -21.0131  -50.2161 H         1 UNK         0.0600 
    210 H210       -3.7400  -23.8419  -50.5165 H         1 UNK         0.3000 
    211 H211       -4.7000  -25.7538  -49.9961 H         1 UNK         0.0600 
    212 H212       -5.5196  -27.2656  -51.7446 H         1 UNK         0.0600 
    213 H213       -4.1021  -26.4256  -52.3583 H         1 UNK         0.0600 
    214 H214       -5.7162  -25.9431  -52.8806 H         1 UNK         0.0600 
    215 H215       -5.9580  -23.6287  -49.0960 H         1 UNK         0.3000 
    216 H216       -7.8093  -22.6215  -48.3758 H         1 UNK         0.0600 
    217 H217       -9.7602  -23.9905  -47.7514 H         1 UNK         0.0600 
    218 H218       -8.2869  -24.8723  -47.3845 H         1 UNK         0.0600 
    219 H219       -9.2406  -25.2980  -48.8049 H         1 UNK         0.0600 
    220 H220       -7.1522  -22.2917  -51.0406 H         1 UNK         0.3000 
    221 H221       -7.7041  -21.1399  -52.8180 H         1 UNK         0.0600 
    222 H222      -10.6124  -20.9691  -51.8936 H         1 UNK         0.0600 
    223 H223       -9.3401  -19.8358  -51.4347 H         1 UNK         0.0600 
    224 H224       -9.8278  -19.9827  -53.1143 H         1 UNK         0.0600 
    225 H225       -8.5447  -24.2667  -52.3486 H         1 UNK         0.3000 
    226 H226      -10.2070  -24.7689  -54.6437 H         1 UNK         0.0600 
    227 H227      -10.0444  -26.2835  -52.6295 H         1 UNK         0.0600 
    228 H228       -9.7768  -27.1212  -54.1515 H         1 UNK         0.0600 
    229 H229       -8.4089  -26.7237  -53.1256 H         1 UNK         0.0600 
    230 H230       -6.7343  -24.3397  -54.2371 H         1 UNK         0.3000 
    231 H231       -6.1773  -25.3310  -57.0082 H         1 UNK         0.0600 
    232 H232       -4.8372  -26.3607  -55.1599 H         1 UNK         0.0600 
    233 H233       -4.2706  -24.7605  -54.6776 H         1 UNK         0.0600 
    234 H234       -3.8310  -25.4214  -56.2459 H         1 UNK         0.0600 
    235 H235       -7.1965  -22.5906  -55.6741 H         1 UNK         0.3000 
    236 H236       -7.1171  -20.4104  -55.9497 H         1 UNK         0.0600 
    237 H237       -5.4920  -20.9140  -58.5077 H         1 UNK         0.0600 
    238 H238       -7.2379  -20.7476  -58.3823 H         1 UNK         0.0600 
    239 H239       -6.1976  -19.3792  -58.0252 H         1 UNK         0.0600 
    240 H240       -3.8530  -21.0706  -57.1922 H         1 UNK         0.3000 
    241 H241       -2.6063  -21.1380  -54.7600 H         1 UNK         0.0600 
    242 H242       -2.7866  -22.6367  -57.3301 H         1 UNK         0.3800 
    243 H243       -1.1123  -22.8461  -57.7712 H         1 UNK         0.3800 
    244 H244       -2.8910  -18.3929  -55.4035 H         1 UNK         0.0800 
    245 H245       -1.2649  -18.7303  -55.8903 H         1 UNK         0.0800 
    246 H246        0.7129  -18.6836  -54.0673 H         1 UNK         0.0800 
    247 H247       -0.1914  -17.1858  -54.1772 H         1 UNK         0.0800 
@<TRIPOS>BOND
     1    1    2 1    
     2    1  127 1    
     3    1  128 1    
     4    1  129 1    
     5    2    3 2    
     6    2    4 am   BACKBONE|DICT|INTERRES
     7    4    5 1    
     8    4  130 1    
     9    5    6 1    
    10    5   65 1    
    11    5  131 1    
    12    6    7 1    
    13    6  132 1    
    14    6  133 1    
    15    7    8 1    
    16    8    9 1    
    17    8  134 1    
    18    8  135 1    
    19    9   10 ar   
    20    9   14 ar   
    21   10   11 ar   
    22   10  136 1    
    23   11   12 ar   
    24   11  126 1    
    25   12   13 ar   
    26   12  137 1    
    27   13   14 ar   
    28   13   15 1    
    29   14  138 1    
    30   15   16 1    
    31   15  139 1    
    32   15  140 1    
    33   16   17 1    
    34   17   18 1    
    35   17  141 1    
    36   17  142 1    
    37   18   19 1    
    38   18   67 1    
    39   18  143 1    
    40   19   20 am   BACKBONE|DICT|INTERRES
    41   19  144 1    
    42   20   21 2    
    43   20   22 1    
    44   22   23 1    
    45   22   24 1    
    46   22  145 1    
    47   23  146 1    
    48   23  147 1    
    49   23  148 1    
    50   24   25 am   BACKBONE|DICT|INTERRES
    51   24  149 1    
    52   25   26 2    
    53   25   27 1    
    54   27   28 1    
    55   27   29 1    
    56   27  150 1    
    57   28  151 1    
    58   28  152 1    
    59   28  153 1    
    60   29   30 am   BACKBONE|DICT|INTERRES
    61   29  154 1    
    62   30   31 2    
    63   30   32 1    
    64   32   33 1    
    65   32   34 1    
    66   32  155 1    
    67   33  156 1    
    68   33  157 1    
    69   33  158 1    
    70   34   35 am   BACKBONE|DICT|INTERRES
    71   34  159 1    
    72   35   36 2    
    73   35   37 1    
    74   37   38 1    
    75   37   39 1    
    76   37  160 1    
    77   38  161 1    
    78   38  162 1    
    79   38  163 1    
    80   39   40 am   BACKBONE|DICT|INTERRES
    81   39  164 1    
    82   40   41 2    
    83   40   42 1    
    84   42   43 1    
    85   42   44 1    
    86   42  165 1    
    87   43  166 1    
    88   43  167 1    
    89   43  168 1    
    90   44   45 am   BACKBONE|DICT|INTERRES
    91   44  169 1    
    92   45   46 2    
    93   45   47 1    
    94   47   48 1    
    95   47   49 1    
    96   47  170 1    
    97   48  171 1    
    98   48  172 1    
    99   48  173 1    
   100   49   50 am   BACKBONE|DICT|INTERRES
   101   49  174 1    
   102   50   51 2    
   103   50   52 1    
   104   52   53 1    
   105   52   54 1    
   106   52  175 1    
   107   53  176 1    
   108   53  177 1    
   109   53  178 1    
   110   54   55 am   BACKBONE|DICT|INTERRES
   111   54  179 1    
   112   55   56 2    
   113   55   57 1    
   114   57   58 1    
   115   57   59 1    
   116   57  180 1    
   117   58  181 1    
   118   58  182 1    
   119   58  183 1    
   120   59   60 am   BACKBONE|DICT|INTERRES
   121   59  184 1    
   122   60   61 2    
   123   60   62 1    
   124   62   63 1    
   125   62   64 1    
   126   62  185 1    
   127   63  186 1    
   128   63  187 1    
   129   63  188 1    
   130   64   65 am   BACKBONE|DICT|INTERRES
   131   64  189 1    
   132   65   66 2    
   133   67   68 2    
   134   67   69 am   BACKBONE|DICT|INTERRES
   135   69   70 1    
   136   69  190 1    
   137   70   71 1    
   138   70   72 1    
   139   70  191 1    
   140   71  192 1    
   141   71  193 1    
   142   71  194 1    
   143   72   73 2    
   144   72   74 am   BACKBONE|DICT|INTERRES
   145   74   75 1    
   146   74  195 1    
   147   75   76 1    
   148   75   77 1    
   149   75  196 1    
   150   76  197 1    
   151   76  198 1    
   152   76  199 1    
   153   77   78 2    
   154   77   79 am   BACKBONE|DICT|INTERRES
   155   79   80 1    
   156   79  200 1    
   157   80   81 1    
   158   80   82 1    
   159   80  201 1    
   160   81  202 1    
   161   81  203 1    
   162   81  204 1    
   163   82   83 2    
   164   82   84 am   BACKBONE|DICT|INTERRES
   165   84   85 1    
   166   84  205 1    
   167   85   86 1    
   168   85   87 1    
   169   85  206 1    
   170   86  207 1    
   171   86  208 1    
   172   86  209 1    
   173   87   88 2    
   174   87   89 am   BACKBONE|DICT|INTERRES
   175   89   90 1    
   176   89  210 1    
   177   90   91 1    
   178   90   92 1    
   179   90  211 1    
   180   91  212 1    
   181   91  213 1    
   182   91  214 1    
   183   92   93 2    
   184   92   94 am   BACKBONE|DICT|INTERRES
   185   94   95 1    
   186   94  215 1    
   187   95   96 1    
   188   95   97 1    
   189   95  216 1    
   190   96  217 1    
   191   96  218 1    
   192   96  219 1    
   193   97   98 2    
   194   97   99 am   BACKBONE|DICT|INTERRES
   195   99  100 1    
   196   99  220 1    
   197  100  101 1    
   198  100  102 1    
   199  100  221 1    
   200  101  222 1    
   201  101  223 1    
   202  101  224 1    
   203  102  103 2    
   204  102  104 am   BACKBONE|DICT|INTERRES
   205  104  105 1    
   206  104  225 1    
   207  105  106 1    
   208  105  107 1    
   209  105  226 1    
   210  106  227 1    
   211  106  228 1    
   212  106  229 1    
   213  107  108 2    
   214  107  109 am   BACKBONE|DICT|INTERRES
   215  109  110 1    
   216  109  230 1    
   217  110  111 1    
   218  110  112 1    
   219  110  231 1    
   220  111  232 1    
   221  111  233 1    
   222  111  234 1    
   223  112  113 2    
   224  112  114 am   BACKBONE|DICT|INTERRES
   225  114  115 1    
   226  114  235 1    
   227  115  116 1    
   228  115  117 1    
   229  115  236 1    
   230  116  237 1    
   231  116  238 1    
   232  116  239 1    
   233  117  118 2    
   234  117  119 am   BACKBONE|DICT|INTERRES
   235  119  120 1    
   236  119  240 1    
   237  120  121 1    
   238  120  124 1    
   239  120  241 1    
   240  121  122 am   BACKBONE|DICT|INTERRES
   241  121  123 2    
   242  122  242 1    
   243  122  243 1    
   244  124  125 1    
   245  124  244 1    
   246  124  245 1    
   247  125  126 1    
   248  126  246 1    
   249  126  247 1    
@<TRIPOS>SUBSTRUCTURE
     1 UNK         1 GROUP             0       ****    0 ROOT    
