@<TRIPOS>MOLECULE
3R540
247   249    1
SMALL
USER_CHARGES


@<TRIPOS>ATOM
      1 CA          5.9482  -15.9512  -44.2725 C.3       0 UNK        -0.1800 
      2 C           4.7285  -15.1699  -44.7358 C.2       0 UNK         0.5000 
      3 O           4.2899  -14.2549  -44.0409 O.2       0 UNK        -0.5000 
      4 N           4.1936  -15.5092  -45.9166 N.am      1 UNK        -0.5000 
      5 CA          2.9704  -14.9526  -46.5227 C.3       1 UNK         0.1400 
      6 C6          2.5929  -15.7518  -47.7978 C.3       23 UNK        -0.0398 
      7 S7          0.8007  -15.7610  -48.1401 S.3       23 UNK        -0.2404 
      8 C8          0.7698  -15.5596  -49.9506 C.3       23 UNK        -0.0205 
      9 C9          0.9732  -16.8797  -50.6846 C.ar      23 UNK        -0.0193 
     10 C10        -0.1240  -17.5571  -51.2256 C.ar      23 UNK        -0.1150 
     11 C11         0.0536  -18.7504  -51.9315 C.ar      23 UNK        -0.0193 
     12 C12         1.3398  -19.2711  -52.0907 C.ar      23 UNK        -0.1150 
     13 C13         2.4450  -18.6127  -51.5446 C.ar      23 UNK        -0.0193 
     14 C14         2.2554  -17.4134  -50.8503 C.ar      23 UNK        -0.1150 
     15 C15         3.8473  -19.1805  -51.7254 C.3       23 UNK        -0.0205 
     16 S16         4.0382  -20.8583  -51.0354 S.3       23 UNK        -0.2404 
     17 C17         3.7315  -20.5835  -49.2570 C.3       23 UNK        -0.0398 
     18 CA          2.7941  -21.6493  -48.6357 C.3       11 UNK         0.1400 
     19 N           2.9346  -21.6871  -47.1761 N.am      11 UNK        -0.5000 
     20 C           2.4149  -22.6317  -46.3799 C.2       10 UNK         0.5000 
     21 O           1.7474  -23.5824  -46.7863 O.2       10 UNK        -0.5000 
     22 CA          2.6533  -22.4649  -44.8677 C.3       10 UNK         0.1400 
     23 CB          4.0147  -23.0549  -44.4707 C.3       10 UNK        -0.1800 
     24 N           2.5659  -21.0815  -44.3870 N.am      10 UNK        -0.5000 
     25 C           1.4946  -20.2876  -44.5173 C.2       9 UNK         0.5000 
     26 O           0.4981  -20.5833  -45.1763 O.2       9 UNK        -0.5000 
     27 CA          1.5451  -18.9271  -43.8041 C.3       9 UNK         0.1400 
     28 CB          1.4873  -17.7817  -44.8236 C.3       9 UNK        -0.1800 
     29 N           0.4340  -18.7831  -42.8672 N.am      9 UNK        -0.5000 
     30 C           0.2729  -19.4959  -41.7444 C.2       8 UNK         0.5000 
     31 O           1.0777  -20.3402  -41.3486 O.2       8 UNK        -0.5000 
     32 CA         -0.9918  -19.2150  -40.9172 C.3       8 UNK         0.1400 
     33 CB         -0.8002  -17.9621  -40.0470 C.3       8 UNK        -0.1800 
     34 N          -2.1673  -19.0272  -41.7669 N.am      8 UNK        -0.5000 
     35 C          -3.0963  -19.9625  -42.0082 C.2       7 UNK         0.5000 
     36 O          -3.0432  -21.1078  -41.5588 O.2       7 UNK        -0.5000 
     37 CA         -4.3108  -19.5538  -42.8686 C.3       7 UNK         0.1400 
     38 CB         -5.5339  -19.2856  -41.9784 C.3       7 UNK        -0.1800 
     39 N          -4.0623  -18.3692  -43.6911 N.am      7 UNK        -0.5000 
     40 C          -3.3772  -18.3918  -44.8406 C.2       6 UNK         0.5000 
     41 O          -2.9586  -19.4259  -45.3539 O.2       6 UNK        -0.5000 
     42 CA         -3.0979  -17.0371  -45.5238 C.3       6 UNK         0.1400 
     43 CB         -4.1491  -16.7578  -46.6084 C.3       6 UNK        -0.1800 
     44 N          -3.0316  -15.8900  -44.6109 N.am      6 UNK        -0.5000 
     45 C          -2.1524  -15.7623  -43.6091 C.2       5 UNK         0.5000 
     46 O          -1.3640  -16.6506  -43.2794 O.2       5 UNK        -0.5000 
     47 CA         -2.2084  -14.4529  -42.8019 C.3       5 UNK         0.1400 
     48 CB         -3.3097  -14.5403  -41.7335 C.3       5 UNK        -0.1800 
     49 N          -0.9356  -14.1704  -42.1373 N.am      5 UNK        -0.5000 
     50 C           0.2013  -13.8488  -42.7668 C.2       4 UNK         0.5000 
     51 O           0.2878  -13.6698  -43.9840 O.2       4 UNK        -0.5000 
     52 CA          1.4509  -13.7424  -41.8754 C.3       4 UNK         0.1400 
     53 CB          2.0674  -15.1311  -41.6389 C.3       4 UNK        -0.1800 
     54 N           2.4643  -12.8707  -42.4661 N.am      4 UNK        -0.5000 
     55 C           2.4338  -11.5331  -42.4272 C.2       3 UNK         0.5000 
     56 O           1.5478  -10.8903  -41.8615 O.2       3 UNK        -0.5000 
     57 CA          3.5834  -10.7801  -43.1164 C.3       3 UNK         0.1400 
     58 CB          4.8386  -10.7746  -42.2285 C.3       3 UNK        -0.1800 
     59 N           3.9202  -11.3523  -44.4214 N.am      3 UNK        -0.5000 
     60 C           4.0371  -10.6460  -45.5560 C.2       2 UNK         0.5000 
     61 O           3.8441   -9.4311  -45.6250 O.2       2 UNK        -0.5000 
     62 CA          4.4587  -11.4002  -46.8364 C.3       2 UNK         0.1400 
     63 CB          5.9461  -11.1558  -47.1355 C.3       2 UNK        -0.1800 
     64 N           4.2268  -12.8424  -46.7713 N.am      2 UNK        -0.5000 
     65 C           3.0213  -13.4265  -46.7905 C.2       1 UNK         0.5000 
     66 O           1.9791  -12.8012  -46.9860 O.2       1 UNK        -0.5000 
     67 C           1.3235  -21.4624  -49.0724 C.2       11 UNK         0.5000 
     68 O           0.8722  -22.1219  -50.0096 O.2       11 UNK        -0.5000 
     69 N           0.5940  -20.6008  -48.3519 N.am      12 UNK        -0.5000 
     70 CA         -0.8273  -20.3575  -48.5695 C.3       12 UNK         0.1400 
     71 CB         -1.2064  -18.9955  -47.9869 C.3       12 UNK        -0.1800 
     72 C          -1.7000  -21.4721  -47.9769 C.2       12 UNK         0.5000 
     73 O          -2.6639  -21.8829  -48.6227 O.2       12 UNK        -0.5000 
     74 N          -1.3425  -21.9696  -46.7852 N.am      13 UNK        -0.5000 
     75 CA         -2.0279  -23.0604  -46.0896 C.3       13 UNK         0.1400 
     76 CB         -1.4095  -23.2609  -44.6996 C.3       13 UNK        -0.1800 
     77 C          -2.0213  -24.3740  -46.8928 C.2       13 UNK         0.5000 
     78 O          -3.0451  -25.0561  -46.9448 O.2       13 UNK        -0.5000 
     79 N          -0.8998  -24.6605  -47.5707 N.am      14 UNK        -0.5000 
     80 CA         -0.7446  -25.7674  -48.5196 C.3       14 UNK         0.1400 
     81 CB          0.7307  -25.8678  -48.9351 C.3       14 UNK        -0.1800 
     82 C          -1.6461  -25.6491  -49.7673 C.2       14 UNK         0.5000 
     83 O          -1.9569  -26.6671  -50.3856 O.2       14 UNK        -0.5000 
     84 N          -2.0760  -24.4234  -50.0930 N.am      15 UNK        -0.5000 
     85 CA         -3.0272  -24.0986  -51.1541 C.3       15 UNK         0.1400 
     86 CB         -2.5170  -22.8612  -51.9129 C.3       15 UNK        -0.1800 
     87 C          -4.4491  -23.8856  -50.5916 C.2       15 UNK         0.5000 
     88 O          -5.2251  -23.1314  -51.1792 O.2       15 UNK        -0.5000 
     89 N          -4.7621  -24.5365  -49.4599 N.am      16 UNK        -0.5000 
     90 CA         -6.0438  -24.5218  -48.7451 C.3       16 UNK         0.1400 
     91 CB         -7.1432  -25.2093  -49.5806 C.3       16 UNK        -0.1800 
     92 C          -6.4394  -23.1159  -48.2473 C.2       16 UNK         0.5000 
     93 O          -7.5923  -22.7060  -48.3873 O.2       16 UNK        -0.5000 
     94 N          -5.4524  -22.4117  -47.6766 N.am      17 UNK        -0.5000 
     95 CA         -5.5017  -21.0254  -47.2015 C.3       17 UNK         0.1400 
     96 CB         -6.5023  -20.8501  -46.0402 C.3       17 UNK        -0.1800 
     97 C          -5.7088  -20.0339  -48.3627 C.2       17 UNK         0.5000 
     98 O          -6.5748  -19.1602  -48.2950 O.2       17 UNK        -0.5000 
     99 N          -4.8876  -20.2114  -49.4072 N.am      18 UNK        -0.5000 
    100 CA        -4.8528  -19.4581  -50.6618 C.3       18 UNK         0.1400 
    101 CB        -4.3308  -18.0249  -50.4305 C.3       18 UNK        -0.1800 
    102 C         -6.1849  -19.5086  -51.4363 C.2       18 UNK         0.5000 
    103 O         -6.7334  -18.4695  -51.8105 O.2       18 UNK        -0.5000 
    104 N         -6.6708  -20.7327  -51.6718 N.am      19 UNK        -0.5000 
    105 CA        -7.7999  -21.0313  -52.5498 C.3       19 UNK         0.1400 
    106 CB        -8.4374  -22.3544  -52.0872 C.3       19 UNK        -0.1800 
    107 C         -7.3432  -21.0937  -54.0243 C.2       19 UNK         0.5000 
    108 O         -6.2409  -20.6497  -54.3579 O.2       19 UNK        -0.5000 
    109 N         -8.1821  -21.6821  -54.8902 N.am      20 UNK        -0.5000 
    110 CA        -7.9371  -21.8734  -56.3270 C.3       20 UNK         0.1400 
    111 CB        -9.1563  -22.5660  -56.9540 C.3       20 UNK        -0.1800 
    112 C         -6.6458  -22.6515  -56.6605 C.2       20 UNK         0.5000 
    113 O         -6.0693  -22.4416  -57.7286 O.2       20 UNK        -0.5000 
    114 N         -6.1802  -23.4837  -55.7175 N.am      21 UNK        -0.5000 
    115 CA        -4.8941  -24.1852  -55.7458 C.3       21 UNK         0.1400 
    116 CB        -4.8105  -25.1011  -54.5153 C.3       21 UNK        -0.1800 
    117 C         -3.6644  -23.2518  -55.8089 C.2       21 UNK         0.5000 
    118 O         -2.6042  -23.6882  -56.2580 O.2       21 UNK        -0.5000 
    119 N         -3.8257  -21.9903  -55.3846 N.am      22 UNK        -0.5000 
    120 CA        -2.8370  -20.9141  -55.5483 C.3       22 UNK         0.1400 
    121 C         -2.7221  -20.3805  -57.0122 C.2       22 UNK         0.5000 
    122 N         -3.6303  -20.7113  -57.9248 N.am      22 UNK        -0.7600 
    123 O         -1.7776  -19.6686  -57.3403 O.2       22 UNK        -0.5000 
    124 C124       -3.1035  -19.7751  -54.5272 C.3       23 UNK        -0.0398 
    125 S125       -1.6260  -18.7814  -54.1207 S.3       23 UNK        -0.2404 
    126 C126       -1.1448  -19.4799  -52.5135 C.3       23 UNK        -0.0205 
    127 H127        5.7399  -16.4351  -43.3184 H         1 UNK         0.0600 
    128 H128        6.7946  -15.2780  -44.1369 H         1 UNK         0.0600 
    129 H129        6.2349  -16.7206  -44.9896 H         1 UNK         0.0600 
    130 H130        4.6380  -16.2455  -46.4458 H         1 UNK         0.3000 
    131 H131        2.1808  -15.0937  -45.7825 H         1 UNK         0.0600 
    132 H132        3.1494  -15.3794  -48.6590 H         1 UNK         0.0800 
    133 H133        2.8808  -16.7985  -47.6927 H         1 UNK         0.0800 
    134 H134       -0.1928  -15.1273  -50.2279 H         1 UNK         0.0800 
    135 H135        1.5211  -14.8337  -50.2644 H         1 UNK         0.0800 
    136 H136       -1.1189  -17.1518  -51.1053 H         1 UNK         0.1150 
    137 H137        1.4824  -20.1955  -52.6327 H         1 UNK         0.1150 
    138 H138        3.1092  -16.8911  -50.4449 H         1 UNK         0.1150 
    139 H139        4.0760  -19.2125  -52.7914 H         1 UNK         0.0800 
    140 H140        4.5944  -18.5269  -51.2724 H         1 UNK         0.0800 
    141 H141        3.3487  -19.5771  -49.0805 H         1 UNK         0.0800 
    142 H142        4.7062  -20.6188  -48.7684 H         1 UNK         0.0800 
    143 H143        3.1121  -22.6291  -48.9997 H         1 UNK         0.0600 
    144 H144        3.4617  -20.9410  -46.7475 H         1 UNK         0.3000 
    145 H145        1.8796  -23.0347  -44.3508 H         1 UNK         0.0600 
    146 H146        4.1480  -23.0468  -43.3887 H         1 UNK         0.0600 
    147 H147        4.1020  -24.0917  -44.7988 H         1 UNK         0.0600 
    148 H148        4.8409  -22.4990  -44.9156 H         1 UNK         0.0600 
    149 H149        3.3410  -20.7587  -43.8261 H         1 UNK         0.3000 
    150 H150        2.4783  -18.8434  -43.2436 H         1 UNK         0.0600 
    151 H151        2.3240  -17.8376  -45.5194 H         1 UNK         0.0600 
    152 H152        1.5329  -16.8136  -44.3277 H         1 UNK         0.0600 
    153 H153        0.5668  -17.8040  -45.4078 H         1 UNK         0.0600 
    154 H154       -0.2682  -18.0878  -43.1086 H         1 UNK         0.3000 
    155 H155       -1.1442  -20.0636  -40.2469 H         1 UNK         0.0600 
    156 H156       -0.6767  -17.0637  -40.6518 H         1 UNK         0.0600 
    157 H157       -1.6570  -17.8060  -39.3914 H         1 UNK         0.0600 
    158 H158        0.0820  -18.0565  -39.4126 H         1 UNK         0.0600 
    159 H159       -2.2344  -18.1354  -42.2426 H         1 UNK         0.3000 
    160 H160       -4.5474  -20.3965  -43.5221 H         1 UNK         0.0600 
    161 H161       -5.3636  -18.4469  -41.3020 H         1 UNK         0.0600 
    162 H162       -5.7717  -20.1574  -41.3674 H         1 UNK         0.0600 
    163 H163       -6.4160  -19.0612  -42.5784 H         1 UNK         0.0600 
    164 H164       -4.3869  -17.4829  -43.3345 H         1 UNK         0.3000 
    165 H165       -2.1225  -17.1140  -46.0065 H         1 UNK         0.0600 
    166 H166       -3.8978  -15.8660  -47.1828 H         1 UNK         0.0600 
    167 H167       -4.2148  -17.5860  -47.3139 H         1 UNK         0.0600 
    168 H168       -5.1421  -16.6162  -46.1802 H         1 UNK         0.0600 
    169 H169       -3.6655  -15.1282  -44.8049 H         1 UNK         0.3000 
    170 H170       -2.4341  -13.6294  -43.4825 H         1 UNK         0.0600 
    171 H171       -3.1263  -15.3552  -41.0315 H         1 UNK         0.0600 
    172 H172       -3.3789  -13.6146  -41.1618 H         1 UNK         0.0600 
    173 H173       -4.2866  -14.7118  -42.1872 H         1 UNK         0.0600 
    174 H174       -0.9118  -14.3274  -41.1409 H         1 UNK         0.3000 
    175 H175        1.1539  -13.3302  -40.9086 H         1 UNK         0.0600 
    176 H176        2.9241  -15.0720  -40.9676 H         1 UNK         0.0600 
    177 H177        2.4059  -15.5848  -42.5696 H         1 UNK         0.0600 
    178 H178        1.3468  -15.8130  -41.1871 H         1 UNK         0.0600 
    179 H179        3.1979  -13.3423  -42.9907 H         1 UNK         0.3000 
    180 H180        3.2508   -9.7463  -43.2303 H         1 UNK         0.0600 
    181 H181        5.2367  -11.7806  -42.0889 H         1 UNK         0.0600 
    182 H182        4.6188  -10.3664  -41.2412 H         1 UNK         0.0600 
    183 H183        5.6262  -10.1611  -42.6662 H         1 UNK         0.0600 
    184 H184        4.0719  -12.3556  -44.4496 H         1 UNK         0.3000 
    185 H185        3.8729  -10.9951  -47.6641 H         1 UNK         0.0600 
    186 H186        6.1568  -10.0894  -47.2264 H         1 UNK         0.0600 
    187 H187        6.5853  -11.5502  -46.3444 H         1 UNK         0.0600 
    188 H188        6.2428  -11.6248  -48.0738 H         1 UNK         0.0600 
    189 H189        5.0335  -13.4241  -46.5988 H         1 UNK         0.3000 
    190 H190        1.0096  -20.1583  -47.5454 H         1 UNK         0.3000 
    191 H191       -1.0220  -20.3271  -49.6428 H         1 UNK         0.0600 
    192 H192       -0.7412  -18.1871  -48.5457 H         1 UNK         0.0600 
    193 H193       -2.2841  -18.8406  -48.0230 H         1 UNK         0.0600 
    194 H194       -0.8924  -18.9091  -46.9476 H         1 UNK         0.0600 
    195 H195       -0.5839  -21.5175  -46.2775 H         1 UNK         0.3000 
    196 H196       -3.0671  -22.7580  -45.9508 H         1 UNK         0.0600 
    197 H197       -1.9431  -24.0316  -44.1422 H         1 UNK         0.0600 
    198 H198       -1.4556  -22.3433  -44.1119 H         1 UNK         0.0600 
    199 H199       -0.3660  -23.5662  -44.7666 H         1 UNK         0.0600 
    200 H200       -0.0841  -24.0709  -47.4320 H         1 UNK         0.3000 
    201 H201       -1.0196  -26.6899  -48.0045 H         1 UNK         0.0600 
    202 H202        1.3709  -26.0543  -48.0728 H         1 UNK         0.0600 
    203 H203        1.0747  -24.9506  -49.4152 H         1 UNK         0.0600 
    204 H204        0.8870  -26.6870  -49.6381 H         1 UNK         0.0600 
    205 H205       -1.8087  -23.6463  -49.5017 H         1 UNK         0.3000 
    206 H206       -3.0881  -24.9241  -51.8654 H         1 UNK         0.0600 
    207 H207       -1.5216  -23.0338  -52.3222 H         1 UNK         0.0600 
    208 H208       -3.1714  -22.6140  -52.7478 H         1 UNK         0.0600 
    209 H209       -2.4657  -21.9860  -51.2663 H         1 UNK         0.0600 
    210 H210       -4.0329  -25.0793  -49.0157 H         1 UNK         0.3000 
    211 H211       -5.8954  -25.1241  -47.8477 H         1 UNK         0.0600 
    212 H212       -7.3693  -24.6538  -50.4894 H         1 UNK         0.0600 
    213 H213       -8.0698  -25.2970  -49.0123 H         1 UNK         0.0600 
    214 H214       -6.8447  -26.2166  -49.8704 H         1 UNK         0.0600 
    215 H215       -4.5286  -22.8226  -47.6963 H         1 UNK         0.3000 
    216 H216       -4.5108  -20.8164  -46.8028 H         1 UNK         0.0600 
    217 H217       -6.4226  -19.8508  -45.6104 H         1 UNK         0.0600 
    218 H218       -6.3051  -21.5630  -45.2398 H         1 UNK         0.0600 
    219 H219       -7.5343  -20.9838  -46.3647 H         1 UNK         0.0600 
    220 H220       -4.2098  -20.9643  -49.3301 H         1 UNK         0.3000 
    221 H221       -4.1302  -19.9740  -51.2923 H         1 UNK         0.0600 
    222 H222       -5.0055  -17.4442  -49.8010 H         1 UNK         0.0600 
    223 H223       -3.3504  -18.0315  -49.9569 H         1 UNK         0.0600 
    224 H224       -4.2249  -17.4922  -51.3763 H         1 UNK         0.0600 
    225 H225       -6.1339  -21.5412  -51.3633 H         1 UNK         0.3000 
    226 H226       -8.5452  -20.2387  -52.4613 H         1 UNK         0.0600 
    227 H227       -8.6307  -22.3445  -51.0142 H         1 UNK         0.0600 
    228 H228       -9.3935  -22.5330  -52.5797 H         1 UNK         0.0600 
    229 H229       -7.7898  -23.2054  -52.3006 H         1 UNK         0.0600 
    230 H230       -9.0640  -22.0296  -54.5426 H         1 UNK         0.3000 
    231 H231       -7.8385  -20.8825  -56.7747 H         1 UNK         0.0600 
    232 H232       -9.3268  -23.5514  -56.5185 H         1 UNK         0.0600 
    233 H233       -9.0206  -22.7008  -58.0280 H         1 UNK         0.0600 
    234 H234      -10.0618  -21.9750  -56.8151 H         1 UNK         0.0600 
    235 H235       -6.7230  -23.5826  -54.8728 H         1 UNK         0.3000 
    236 H236       -4.8742  -24.8080  -56.6424 H         1 UNK         0.0600 
    237 H237       -5.5995  -25.8532  -54.5290 H         1 UNK         0.0600 
    238 H238       -3.8577  -25.6312  -54.4809 H         1 UNK         0.0600 
    239 H239       -4.9064  -24.5327  -53.5905 H         1 UNK         0.0600 
    240 H240       -4.7358  -21.6980  -55.0407 H         1 UNK         0.3000 
    241 H241       -1.8642  -21.3474  -55.3078 H         1 UNK         0.0600 
    242 H242       -4.4123  -21.3179  -57.7036 H         1 UNK         0.3800 
    243 H243       -3.5284  -20.3625  -58.8646 H         1 UNK         0.3800 
    244 H244       -3.8878  -19.1080  -54.8897 H         1 UNK         0.0800 
    245 H245       -3.4919  -20.1928  -53.5983 H         1 UNK         0.0800 
    246 H246       -1.9787  -19.4112  -51.8171 H         1 UNK         0.0800 
    247 H247       -0.9188  -20.5402  -52.6330 H         1 UNK         0.0800 
@<TRIPOS>BOND
     1    1    2 1    
     2    1  127 1    
     3    1  128 1    
     4    1  129 1    
     5    2    3 2    
     6    2    4 am   BACKBONE|DICT|INTERRES
     7    4    5 1    
     8    4  130 1    
     9    5    6 1    
    10    5   65 1    
    11    5  131 1    
    12    6    7 1    
    13    6  132 1    
    14    6  133 1    
    15    7    8 1    
    16    8    9 1    
    17    8  134 1    
    18    8  135 1    
    19    9   10 ar   
    20    9   14 ar   
    21   10   11 ar   
    22   10  136 1    
    23   11   12 ar   
    24   11  126 1    
    25   12   13 ar   
    26   12  137 1    
    27   13   14 ar   
    28   13   15 1    
    29   14  138 1    
    30   15   16 1    
    31   15  139 1    
    32   15  140 1    
    33   16   17 1    
    34   17   18 1    
    35   17  141 1    
    36   17  142 1    
    37   18   19 1    
    38   18   67 1    
    39   18  143 1    
    40   19   20 am   BACKBONE|DICT|INTERRES
    41   19  144 1    
    42   20   21 2    
    43   20   22 1    
    44   22   23 1    
    45   22   24 1    
    46   22  145 1    
    47   23  146 1    
    48   23  147 1    
    49   23  148 1    
    50   24   25 am   BACKBONE|DICT|INTERRES
    51   24  149 1    
    52   25   26 2    
    53   25   27 1    
    54   27   28 1    
    55   27   29 1    
    56   27  150 1    
    57   28  151 1    
    58   28  152 1    
    59   28  153 1    
    60   29   30 am   BACKBONE|DICT|INTERRES
    61   29  154 1    
    62   30   31 2    
    63   30   32 1    
    64   32   33 1    
    65   32   34 1    
    66   32  155 1    
    67   33  156 1    
    68   33  157 1    
    69   33  158 1    
    70   34   35 am   BACKBONE|DICT|INTERRES
    71   34  159 1    
    72   35   36 2    
    73   35   37 1    
    74   37   38 1    
    75   37   39 1    
    76   37  160 1    
    77   38  161 1    
    78   38  162 1    
    79   38  163 1    
    80   39   40 am   BACKBONE|DICT|INTERRES
    81   39  164 1    
    82   40   41 2    
    83   40   42 1    
    84   42   43 1    
    85   42   44 1    
    86   42  165 1    
    87   43  166 1    
    88   43  167 1    
    89   43  168 1    
    90   44   45 am   BACKBONE|DICT|INTERRES
    91   44  169 1    
    92   45   46 2    
    93   45   47 1    
    94   47   48 1    
    95   47   49 1    
    96   47  170 1    
    97   48  171 1    
    98   48  172 1    
    99   48  173 1    
   100   49   50 am   BACKBONE|DICT|INTERRES
   101   49  174 1    
   102   50   51 2    
   103   50   52 1    
   104   52   53 1    
   105   52   54 1    
   106   52  175 1    
   107   53  176 1    
   108   53  177 1    
   109   53  178 1    
   110   54   55 am   BACKBONE|DICT|INTERRES
   111   54  179 1    
   112   55   56 2    
   113   55   57 1    
   114   57   58 1    
   115   57   59 1    
   116   57  180 1    
   117   58  181 1    
   118   58  182 1    
   119   58  183 1    
   120   59   60 am   BACKBONE|DICT|INTERRES
   121   59  184 1    
   122   60   61 2    
   123   60   62 1    
   124   62   63 1    
   125   62   64 1    
   126   62  185 1    
   127   63  186 1    
   128   63  187 1    
   129   63  188 1    
   130   64   65 am   BACKBONE|DICT|INTERRES
   131   64  189 1    
   132   65   66 2    
   133   67   68 2    
   134   67   69 am   BACKBONE|DICT|INTERRES
   135   69   70 1    
   136   69  190 1    
   137   70   71 1    
   138   70   72 1    
   139   70  191 1    
   140   71  192 1    
   141   71  193 1    
   142   71  194 1    
   143   72   73 2    
   144   72   74 am   BACKBONE|DICT|INTERRES
   145   74   75 1    
   146   74  195 1    
   147   75   76 1    
   148   75   77 1    
   149   75  196 1    
   150   76  197 1    
   151   76  198 1    
   152   76  199 1    
   153   77   78 2    
   154   77   79 am   BACKBONE|DICT|INTERRES
   155   79   80 1    
   156   79  200 1    
   157   80   81 1    
   158   80   82 1    
   159   80  201 1    
   160   81  202 1    
   161   81  203 1    
   162   81  204 1    
   163   82   83 2    
   164   82   84 am   BACKBONE|DICT|INTERRES
   165   84   85 1    
   166   84  205 1    
   167   85   86 1    
   168   85   87 1    
   169   85  206 1    
   170   86  207 1    
   171   86  208 1    
   172   86  209 1    
   173   87   88 2    
   174   87   89 am   BACKBONE|DICT|INTERRES
   175   89   90 1    
   176   89  210 1    
   177   90   91 1    
   178   90   92 1    
   179   90  211 1    
   180   91  212 1    
   181   91  213 1    
   182   91  214 1    
   183   92   93 2    
   184   92   94 am   BACKBONE|DICT|INTERRES
   185   94   95 1    
   186   94  215 1    
   187   95   96 1    
   188   95   97 1    
   189   95  216 1    
   190   96  217 1    
   191   96  218 1    
   192   96  219 1    
   193   97   98 2    
   194   97   99 am   BACKBONE|DICT|INTERRES
   195   99  100 1    
   196   99  220 1    
   197  100  101 1    
   198  100  102 1    
   199  100  221 1    
   200  101  222 1    
   201  101  223 1    
   202  101  224 1    
   203  102  103 2    
   204  102  104 am   BACKBONE|DICT|INTERRES
   205  104  105 1    
   206  104  225 1    
   207  105  106 1    
   208  105  107 1    
   209  105  226 1    
   210  106  227 1    
   211  106  228 1    
   212  106  229 1    
   213  107  108 2    
   214  107  109 am   BACKBONE|DICT|INTERRES
   215  109  110 1    
   216  109  230 1    
   217  110  111 1    
   218  110  112 1    
   219  110  231 1    
   220  111  232 1    
   221  111  233 1    
   222  111  234 1    
   223  112  113 2    
   224  112  114 am   BACKBONE|DICT|INTERRES
   225  114  115 1    
   226  114  235 1    
   227  115  116 1    
   228  115  117 1    
   229  115  236 1    
   230  116  237 1    
   231  116  238 1    
   232  116  239 1    
   233  117  118 2    
   234  117  119 am   BACKBONE|DICT|INTERRES
   235  119  120 1    
   236  119  240 1    
   237  120  121 1    
   238  120  124 1    
   239  120  241 1    
   240  121  122 am   BACKBONE|DICT|INTERRES
   241  121  123 2    
   242  122  242 1    
   243  122  243 1    
   244  124  125 1    
   245  124  244 1    
   246  124  245 1    
   247  125  126 1    
   248  126  246 1    
   249  126  247 1    
@<TRIPOS>SUBSTRUCTURE
     1 UNK         1 GROUP             0       ****    0 ROOT    
