@<TRIPOS>MOLECULE
3R540
247   249    1
SMALL
USER_CHARGES


@<TRIPOS>ATOM
      1 CA          7.9498  -14.5149  -46.5473 C.3       0 UNK        -0.1800 
      2 C           6.4613  -14.6404  -46.8408 C.2       0 UNK         0.5000 
      3 O           5.7093  -15.1002  -45.9814 O.2       0 UNK        -0.5000 
      4 N           6.0492  -14.2350  -48.0498 N.am      1 UNK        -0.5000 
      5 CA          4.6897  -14.2952  -48.6037 C.3       1 UNK         0.1400 
      6 C6          4.6522  -13.7731  -50.0655 C.3       23 UNK        -0.0398 
      7 S7          5.7749  -14.6914  -51.1772 S.3       23 UNK        -0.2404 
      8 C8          4.6243  -15.3449  -52.4383 C.3       23 UNK        -0.0205 
      9 C9          3.5464  -16.2897  -51.9079 C.ar      23 UNK        -0.0193 
     10 C10         2.3082  -16.3437  -52.5589 C.ar      23 UNK        -0.1150 
     11 C11         1.3036  -17.2062  -52.1105 C.ar      23 UNK        -0.0193 
     12 C12         1.5448  -18.0219  -51.0057 C.ar      23 UNK        -0.1150 
     13 C13         2.7617  -17.9591  -50.3251 C.ar      23 UNK        -0.0193 
     14 C14         3.7671  -17.1129  -50.7961 C.ar      23 UNK        -0.1150 
     15 C15         2.9823  -18.7918  -49.0724 C.3       23 UNK        -0.0205 
     16 S16         2.4594  -17.9124  -47.5579 S.3       23 UNK        -0.2404 
     17 C17         0.6650  -17.6549  -47.8101 C.3       23 UNK        -0.0398 
     18 CA         -0.1554  -18.9694  -47.8008 C.3       11 UNK         0.1400 
     19 N          -0.2084  -19.5866  -46.4720 N.am      11 UNK        -0.5000 
     20 C          -0.6988  -20.8026  -46.1929 C.2       10 UNK         0.5000 
     21 O          -1.2376  -21.5299  -47.0266 O.2       10 UNK        -0.5000 
     22 CA         -0.5930  -21.2713  -44.7322 C.3       10 UNK         0.1400 
     23 CB          0.8539  -21.6422  -44.3702 C.3       10 UNK        -0.1800 
     24 N          -1.0853  -20.2502  -43.8106 N.am      10 UNK        -0.5000 
     25 C          -2.3828  -20.0239  -43.5636 C.2       9 UNK         0.5000 
     26 O          -3.2967  -20.7062  -44.0277 O.2       9 UNK        -0.5000 
     27 CA         -2.7237  -18.8202  -42.6626 C.3       9 UNK         0.1400 
     28 CB         -2.7289  -19.2382  -41.1845 C.3       9 UNK        -0.1800 
     29 N          -1.8193  -17.6827  -42.8378 N.am      9 UNK        -0.5000 
     30 C          -1.6500  -17.0115  -43.9857 C.2       8 UNK         0.5000 
     31 O          -2.2583  -17.2615  -45.0249 O.2       8 UNK        -0.5000 
     32 CA         -0.5707  -15.9177  -43.9941 C.3       8 UNK         0.1400 
     33 CB         -1.1075  -14.6150  -43.3839 C.3       8 UNK        -0.1800 
     34 N           0.6555  -16.3153  -43.3014 N.am      8 UNK        -0.5000 
     35 C           1.4137  -17.3761  -43.6113 C.2       7 UNK         0.5000 
     36 O           1.1498  -18.1610  -44.5170 O.2       7 UNK        -0.5000 
     37 CA          2.6420  -17.6343  -42.7278 C.3       7 UNK         0.1400 
     38 CB          3.7913  -16.6771  -43.0835 C.3       7 UNK        -0.1800 
     39 N           2.3016  -17.5167  -41.3113 N.am      7 UNK        -0.5000 
     40 C           1.5604  -18.4114  -40.6412 C.2       6 UNK         0.5000 
     41 O           1.1534  -19.4667  -41.1282 O.2       6 UNK        -0.5000 
     42 CA          1.1856  -18.0501  -39.1918 C.3       6 UNK         0.1400 
     43 CB          2.2915  -18.4908  -38.2211 C.3       6 UNK        -0.1800 
     44 N           0.9279  -16.6198  -39.0135 N.am      6 UNK        -0.5000 
     45 C          -0.1125  -15.9652  -39.5482 C.2       5 UNK         0.5000 
     46 O          -0.9832  -16.5046  -40.2313 O.2       5 UNK        -0.5000 
     47 CA         -0.1540  -14.4408  -39.3235 C.3       5 UNK         0.1400 
     48 CB         -0.8012  -14.1115  -37.9701 C.3       5 UNK        -0.1800 
     49 N           1.1629  -13.7965  -39.4051 N.am      5 UNK        -0.5000 
     50 C           1.9525  -13.8248  -40.4860 C.2       4 UNK         0.5000 
     51 O           1.6718  -14.4404  -41.5171 O.2       4 UNK        -0.5000 
     52 CA          3.2907  -13.0811  -40.3985 C.3       4 UNK         0.1400 
     53 CB          4.3082  -13.8722  -39.5594 C.3       4 UNK        -0.1800 
     54 N           3.7988  -12.9294  -41.7560 N.am      4 UNK        -0.5000 
     55 C           4.5000  -11.9000  -42.2348 C.2       3 UNK         0.5000 
     56 O           4.8862  -10.9576  -41.5418 O.2       3 UNK        -0.5000 
     57 CA          4.8303  -11.9199  -43.7421 C.3       3 UNK         0.1400 
     58 CB          6.3188  -12.2265  -43.9624 C.3       3 UNK        -0.1800 
     59 N           4.0316  -12.8666  -44.5312 N.am      3 UNK        -0.5000 
     60 C           2.7335  -12.7084  -44.8331 C.2       2 UNK         0.5000 
     61 O           2.0499  -11.7749  -44.4105 O.2       2 UNK        -0.5000 
     62 CA          2.1078  -13.7674  -45.7708 C.3       2 UNK         0.1400 
     63 CB          0.7872  -13.3033  -46.4199 C.3       2 UNK        -0.1800 
     64 N           3.0355  -14.2596  -46.7947 N.am      2 UNK        -0.5000 
     65 C           3.6782  -13.5328  -47.7216 C.2       1 UNK         0.5000 
     66 O           3.5331  -12.3180  -47.8721 O.2       1 UNK        -0.5000 
     67 C          -1.5433  -18.7671  -48.4425 C.2       11 UNK         0.5000 
     68 O          -1.6608  -18.8777  -49.6633 O.2       11 UNK        -0.5000 
     69 N          -2.5780  -18.5411  -47.6219 N.am      12 UNK        -0.5000 
     70 CA         -3.9795  -18.4587  -48.0409 C.3       12 UNK         0.1400 
     71 CB         -4.8326  -18.0136  -46.8426 C.3       12 UNK        -0.1800 
     72 C          -4.5471  -19.7620  -48.6441 C.2       12 UNK         0.5000 
     73 O          -5.5865  -19.7055  -49.3004 O.2       12 UNK        -0.5000 
     74 N          -3.8755  -20.8987  -48.4189 N.am      13 UNK        -0.5000 
     75 CA         -4.2566  -22.2173  -48.9159 C.3       13 UNK         0.1400 
     76 CB         -4.9472  -23.0007  -47.7839 C.3       13 UNK        -0.1800 
     77 C          -3.0378  -22.9570  -49.4961 C.2       13 UNK         0.5000 
     78 O          -2.9645  -24.1832  -49.3966 O.2       13 UNK        -0.5000 
     79 N          -2.1039  -22.2129  -50.1096 N.am      14 UNK        -0.5000 
     80 CA         -0.8607  -22.7294  -50.6955 C.3       14 UNK         0.1400 
     81 CB          0.0115  -21.5569  -51.1669 C.3       14 UNK        -0.1800 
     82 C          -1.0514  -23.7663  -51.8233 C.2       14 UNK         0.5000 
     83 O          -0.1444  -24.5637  -52.0642 O.2       14 UNK        -0.5000 
     84 N          -2.2301  -23.7767  -52.4614 N.am      15 UNK        -0.5000 
     85 CA         -2.6575  -24.7977  -53.4204 C.3       15 UNK         0.1400 
     86 CB         -3.9180  -24.2982  -54.1415 C.3       15 UNK        -0.1800 
     87 C          -2.9488  -26.1765  -52.7900 C.2       15 UNK         0.5000 
     88 O          -3.1600  -27.1334  -53.5348 O.2       15 UNK        -0.5000 
     89 N          -3.0355  -26.2520  -51.4519 N.am      16 UNK        -0.5000 
     90 CA         -3.3898  -27.4036  -50.6064 C.3       16 UNK         0.1400 
     91 CB         -2.4693  -28.6126  -50.8601 C.3       16 UNK        -0.1800 
     92 C          -4.8791  -27.7999  -50.6744 C.2       16 UNK         0.5000 
     93 O          -5.4278  -28.2577  -49.6720 O.2       16 UNK        -0.5000 
     94 N          -5.5228  -27.5716  -51.8266 N.am      17 UNK        -0.5000 
     95 CA         -6.9631  -27.7162  -52.0510 C.3       17 UNK         0.1400 
     96 CB         -7.2263  -27.6844  -53.5649 C.3       17 UNK        -0.1800 
     97 C          -7.8030  -26.6314  -51.3447 C.2       17 UNK         0.5000 
     98 O          -9.0141  -26.8037  -51.2035 O.2       17 UNK        -0.5000 
     99 N          -7.1524  -25.5278  -50.9440 N.am      18 UNK        -0.5000 
    100 CA        -7.6589  -24.3480  -50.2299 C.3       18 UNK         0.1400 
    101 CB        -8.2651  -24.7253  -48.8660 C.3       18 UNK        -0.1800 
    102 C         -8.6190  -23.4654  -51.0475 C.2       18 UNK         0.5000 
    103 O         -8.4472  -22.2474  -51.0595 O.2       18 UNK        -0.5000 
    104 N         -9.5748  -24.0793  -51.7556 N.am      19 UNK        -0.5000 
    105 CA       -10.5526  -23.4155  -52.6247 C.3       19 UNK         0.1400 
    106 CB       -11.5725  -24.4556  -53.1117 C.3       19 UNK        -0.1800 
    107 C         -9.9139  -22.6829  -53.8221 C.2       19 UNK         0.5000 
    108 O        -10.4612  -21.6846  -54.2908 O.2       19 UNK        -0.5000 
    109 N         -8.7543  -23.1794  -54.2722 N.am      20 UNK        -0.5000 
    110 CA        -7.9256  -22.5799  -55.3186 C.3       20 UNK         0.1400 
    111 CB        -7.1318  -23.7019  -56.0068 C.3       20 UNK        -0.1800 
    112 C         -6.9809  -21.4765  -54.7936 C.2       20 UNK         0.5000 
    113 O         -6.2886  -20.8539  -55.6008 O.2       20 UNK        -0.5000 
    114 N         -6.9512  -21.2562  -53.4691 N.am      21 UNK        -0.5000 
    115 CA        -6.1082  -20.3055  -52.7400 C.3       21 UNK         0.1400 
    116 CB        -6.5488  -18.8529  -53.0260 C.3       21 UNK        -0.1800 
    117 C         -4.6095  -20.5713  -52.9839 C.2       21 UNK         0.5000 
    118 O         -4.0851  -21.5524  -52.4546 O.2       21 UNK        -0.5000 
    119 N         -3.9611  -19.7163  -53.7847 N.am      22 UNK        -0.5000 
    120 CA        -2.5748  -19.8796  -54.2487 C.3       22 UNK         0.1400 
    121 C         -2.4256  -20.8133  -55.4882 C.2       22 UNK         0.5000 
    122 N         -3.4954  -21.1831  -56.1827 N.am      22 UNK        -0.7600 
    123 O         -1.3181  -21.2203  -55.8261 O.2       22 UNK        -0.5000 
    124 C124       -1.9018  -18.5004  -54.4939 C.3       23 UNK        -0.0398 
    125 S125       -0.1189  -18.5015  -54.0950 S.3       23 UNK        -0.2404 
    126 C126       -0.0569  -17.2419  -52.7866 C.3       23 UNK        -0.0205 
    127 H127        8.1099  -13.9840  -45.6096 H         1 UNK         0.0600 
    128 H128        8.4750  -13.9757  -47.3360 H         1 UNK         0.0600 
    129 H129        8.3955  -15.5054  -46.4565 H         1 UNK         0.0600 
    130 H130        6.7384  -13.8664  -48.6894 H         1 UNK         0.3000 
    131 H131        4.3925  -15.3452  -48.6141 H         1 UNK         0.0600 
    132 H132        4.9378  -12.7203  -50.1055 H         1 UNK         0.0800 
    133 H133        3.6352  -13.8231  -50.4585 H         1 UNK         0.0800 
    134 H134        4.1621  -14.4981  -52.9483 H         1 UNK         0.0800 
    135 H135        5.2049  -15.8780  -53.1920 H         1 UNK         0.0800 
    136 H136        2.1233  -15.7131  -53.4174 H         1 UNK         0.1150 
    137 H137        0.7665  -18.6839  -50.6588 H         1 UNK         0.1150 
    138 H138        4.7167  -17.0897  -50.2816 H         1 UNK         0.1150 
    139 H139        2.4687  -19.7495  -49.1553 H         1 UNK         0.0800 
    140 H140        4.0414  -19.0361  -48.9781 H         1 UNK         0.0800 
    141 H141        0.5252  -17.0950  -48.7348 H         1 UNK         0.0800 
    142 H142        0.3071  -16.9919  -47.0216 H         1 UNK         0.0800 
    143 H143        0.3503  -19.6902  -48.4399 H         1 UNK         0.0600 
    144 H144        0.2438  -19.0612  -45.7238 H         1 UNK         0.3000 
    145 H145       -1.2033  -22.1705  -44.6228 H         1 UNK         0.0600 
    146 H146        1.2301  -22.4263  -45.0283 H         1 UNK         0.0600 
    147 H147        1.5294  -20.7910  -44.4565 H         1 UNK         0.0600 
    148 H148        0.9193  -22.0153  -43.3480 H         1 UNK         0.0600 
    149 H149       -0.3969  -19.6246  -43.4138 H         1 UNK         0.3000 
    150 H150       -3.7290  -18.4864  -42.9276 H         1 UNK         0.0600 
    151 H151       -3.4004  -20.0813  -41.0174 H         1 UNK         0.0600 
    152 H152       -3.0670  -18.4220  -40.5457 H         1 UNK         0.0600 
    153 H153       -1.7349  -19.5359  -40.8484 H         1 UNK         0.0600 
    154 H154       -1.3086  -17.3768  -42.0152 H         1 UNK         0.3000 
    155 H155       -0.3107  -15.7238  -45.0354 H         1 UNK         0.0600 
    156 H156       -1.4226  -14.7558  -42.3502 H         1 UNK         0.0600 
    157 H157       -0.3524  -13.8288  -43.3962 H         1 UNK         0.0600 
    158 H158       -1.9696  -14.2496  -43.9429 H         1 UNK         0.0600 
    159 H159        0.9595  -15.7079  -42.5425 H         1 UNK         0.3000 
    160 H160        2.9838  -18.6543  -42.9175 H         1 UNK         0.0600 
    161 H161        3.5166  -15.6331  -42.9432 H         1 UNK         0.0600 
    162 H162        4.0850  -16.7963  -44.1275 H         1 UNK         0.0600 
    163 H163        4.6732  -16.8757  -42.4745 H         1 UNK         0.0600 
    164 H164        2.5466  -16.6518  -40.8537 H         1 UNK         0.3000 
    165 H165        0.2725  -18.5939  -38.9401 H         1 UNK         0.0600 
    166 H166        2.0028  -18.3088  -37.1858 H         1 UNK         0.0600 
    167 H167        2.4928  -19.5585  -38.3183 H         1 UNK         0.0600 
    168 H168        3.2270  -17.9618  -38.4075 H         1 UNK         0.0600 
    169 H169        1.5972  -16.0975  -38.4678 H         1 UNK         0.3000 
    170 H170       -0.7784  -14.0116  -40.1094 H         1 UNK         0.0600 
    171 H171       -1.7904  -14.5645  -37.8901 H         1 UNK         0.0600 
    172 H172       -0.2028  -14.4799  -37.1360 H         1 UNK         0.0600 
    173 H173       -0.9274  -13.0361  -37.8444 H         1 UNK         0.0600 
    174 H174        1.4627  -13.2802  -38.5905 H         1 UNK         0.3000 
    175 H175        3.1139  -12.1012  -39.9504 H         1 UNK         0.0600 
    176 H176        4.4887  -14.8640  -39.9761 H         1 UNK         0.0600 
    177 H177        5.2652  -13.3524  -39.5111 H         1 UNK         0.0600 
    178 H178        3.9592  -14.0025  -38.5345 H         1 UNK         0.0600 
    179 H179        3.4461  -13.6185  -42.4061 H         1 UNK         0.3000 
    180 H180        4.6347  -10.9154  -44.1229 H         1 UNK         0.0600 
    181 H181        6.5672  -13.2452  -43.6617 H         1 UNK         0.0600 
    182 H182        6.9514  -11.5495  -43.3867 H         1 UNK         0.0600 
    183 H183        6.5904  -12.1053  -45.0108 H         1 UNK         0.0600 
    184 H184        4.5286  -13.6545  -44.9331 H         1 UNK         0.3000 
    185 H185        1.8830  -14.6236  -45.1365 H         1 UNK         0.0600 
    186 H186        0.0473  -13.0360  -45.6656 H         1 UNK         0.0600 
    187 H187        0.9338  -12.4281  -47.0532 H         1 UNK         0.0600 
    188 H188        0.3524  -14.0920  -47.0339 H         1 UNK         0.0600 
    189 H189        3.2831  -15.2377  -46.7187 H         1 UNK         0.3000 
    190 H190       -2.3964  -18.3972  -46.6325 H         1 UNK         0.3000 
    191 H191       -4.0506  -17.6914  -48.8143 H         1 UNK         0.0600 
    192 H192       -4.7397  -18.7075  -46.0058 H         1 UNK         0.0600 
    193 H193       -5.8890  -17.9562  -47.1083 H         1 UNK         0.0600 
    194 H194       -4.5354  -17.0248  -46.4936 H         1 UNK         0.0600 
    195 H195       -3.0130  -20.8699  -47.8838 H         1 UNK         0.3000 
    196 H196       -4.9606  -22.1161  -49.7439 H         1 UNK         0.0600 
    197 H197       -5.2488  -23.9960  -48.1114 H         1 UNK         0.0600 
    198 H198       -5.8461  -22.4869  -47.4426 H         1 UNK         0.0600 
    199 H199       -4.2852  -23.1239  -46.9258 H         1 UNK         0.0600 
    200 H200       -2.2503  -21.2141  -50.1702 H         1 UNK         0.3000 
    201 H201       -0.3215  -23.2416  -49.8959 H         1 UNK         0.0600 
    202 H202        0.3580  -20.9714  -50.3186 H         1 UNK         0.0600 
    203 H203       -0.5286  -20.8893  -51.8361 H         1 UNK         0.0600 
    204 H204        0.8992  -21.9069  -51.6956 H         1 UNK         0.0600 
    205 H205       -2.9035  -23.0434  -52.2519 H         1 UNK         0.3000 
    206 H206       -1.8645  -24.9309  -54.1587 H         1 UNK         0.0600 
    207 H207       -4.2373  -25.0042  -54.9090 H         1 UNK         0.0600 
    208 H208       -4.7501  -24.1587  -53.4500 H         1 UNK         0.0600 
    209 H209       -3.7369  -23.3479  -54.6370 H         1 UNK         0.0600 
    210 H210       -2.8853  -25.3954  -50.9256 H         1 UNK         0.3000 
    211 H211       -3.2101  -27.0705  -49.5830 H         1 UNK         0.0600 
    212 H212       -2.6329  -29.0554  -51.8427 H         1 UNK         0.0600 
    213 H213       -2.6475  -29.3947  -50.1212 H         1 UNK         0.0600 
    214 H214       -1.4189  -28.3304  -50.7879 H         1 UNK         0.0600 
    215 H215       -4.9611  -27.2742  -52.6164 H         1 UNK         0.3000 
    216 H216       -7.2794  -28.6859  -51.6617 H         1 UNK         0.0600 
    217 H217       -6.9142  -26.7380  -54.0088 H         1 UNK         0.0600 
    218 H218       -8.2873  -27.8156  -53.7821 H         1 UNK         0.0600 
    219 H219       -6.6909  -28.4857  -54.0745 H         1 UNK         0.0600 
    220 H220       -6.1638  -25.5049  -51.1462 H         1 UNK         0.3000 
    221 H221       -6.7796  -23.7347  -50.0330 H         1 UNK         0.0600 
    222 H222       -9.1740  -25.3181  -48.9714 H         1 UNK         0.0600 
    223 H223       -7.5584  -25.2990  -48.2664 H         1 UNK         0.0600 
    224 H224       -8.5240  -23.8317  -48.2966 H         1 UNK         0.0600 
    225 H225       -9.6338  -25.0914  -51.6759 H         1 UNK         0.3000 
    226 H226      -11.0798  -22.6696  -52.0263 H         1 UNK         0.0600 
    227 H227      -12.0905  -24.9220  -52.2735 H         1 UNK         0.0600 
    228 H228      -12.3308  -23.9939  -53.7455 H         1 UNK         0.0600 
    229 H229      -11.0944  -25.2459  -53.6920 H         1 UNK         0.0600 
    230 H230       -8.3903  -24.0078  -53.8259 H         1 UNK         0.3000 
    231 H231       -8.5714  -22.1162  -56.0673 H         1 UNK         0.0600 
    232 H232       -6.4708  -23.3064  -56.7792 H         1 UNK         0.0600 
    233 H233       -7.8004  -24.4152  -56.4890 H         1 UNK         0.0600 
    234 H234       -6.5173  -24.2520  -55.2957 H         1 UNK         0.0600 
    235 H235       -7.5660  -21.8040  -52.8793 H         1 UNK         0.3000 
    236 H236       -6.2832  -20.4991  -51.6820 H         1 UNK         0.0600 
    237 H237       -7.5852  -18.6996  -52.7248 H         1 UNK         0.0600 
    238 H238       -5.9439  -18.1426  -52.4607 H         1 UNK         0.0600 
    239 H239       -6.4733  -18.5920  -54.0819 H         1 UNK         0.0600 
    240 H240       -4.4882  -18.9662  -54.2069 H         1 UNK         0.3000 
    241 H241       -2.0349  -20.3762  -53.4426 H         1 UNK         0.0600 
    242 H242       -4.4337  -20.8989  -55.9131 H         1 UNK         0.3800 
    243 H243       -3.3738  -21.7822  -56.9827 H         1 UNK         0.3800 
    244 H244       -2.0359  -18.1673  -55.5248 H         1 UNK         0.0800 
    245 H245       -2.3845  -17.7359  -53.8835 H         1 UNK         0.0800 
    246 H246       -0.2935  -16.2649  -53.2109 H         1 UNK         0.0800 
    247 H247       -0.8280  -17.4522  -52.0429 H         1 UNK         0.0800 
@<TRIPOS>BOND
     1    1    2 1    
     2    1  127 1    
     3    1  128 1    
     4    1  129 1    
     5    2    3 2    
     6    2    4 am   BACKBONE|DICT|INTERRES
     7    4    5 1    
     8    4  130 1    
     9    5    6 1    
    10    5   65 1    
    11    5  131 1    
    12    6    7 1    
    13    6  132 1    
    14    6  133 1    
    15    7    8 1    
    16    8    9 1    
    17    8  134 1    
    18    8  135 1    
    19    9   10 ar   
    20    9   14 ar   
    21   10   11 ar   
    22   10  136 1    
    23   11   12 ar   
    24   11  126 1    
    25   12   13 ar   
    26   12  137 1    
    27   13   14 ar   
    28   13   15 1    
    29   14  138 1    
    30   15   16 1    
    31   15  139 1    
    32   15  140 1    
    33   16   17 1    
    34   17   18 1    
    35   17  141 1    
    36   17  142 1    
    37   18   19 1    
    38   18   67 1    
    39   18  143 1    
    40   19   20 am   BACKBONE|DICT|INTERRES
    41   19  144 1    
    42   20   21 2    
    43   20   22 1    
    44   22   23 1    
    45   22   24 1    
    46   22  145 1    
    47   23  146 1    
    48   23  147 1    
    49   23  148 1    
    50   24   25 am   BACKBONE|DICT|INTERRES
    51   24  149 1    
    52   25   26 2    
    53   25   27 1    
    54   27   28 1    
    55   27   29 1    
    56   27  150 1    
    57   28  151 1    
    58   28  152 1    
    59   28  153 1    
    60   29   30 am   BACKBONE|DICT|INTERRES
    61   29  154 1    
    62   30   31 2    
    63   30   32 1    
    64   32   33 1    
    65   32   34 1    
    66   32  155 1    
    67   33  156 1    
    68   33  157 1    
    69   33  158 1    
    70   34   35 am   BACKBONE|DICT|INTERRES
    71   34  159 1    
    72   35   36 2    
    73   35   37 1    
    74   37   38 1    
    75   37   39 1    
    76   37  160 1    
    77   38  161 1    
    78   38  162 1    
    79   38  163 1    
    80   39   40 am   BACKBONE|DICT|INTERRES
    81   39  164 1    
    82   40   41 2    
    83   40   42 1    
    84   42   43 1    
    85   42   44 1    
    86   42  165 1    
    87   43  166 1    
    88   43  167 1    
    89   43  168 1    
    90   44   45 am   BACKBONE|DICT|INTERRES
    91   44  169 1    
    92   45   46 2    
    93   45   47 1    
    94   47   48 1    
    95   47   49 1    
    96   47  170 1    
    97   48  171 1    
    98   48  172 1    
    99   48  173 1    
   100   49   50 am   BACKBONE|DICT|INTERRES
   101   49  174 1    
   102   50   51 2    
   103   50   52 1    
   104   52   53 1    
   105   52   54 1    
   106   52  175 1    
   107   53  176 1    
   108   53  177 1    
   109   53  178 1    
   110   54   55 am   BACKBONE|DICT|INTERRES
   111   54  179 1    
   112   55   56 2    
   113   55   57 1    
   114   57   58 1    
   115   57   59 1    
   116   57  180 1    
   117   58  181 1    
   118   58  182 1    
   119   58  183 1    
   120   59   60 am   BACKBONE|DICT|INTERRES
   121   59  184 1    
   122   60   61 2    
   123   60   62 1    
   124   62   63 1    
   125   62   64 1    
   126   62  185 1    
   127   63  186 1    
   128   63  187 1    
   129   63  188 1    
   130   64   65 am   BACKBONE|DICT|INTERRES
   131   64  189 1    
   132   65   66 2    
   133   67   68 2    
   134   67   69 am   BACKBONE|DICT|INTERRES
   135   69   70 1    
   136   69  190 1    
   137   70   71 1    
   138   70   72 1    
   139   70  191 1    
   140   71  192 1    
   141   71  193 1    
   142   71  194 1    
   143   72   73 2    
   144   72   74 am   BACKBONE|DICT|INTERRES
   145   74   75 1    
   146   74  195 1    
   147   75   76 1    
   148   75   77 1    
   149   75  196 1    
   150   76  197 1    
   151   76  198 1    
   152   76  199 1    
   153   77   78 2    
   154   77   79 am   BACKBONE|DICT|INTERRES
   155   79   80 1    
   156   79  200 1    
   157   80   81 1    
   158   80   82 1    
   159   80  201 1    
   160   81  202 1    
   161   81  203 1    
   162   81  204 1    
   163   82   83 2    
   164   82   84 am   BACKBONE|DICT|INTERRES
   165   84   85 1    
   166   84  205 1    
   167   85   86 1    
   168   85   87 1    
   169   85  206 1    
   170   86  207 1    
   171   86  208 1    
   172   86  209 1    
   173   87   88 2    
   174   87   89 am   BACKBONE|DICT|INTERRES
   175   89   90 1    
   176   89  210 1    
   177   90   91 1    
   178   90   92 1    
   179   90  211 1    
   180   91  212 1    
   181   91  213 1    
   182   91  214 1    
   183   92   93 2    
   184   92   94 am   BACKBONE|DICT|INTERRES
   185   94   95 1    
   186   94  215 1    
   187   95   96 1    
   188   95   97 1    
   189   95  216 1    
   190   96  217 1    
   191   96  218 1    
   192   96  219 1    
   193   97   98 2    
   194   97   99 am   BACKBONE|DICT|INTERRES
   195   99  100 1    
   196   99  220 1    
   197  100  101 1    
   198  100  102 1    
   199  100  221 1    
   200  101  222 1    
   201  101  223 1    
   202  101  224 1    
   203  102  103 2    
   204  102  104 am   BACKBONE|DICT|INTERRES
   205  104  105 1    
   206  104  225 1    
   207  105  106 1    
   208  105  107 1    
   209  105  226 1    
   210  106  227 1    
   211  106  228 1    
   212  106  229 1    
   213  107  108 2    
   214  107  109 am   BACKBONE|DICT|INTERRES
   215  109  110 1    
   216  109  230 1    
   217  110  111 1    
   218  110  112 1    
   219  110  231 1    
   220  111  232 1    
   221  111  233 1    
   222  111  234 1    
   223  112  113 2    
   224  112  114 am   BACKBONE|DICT|INTERRES
   225  114  115 1    
   226  114  235 1    
   227  115  116 1    
   228  115  117 1    
   229  115  236 1    
   230  116  237 1    
   231  116  238 1    
   232  116  239 1    
   233  117  118 2    
   234  117  119 am   BACKBONE|DICT|INTERRES
   235  119  120 1    
   236  119  240 1    
   237  120  121 1    
   238  120  124 1    
   239  120  241 1    
   240  121  122 am   BACKBONE|DICT|INTERRES
   241  121  123 2    
   242  122  242 1    
   243  122  243 1    
   244  124  125 1    
   245  124  244 1    
   246  124  245 1    
   247  125  126 1    
   248  126  246 1    
   249  126  247 1    
@<TRIPOS>SUBSTRUCTURE
     1 UNK         1 GROUP             0       ****    0 ROOT    
