@<TRIPOS>MOLECULE
3R540
247   249    1
SMALL
USER_CHARGES


@<TRIPOS>ATOM
      1 CA         -2.8731  -16.5052  -47.9593 C.3       0 UNK        -0.1800 
      2 C          -2.3605  -15.2186  -47.3292 C.2       0 UNK         0.5000 
      3 O          -3.1468  -14.4539  -46.7684 O.2       0 UNK        -0.5000 
      4 N          -1.0476  -14.9724  -47.4162 N.am      1 UNK        -0.5000 
      5 CA         -0.3556  -13.7867  -46.8941 C.3       1 UNK         0.1400 
      6 C6          0.9962  -13.5466  -47.6141 C.3       23 UNK        -0.0398 
      7 S7          0.7931  -13.1448  -49.3800 S.3       23 UNK        -0.2404 
      8 C8          1.7682  -14.4561  -50.1899 C.3       23 UNK        -0.0205 
      9 C9          0.9912  -15.7521  -50.3864 C.ar      23 UNK        -0.0193 
     10 C10        -0.2120  -15.7432  -51.1013 C.ar      23 UNK        -0.1150 
     11 C11        -0.8945  -16.9331  -51.3607 C.ar      23 UNK        -0.0193 
     12 C12        -0.3488  -18.1400  -50.9247 C.ar      23 UNK        -0.1150 
     13 C13         0.8357  -18.1692  -50.1834 C.ar      23 UNK        -0.0193 
     14 C14         1.5007  -16.9681  -49.9125 C.ar      23 UNK        -0.1150 
     15 C15         1.4024  -19.5076  -49.7168 C.3       23 UNK        -0.0205 
     16 S16         0.8183  -20.0114  -48.0575 S.3       23 UNK        -0.2404 
     17 C17        -0.9917  -19.9094  -48.2485 C.3       23 UNK        -0.0398 
     18 CA         -1.8394  -20.9480  -47.4813 C.3       11 UNK         0.1400 
     19 N          -1.5474  -20.9901  -46.0455 N.am      11 UNK        -0.5000 
     20 C          -2.0687  -21.8733  -45.1793 C.2       10 UNK         0.5000 
     21 O          -2.8169  -22.7919  -45.5179 O.2       10 UNK        -0.5000 
     22 CA         -1.7802  -21.6576  -43.6799 C.3       10 UNK         0.1400 
     23 CB         -0.6633  -22.5968  -43.2038 C.3       10 UNK        -0.1800 
     24 N          -1.4374  -20.2767  -43.3296 N.am      10 UNK        -0.5000 
     25 C          -2.2198  -19.2056  -43.5320 C.2       9 UNK         0.5000 
     26 O          -3.3448  -19.2642  -44.0274 O.2       9 UNK        -0.5000 
     27 CA         -1.6148  -17.8367  -43.1782 C.3       9 UNK         0.1400 
     28 CB         -1.8338  -17.5255  -41.6878 C.3       9 UNK        -0.1800 
     29 N          -0.1880  -17.7672  -43.5070 N.am      9 UNK        -0.5000 
     30 C           0.3048  -17.8160  -44.7544 C.2       8 UNK         0.5000 
     31 O          -0.4070  -17.8054  -45.7566 O.2       8 UNK        -0.5000 
     32 CA          1.8313  -17.9521  -44.9150 C.3       8 UNK         0.1400 
     33 CB          2.5038  -16.5908  -45.1190 C.3       8 UNK        -0.1800 
     34 N           2.4419  -18.6189  -43.7676 N.am      8 UNK        -0.5000 
     35 C           2.5423  -19.9479  -43.6295 C.2       7 UNK         0.5000 
     36 O           2.1971  -20.7534  -44.4924 O.2       7 UNK        -0.5000 
     37 CA          3.1033  -20.4668  -42.2906 C.3       7 UNK         0.1400 
     38 CB          4.6233  -20.6669  -42.3860 C.3       7 UNK        -0.1800 
     39 N           2.8085  -19.5770  -41.1654 N.am      7 UNK        -0.5000 
     40 C           1.5803  -19.3422  -40.6820 C.2       6 UNK         0.5000 
     41 O           0.5692  -19.9079  -41.0966 O.2       6 UNK        -0.5000 
     42 CA          1.4588  -18.2457  -39.6036 C.3       6 UNK         0.1400 
     43 CB          1.5952  -18.8530  -38.2000 C.3       6 UNK        -0.1800 
     44 N           2.4444  -17.1702  -39.7672 N.am      6 UNK        -0.5000 
     45 C           2.4970  -16.3437  -40.8204 C.2       5 UNK         0.5000 
     46 O           1.6842  -16.3688  -41.7471 O.2       5 UNK        -0.5000 
     47 CA          3.7102  -15.4084  -40.8957 C.3       5 UNK         0.1400 
     48 CB          4.9503  -16.2160  -41.3374 C.3       5 UNK        -0.1800 
     49 N           3.4360  -14.3340  -41.8481 N.am      5 UNK        -0.5000 
     50 C           4.2115  -13.2632  -42.0602 C.2       4 UNK         0.5000 
     51 O           5.2394  -13.0236  -41.4250 O.2       4 UNK        -0.5000 
     52 CA          3.7670  -12.2898  -43.1646 C.3       4 UNK         0.1400 
     53 CB          4.0879  -12.8567  -44.5572 C.3       4 UNK        -0.1800 
     54 N           2.3444  -11.9626  -43.0771 N.am      4 UNK        -0.5000 
     55 C           1.8325  -11.0848  -42.2001 C.2       3 UNK         0.5000 
     56 O           2.5138  -10.4767  -41.3733 O.2       3 UNK        -0.5000 
     57 CA          0.3149  -10.8108  -42.2563 C.3       3 UNK         0.1400 
     58 CB          0.0339   -9.5108  -43.0257 C.3       3 UNK        -0.1800 
     59 N          -0.4523  -11.8933  -42.8692 N.am      3 UNK        -0.5000 
     60 C          -0.6508  -13.0950  -42.3143 C.2       2 UNK         0.5000 
     61 O          -0.2784  -13.3907  -41.1786 O.2       2 UNK        -0.5000 
     62 CA         -1.3675  -14.1530  -43.1752 C.3       2 UNK         0.1400 
     63 CB         -2.8419  -14.2723  -42.7594 C.3       2 UNK        -0.1800 
     64 N          -1.3006  -13.9474  -44.6262 N.am      2 UNK        -0.5000 
     65 C          -0.1834  -13.8593  -45.3588 C.2       1 UNK         0.5000 
     66 O           0.9411  -13.8266  -44.8593 O.2       1 UNK        -0.5000 
     67 C          -3.3283  -20.6730  -47.7990 C.2       11 UNK         0.5000 
     68 O          -3.7476  -20.9292  -48.9245 O.2       11 UNK        -0.5000 
     69 N          -4.1017  -20.1445  -46.8376 N.am      12 UNK        -0.5000 
     70 CA         -5.5471  -19.9611  -46.9746 C.3       12 UNK         0.1400 
     71 CB         -6.0412  -18.9972  -45.8860 C.3       12 UNK        -0.1800 
     72 C          -6.3243  -21.2924  -46.9136 C.2       12 UNK         0.5000 
     73 O          -7.4366  -21.3605  -47.4379 O.2       12 UNK        -0.5000 
     74 N          -5.7373  -22.3139  -46.2740 N.am      13 UNK        -0.5000 
     75 CA         -6.3098  -23.6506  -46.1308 C.3       13 UNK         0.1400 
     76 CB         -6.1409  -24.1152  -44.6749 C.3       13 UNK        -0.1800 
     77 C          -5.6477  -24.6452  -47.0975 C.2       13 UNK         0.5000 
     78 O          -6.3524  -25.4074  -47.7607 O.2       13 UNK        -0.5000 
     79 N          -4.3098  -24.6330  -47.1524 N.am      14 UNK        -0.5000 
     80 CA         -3.5046  -25.5084  -48.0016 C.3       14 UNK         0.1400 
     81 CB         -2.0665  -25.5217  -47.4574 C.3       14 UNK        -0.1800 
     82 C          -3.5034  -25.0515  -49.4704 C.2       14 UNK         0.5000 
     83 O          -3.6432  -23.8610  -49.7498 O.2       14 UNK        -0.5000 
     84 N          -3.2380  -25.9890  -50.3882 N.am      15 UNK        -0.5000 
     85 CA         -2.9900  -25.7290  -51.8119 C.3       15 UNK         0.1400 
     86 CB         -3.3629  -26.9872  -52.6176 C.3       15 UNK        -0.1800 
     87 C          -1.5329  -25.2739  -52.0602 C.2       15 UNK         0.5000 
     88 O          -0.8636  -25.7836  -52.9610 O.2       15 UNK        -0.5000 
     89 N          -1.0519  -24.3490  -51.2220 N.am      16 UNK        -0.5000 
     90 CA          0.2909  -23.7844  -51.2649 C.3       16 UNK         0.1400 
     91 CB          0.5918  -23.1287  -49.9130 C.3       16 UNK        -0.1800 
     92 C           0.4092  -22.7732  -52.4153 C.2       16 UNK         0.5000 
     93 O          -0.4886  -21.9480  -52.5990 O.2       16 UNK        -0.5000 
     94 N           1.5036  -22.8804  -53.1796 N.am      17 UNK        -0.5000 
     95 CA          1.8133  -22.1885  -54.4389 C.3       17 UNK         0.1400 
     96 CB          1.8036  -20.6555  -54.2837 C.3       17 UNK        -0.1800 
     97 C           0.9376  -22.6569  -55.6200 C.2       17 UNK         0.5000 
     98 O           1.4799  -22.9722  -56.6797 O.2       17 UNK        -0.5000 
     99 N          -0.3789  -22.7462  -55.4079 N.am      18 UNK        -0.5000 
    100 CA        -1.3670  -23.3386  -56.3025 C.3       18 UNK         0.1400 
    101 CB        -1.6216  -22.4353  -57.5263 C.3       18 UNK        -0.1800 
    102 C         -2.6581  -23.6057  -55.5123 C.2       18 UNK         0.5000 
    103 O         -2.8146  -23.1134  -54.3900 O.2       18 UNK        -0.5000 
    104 N         -3.5634  -24.3827  -56.1179 N.am      19 UNK        -0.5000 
    105 CA        -4.8749  -24.7356  -55.5729 C.3       19 UNK         0.1400 
    106 CB        -5.5471  -25.7395  -56.5223 C.3       19 UNK        -0.1800 
    107 C         -5.7885  -23.5165  -55.3399 C.2       19 UNK         0.5000 
    108 O         -5.6091  -22.4733  -55.9741 O.2       19 UNK        -0.5000 
    109 N         -6.7605  -23.6891  -54.4322 N.am      20 UNK        -0.5000 
    110 CA        -7.7609  -22.6961  -54.0186 C.3       20 UNK         0.1400 
    111 CB        -8.7497  -22.4108  -55.1692 C.3       20 UNK        -0.1800 
    112 C         -7.1311  -21.4147  -53.4288 C.2       20 UNK         0.5000 
    113 O         -7.6311  -20.3160  -53.6735 O.2       20 UNK        -0.5000 
    114 N         -6.0425  -21.6009  -52.6652 N.am      21 UNK        -0.5000 
    115 CA        -5.1960  -20.5780  -52.0462 C.3       21 UNK         0.1400 
    116 CB        -5.9803  -19.7733  -50.9871 C.3       21 UNK        -0.1800 
    117 C         -4.5205  -19.6839  -53.1042 C.2       21 UNK         0.5000 
    118 O         -4.9198  -18.5333  -53.2865 O.2       21 UNK        -0.5000 
    119 N         -3.5169  -20.2541  -53.7828 N.am      22 UNK        -0.5000 
    120 CA        -2.6741  -19.6279  -54.8154 C.3       22 UNK         0.1400 
    121 C         -3.4097  -19.1613  -56.1092 C.2       22 UNK         0.5000 
    122 N         -4.5382  -19.7585  -56.4726 N.am      22 UNK        -0.7600 
    123 O         -2.9331  -18.2887  -56.8298 O.2       22 UNK        -0.5000 
    124 C124       -1.6002  -18.6469  -54.2515 C.3       23 UNK        -0.0398 
    125 S125       -2.1079  -16.9272  -53.8814 S.3       23 UNK        -0.2404 
    126 C126       -2.2431  -16.9164  -52.0649 C.3       23 UNK        -0.0205 
    127 H127       -2.1768  -16.8830  -48.7071 H         1 UNK         0.0600 
    128 H128       -3.8308  -16.3336  -48.4505 H         1 UNK         0.0600 
    129 H129       -3.0120  -17.2679  -47.1928 H         1 UNK         0.0600 
    130 H130       -0.4545  -15.6561  -47.8646 H         1 UNK         0.3000 
    131 H131       -0.9844  -12.9149  -47.0875 H         1 UNK         0.0600 
    132 H132        1.6504  -14.4113  -47.5030 H         1 UNK         0.0800 
    133 H133        1.5277  -12.7067  -47.1623 H         1 UNK         0.0800 
    134 H134        2.6911  -14.6272  -49.6337 H         1 UNK         0.0800 
    135 H135        2.0739  -14.0950  -51.1727 H         1 UNK         0.0800 
    136 H136       -0.6169  -14.8067  -51.4588 H         1 UNK         0.1150 
    137 H137       -0.8602  -19.0622  -51.1568 H         1 UNK         0.1150 
    138 H138        2.4294  -16.9862  -49.3596 H         1 UNK         0.1150 
    139 H139        1.1468  -20.2827  -50.4401 H         1 UNK         0.0800 
    140 H140        2.4921  -19.4604  -49.7032 H         1 UNK         0.0800 
    141 H141       -1.2173  -20.0356  -49.3043 H         1 UNK         0.0800 
    142 H142       -1.2868  -18.8954  -47.9829 H         1 UNK         0.0800 
    143 H143       -1.6103  -21.9379  -47.8802 H         1 UNK         0.0600 
    144 H144       -0.9525  -20.2524  -45.6939 H         1 UNK         0.3000 
    145 H145       -2.6925  -21.9123  -43.1371 H         1 UNK         0.0600 
    146 H146       -0.4824  -22.4872  -42.1343 H         1 UNK         0.0600 
    147 H147        0.2739  -22.4030  -43.7247 H         1 UNK         0.0600 
    148 H148       -0.9278  -23.6395  -43.3844 H         1 UNK         0.0600 
    149 H149       -0.5524  -20.1360  -42.8552 H         1 UNK         0.3000 
    150 H150       -2.1289  -17.0803  -43.7736 H         1 UNK         0.0600 
    151 H151       -2.8898  -17.3405  -41.4880 H         1 UNK         0.0600 
    152 H152       -1.2816  -16.6437  -41.3649 H         1 UNK         0.0600 
    153 H153       -1.5294  -18.3544  -41.0498 H         1 UNK         0.0600 
    154 H154        0.4605  -17.6792  -42.7343 H         1 UNK         0.3000 
    155 H155        2.0165  -18.5440  -45.8127 H         1 UNK         0.0600 
    156 H156        2.0855  -16.0837  -45.9869 H         1 UNK         0.0600 
    157 H157        3.5744  -16.6999  -45.2914 H         1 UNK         0.0600 
    158 H158        2.3690  -15.9410  -44.2557 H         1 UNK         0.0600 
    159 H159        2.7095  -18.0257  -42.9960 H         1 UNK         0.3000 
    160 H160        2.6397  -21.4353  -42.0902 H         1 UNK         0.0600 
    161 H161        5.1434  -19.7251  -42.5658 H         1 UNK         0.0600 
    162 H162        4.8771  -21.3435  -43.2032 H         1 UNK         0.0600 
    163 H163        5.0223  -21.1023  -41.4697 H         1 UNK         0.0600 
    164 H164        3.5884  -19.0818  -40.7599 H         1 UNK         0.3000 
    165 H165        0.4641  -17.8046  -39.6890 H         1 UNK         0.0600 
    166 H166        1.4340  -18.1009  -37.4275 H         1 UNK         0.0600 
    167 H167        0.8575  -19.6412  -38.0430 H         1 UNK         0.0600 
    168 H168        2.5819  -19.2906  -38.0433 H         1 UNK         0.0600 
    169 H169        3.1496  -17.0946  -39.0479 H         1 UNK         0.3000 
    170 H170        3.8776  -14.9732  -39.9087 H         1 UNK         0.0600 
    171 H171        4.8259  -16.6224  -42.3422 H         1 UNK         0.0600 
    172 H172        5.8526  -15.6053  -41.3367 H         1 UNK         0.0600 
    173 H173        5.1407  -17.0535  -40.6655 H         1 UNK         0.0600 
    174 H174        2.5807  -14.4527  -42.3777 H         1 UNK         0.3000 
    175 H175        4.3411  -11.3679  -43.0478 H         1 UNK         0.0600 
    176 H176        3.7895  -12.1642  -45.3443 H         1 UNK         0.0600 
    177 H177        5.1585  -13.0332  -44.6666 H         1 UNK         0.0600 
    178 H178        3.5830  -13.8052  -44.7378 H         1 UNK         0.0600 
    179 H179        1.7247  -12.4655  -43.7055 H         1 UNK         0.3000 
    180 H180       -0.0342  -10.6824  -41.2295 H         1 UNK         0.0600 
    181 H181       -1.0284   -9.2658  -43.0129 H         1 UNK         0.0600 
    182 H182        0.3506   -9.5832  -44.0670 H         1 UNK         0.0600 
    183 H183        0.5651   -8.6693  -42.5789 H         1 UNK         0.0600 
    184 H184       -0.7957  -11.7372  -43.8051 H         1 UNK         0.3000 
    185 H185       -0.8617  -15.0958  -42.9741 H         1 UNK         0.0600 
    186 H186       -3.3857  -13.3462  -42.9494 H         1 UNK         0.0600 
    187 H187       -3.3472  -15.0713  -43.3016 H         1 UNK         0.0600 
    188 H188       -2.9326  -14.4943  -41.6953 H         1 UNK         0.0600 
    189 H189       -2.1790  -13.9896  -45.1351 H         1 UNK         0.3000 
    190 H190       -3.6999  -19.9180  -45.9333 H         1 UNK         0.3000 
    191 H191       -5.7470  -19.5014  -47.9443 H         1 UNK         0.0600 
    192 H192       -5.5043  -18.0490  -45.9235 H         1 UNK         0.0600 
    193 H193       -5.9119  -19.4175  -44.8880 H         1 UNK         0.0600 
    194 H194       -7.1017  -18.7768  -46.0132 H         1 UNK         0.0600 
    195 H195       -4.7988  -22.1867  -45.9160 H         1 UNK         0.3000 
    196 H196       -7.3791  -23.6327  -46.3516 H         1 UNK         0.0600 
    197 H197       -6.6635  -23.4493  -43.9880 H         1 UNK         0.0600 
    198 H198       -5.0921  -24.1456  -44.3766 H         1 UNK         0.0600 
    199 H199       -6.5522  -25.1155  -44.5341 H         1 UNK         0.0600 
    200 H200       -3.7961  -23.9643  -46.5852 H         1 UNK         0.3000 
    201 H201       -3.9101  -26.5210  -47.9479 H         1 UNK         0.0600 
    202 H202       -2.0398  -25.8622  -46.4221 H         1 UNK         0.0600 
    203 H203       -1.6142  -24.5296  -47.4931 H         1 UNK         0.0600 
    204 H204       -1.4307  -26.1926  -48.0366 H         1 UNK         0.0600 
    205 H205       -3.0885  -26.9397  -50.0816 H         1 UNK         0.3000 
    206 H206       -3.6365  -24.9157  -52.1488 H         1 UNK         0.0600 
    207 H207       -3.2034  -26.8354  -53.6857 H         1 UNK         0.0600 
    208 H208       -2.7635  -27.8476  -52.3179 H         1 UNK         0.0600 
    209 H209       -4.4131  -27.2453  -52.4808 H         1 UNK         0.0600 
    210 H210       -1.7022  -23.9301  -50.5683 H         1 UNK         0.3000 
    211 H211        1.0047  -24.5963  -51.4201 H         1 UNK         0.0600 
    212 H212       -0.1124  -22.3247  -49.7052 H         1 UNK         0.0600 
    213 H213        1.5968  -22.7057  -49.8952 H         1 UNK         0.0600 
    214 H214        0.5269  -23.8498  -49.0979 H         1 UNK         0.0600 
    215 H215        2.1648  -23.6055  -52.9374 H         1 UNK         0.3000 
    216 H216        2.8378  -22.4763  -54.6808 H         1 UNK         0.0600 
    217 H217        0.8062  -20.2706  -54.0821 H         1 UNK         0.0600 
    218 H218        2.4555  -20.3367  -53.4704 H         1 UNK         0.0600 
    219 H219        2.1576  -20.1723  -55.1949 H         1 UNK         0.0600 
    220 H220       -0.7400  -22.5008  -54.4877 H         1 UNK         0.3000 
    221 H221       -0.9842  -24.3030  -56.6423 H         1 UNK         0.0600 
    222 H222       -2.3732  -22.8682  -58.1871 H         1 UNK         0.0600 
    223 H223       -1.9754  -21.4476  -57.2393 H         1 UNK         0.0600 
    224 H224       -0.7177  -22.3026  -58.1203 H         1 UNK         0.0600 
    225 H225       -3.3682  -24.7181  -57.0495 H         1 UNK         0.3000 
    226 H226       -4.7125  -25.2212  -54.6097 H         1 UNK         0.0600 
    227 H227       -4.9381  -26.6352  -56.6459 H         1 UNK         0.0600 
    228 H228       -6.5160  -26.0599  -56.1371 H         1 UNK         0.0600 
    229 H229       -5.7144  -25.3070  -57.5097 H         1 UNK         0.0600 
    230 H230       -6.8309  -24.5857  -53.9714 H         1 UNK         0.3000 
    231 H231       -8.3287  -23.1524  -53.2065 H         1 UNK         0.0600 
    232 H232       -9.1839  -23.3336  -55.5539 H         1 UNK         0.0600 
    233 H233       -8.2674  -21.8952  -56.0002 H         1 UNK         0.0600 
    234 H234       -9.5743  -21.7829  -54.8300 H         1 UNK         0.0600 
    235 H235       -5.7163  -22.5496  -52.5523 H         1 UNK         0.3000 
    236 H236       -4.3997  -21.1117  -51.5247 H         1 UNK         0.0600 
    237 H237       -6.4022  -20.4333  -50.2292 H         1 UNK         0.0600 
    238 H238       -5.3224  -19.0699  -50.4756 H         1 UNK         0.0600 
    239 H239       -6.7963  -19.1967  -51.4227 H         1 UNK         0.0600 
    240 H240       -3.3069  -21.2323  -53.6125 H         1 UNK         0.3000 
    241 H241       -2.0889  -20.4729  -55.1725 H         1 UNK         0.0600 
    242 H242       -4.9986  -19.4609  -57.3172 H         1 UNK         0.3800 
    243 H243       -4.9058  -20.5560  -55.9650 H         1 UNK         0.3800 
    244 H244       -0.7899  -18.5690  -54.9777 H         1 UNK         0.0800 
    245 H245       -1.1407  -19.0916  -53.3720 H         1 UNK         0.0800 
    246 H246       -2.7940  -16.0236  -51.7657 H         1 UNK         0.0800 
    247 H247       -2.8467  -17.7607  -51.7327 H         1 UNK         0.0800 
@<TRIPOS>BOND
     1    1    2 1    
     2    1  127 1    
     3    1  128 1    
     4    1  129 1    
     5    2    3 2    
     6    2    4 am   BACKBONE|DICT|INTERRES
     7    4    5 1    
     8    4  130 1    
     9    5    6 1    
    10    5   65 1    
    11    5  131 1    
    12    6    7 1    
    13    6  132 1    
    14    6  133 1    
    15    7    8 1    
    16    8    9 1    
    17    8  134 1    
    18    8  135 1    
    19    9   10 ar   
    20    9   14 ar   
    21   10   11 ar   
    22   10  136 1    
    23   11   12 ar   
    24   11  126 1    
    25   12   13 ar   
    26   12  137 1    
    27   13   14 ar   
    28   13   15 1    
    29   14  138 1    
    30   15   16 1    
    31   15  139 1    
    32   15  140 1    
    33   16   17 1    
    34   17   18 1    
    35   17  141 1    
    36   17  142 1    
    37   18   19 1    
    38   18   67 1    
    39   18  143 1    
    40   19   20 am   BACKBONE|DICT|INTERRES
    41   19  144 1    
    42   20   21 2    
    43   20   22 1    
    44   22   23 1    
    45   22   24 1    
    46   22  145 1    
    47   23  146 1    
    48   23  147 1    
    49   23  148 1    
    50   24   25 am   BACKBONE|DICT|INTERRES
    51   24  149 1    
    52   25   26 2    
    53   25   27 1    
    54   27   28 1    
    55   27   29 1    
    56   27  150 1    
    57   28  151 1    
    58   28  152 1    
    59   28  153 1    
    60   29   30 am   BACKBONE|DICT|INTERRES
    61   29  154 1    
    62   30   31 2    
    63   30   32 1    
    64   32   33 1    
    65   32   34 1    
    66   32  155 1    
    67   33  156 1    
    68   33  157 1    
    69   33  158 1    
    70   34   35 am   BACKBONE|DICT|INTERRES
    71   34  159 1    
    72   35   36 2    
    73   35   37 1    
    74   37   38 1    
    75   37   39 1    
    76   37  160 1    
    77   38  161 1    
    78   38  162 1    
    79   38  163 1    
    80   39   40 am   BACKBONE|DICT|INTERRES
    81   39  164 1    
    82   40   41 2    
    83   40   42 1    
    84   42   43 1    
    85   42   44 1    
    86   42  165 1    
    87   43  166 1    
    88   43  167 1    
    89   43  168 1    
    90   44   45 am   BACKBONE|DICT|INTERRES
    91   44  169 1    
    92   45   46 2    
    93   45   47 1    
    94   47   48 1    
    95   47   49 1    
    96   47  170 1    
    97   48  171 1    
    98   48  172 1    
    99   48  173 1    
   100   49   50 am   BACKBONE|DICT|INTERRES
   101   49  174 1    
   102   50   51 2    
   103   50   52 1    
   104   52   53 1    
   105   52   54 1    
   106   52  175 1    
   107   53  176 1    
   108   53  177 1    
   109   53  178 1    
   110   54   55 am   BACKBONE|DICT|INTERRES
   111   54  179 1    
   112   55   56 2    
   113   55   57 1    
   114   57   58 1    
   115   57   59 1    
   116   57  180 1    
   117   58  181 1    
   118   58  182 1    
   119   58  183 1    
   120   59   60 am   BACKBONE|DICT|INTERRES
   121   59  184 1    
   122   60   61 2    
   123   60   62 1    
   124   62   63 1    
   125   62   64 1    
   126   62  185 1    
   127   63  186 1    
   128   63  187 1    
   129   63  188 1    
   130   64   65 am   BACKBONE|DICT|INTERRES
   131   64  189 1    
   132   65   66 2    
   133   67   68 2    
   134   67   69 am   BACKBONE|DICT|INTERRES
   135   69   70 1    
   136   69  190 1    
   137   70   71 1    
   138   70   72 1    
   139   70  191 1    
   140   71  192 1    
   141   71  193 1    
   142   71  194 1    
   143   72   73 2    
   144   72   74 am   BACKBONE|DICT|INTERRES
   145   74   75 1    
   146   74  195 1    
   147   75   76 1    
   148   75   77 1    
   149   75  196 1    
   150   76  197 1    
   151   76  198 1    
   152   76  199 1    
   153   77   78 2    
   154   77   79 am   BACKBONE|DICT|INTERRES
   155   79   80 1    
   156   79  200 1    
   157   80   81 1    
   158   80   82 1    
   159   80  201 1    
   160   81  202 1    
   161   81  203 1    
   162   81  204 1    
   163   82   83 2    
   164   82   84 am   BACKBONE|DICT|INTERRES
   165   84   85 1    
   166   84  205 1    
   167   85   86 1    
   168   85   87 1    
   169   85  206 1    
   170   86  207 1    
   171   86  208 1    
   172   86  209 1    
   173   87   88 2    
   174   87   89 am   BACKBONE|DICT|INTERRES
   175   89   90 1    
   176   89  210 1    
   177   90   91 1    
   178   90   92 1    
   179   90  211 1    
   180   91  212 1    
   181   91  213 1    
   182   91  214 1    
   183   92   93 2    
   184   92   94 am   BACKBONE|DICT|INTERRES
   185   94   95 1    
   186   94  215 1    
   187   95   96 1    
   188   95   97 1    
   189   95  216 1    
   190   96  217 1    
   191   96  218 1    
   192   96  219 1    
   193   97   98 2    
   194   97   99 am   BACKBONE|DICT|INTERRES
   195   99  100 1    
   196   99  220 1    
   197  100  101 1    
   198  100  102 1    
   199  100  221 1    
   200  101  222 1    
   201  101  223 1    
   202  101  224 1    
   203  102  103 2    
   204  102  104 am   BACKBONE|DICT|INTERRES
   205  104  105 1    
   206  104  225 1    
   207  105  106 1    
   208  105  107 1    
   209  105  226 1    
   210  106  227 1    
   211  106  228 1    
   212  106  229 1    
   213  107  108 2    
   214  107  109 am   BACKBONE|DICT|INTERRES
   215  109  110 1    
   216  109  230 1    
   217  110  111 1    
   218  110  112 1    
   219  110  231 1    
   220  111  232 1    
   221  111  233 1    
   222  111  234 1    
   223  112  113 2    
   224  112  114 am   BACKBONE|DICT|INTERRES
   225  114  115 1    
   226  114  235 1    
   227  115  116 1    
   228  115  117 1    
   229  115  236 1    
   230  116  237 1    
   231  116  238 1    
   232  116  239 1    
   233  117  118 2    
   234  117  119 am   BACKBONE|DICT|INTERRES
   235  119  120 1    
   236  119  240 1    
   237  120  121 1    
   238  120  124 1    
   239  120  241 1    
   240  121  122 am   BACKBONE|DICT|INTERRES
   241  121  123 2    
   242  122  242 1    
   243  122  243 1    
   244  124  125 1    
   245  124  244 1    
   246  124  245 1    
   247  125  126 1    
   248  126  246 1    
   249  126  247 1    
@<TRIPOS>SUBSTRUCTURE
     1 UNK         1 GROUP             0       ****    0 ROOT    
