@<TRIPOS>MOLECULE
3R540
247   249    1
SMALL
USER_CHARGES


@<TRIPOS>ATOM
      1 CA          5.8315  -11.9406  -44.5843 C.3       0 UNK        -0.1800 
      2 C           4.6138  -12.0120  -45.4939 C.2       0 UNK         0.5000 
      3 O           3.5849  -11.4160  -45.1849 O.2       0 UNK        -0.5000 
      4 N           4.7322  -12.7302  -46.6174 N.am      1 UNK        -0.5000 
      5 CA          3.6599  -12.9752  -47.5958 C.3       1 UNK         0.1400 
      6 C6          3.9551  -14.2280  -48.4609 C.3       23 UNK        -0.0398 
      7 S7          4.1538  -15.7343  -47.4487 S.3       23 UNK        -0.2404 
      8 C8          2.4691  -16.4126  -47.5062 C.3       23 UNK        -0.0205 
      9 C9          2.2527  -17.3279  -48.6992 C.ar      23 UNK        -0.0193 
     10 C10         1.5731  -16.8620  -49.8270 C.ar      23 UNK        -0.1150 
     11 C11         1.3519  -17.7049  -50.9190 C.ar      23 UNK        -0.0193 
     12 C12         1.8325  -19.0167  -50.8840 C.ar      23 UNK        -0.1150 
     13 C13         2.5065  -19.4992  -49.7583 C.ar      23 UNK        -0.0193 
     14 C14         2.7096  -18.6495  -48.6657 C.ar      23 UNK        -0.1150 
     15 C15         3.0290  -20.9309  -49.7339 C.3       23 UNK        -0.0205 
     16 S16         1.6927  -22.1659  -49.8564 S.3       23 UNK        -0.2404 
     17 C17         0.8004  -21.8985  -48.2905 C.3       23 UNK        -0.0398 
     18 CA          0.5937  -23.2060  -47.4866 C.3       11 UNK         0.1400 
     19 N           0.5098  -22.9466  -46.0481 N.am      11 UNK        -0.5000 
     20 C           0.4226  -23.8791  -45.0898 C.2       10 UNK         0.5000 
     21 O           0.4854  -25.0894  -45.3009 O.2       10 UNK        -0.5000 
     22 CA          0.1607  -23.3689  -43.6626 C.3       10 UNK         0.1400 
     23 CB          1.4743  -22.9945  -42.9596 C.3       10 UNK        -0.1800 
     24 N          -0.7480  -22.2208  -43.6627 N.am      10 UNK        -0.5000 
     25 C          -2.0605  -22.3006  -43.9241 C.2       9 UNK         0.5000 
     26 O          -2.6501  -23.3623  -44.1268 O.2       9 UNK        -0.5000 
     27 CA         -2.8312  -20.9687  -44.0172 C.3       9 UNK         0.1400 
     28 CB         -3.2150  -20.4642  -42.6184 C.3       9 UNK        -0.1800 
     29 N          -2.0771  -19.9269  -44.7184 N.am      9 UNK        -0.5000 
     30 C          -1.7668  -19.9680  -46.0221 C.2       8 UNK         0.5000 
     31 O          -2.1406  -20.8610  -46.7796 O.2       8 UNK        -0.5000 
     32 CA         -0.8411  -18.8621  -46.5667 C.3       8 UNK         0.1400 
     33 CB         -1.6748  -17.7206  -47.1641 C.3       8 UNK        -0.1800 
     34 N           0.1166  -18.3376  -45.5830 N.am      8 UNK        -0.5000 
     35 C           1.0215  -19.0876  -44.9315 C.2       7 UNK         0.5000 
     36 O           1.1144  -20.3035  -45.0983 O.2       7 UNK        -0.5000 
     37 CA          1.9832  -18.4138  -43.9298 C.3       7 UNK         0.1400 
     38 CB          3.4481  -18.7188  -44.2873 C.3       7 UNK        -0.1800 
     39 N           1.8248  -16.9657  -43.8052 N.am      7 UNK        -0.5000 
     40 C           0.8559  -16.3357  -43.1291 C.2       6 UNK         0.5000 
     41 O          -0.0544  -16.9187  -42.5383 O.2       6 UNK        -0.5000 
     42 CA          0.8967  -14.7896  -43.1312 C.3       6 UNK         0.1400 
     43 CB          2.2335  -14.2014  -43.6353 C.3       6 UNK        -0.1800 
     44 N          -0.2111  -14.1875  -43.8810 N.am      6 UNK        -0.5000 
     45 C          -0.6055  -14.4983  -45.1257 C.2       5 UNK         0.5000 
     46 O          -0.1111  -15.4007  -45.7974 O.2       5 UNK        -0.5000 
     47 CA         -1.7256  -13.6342  -45.7314 C.3       5 UNK         0.1400 
     48 CB         -3.1027  -14.0908  -45.2259 C.3       5 UNK        -0.1800 
     49 N          -1.5467  -12.2074  -45.4505 N.am      5 UNK        -0.5000 
     50 C          -0.5671  -11.4584  -45.9749 C.2       4 UNK         0.5000 
     51 O           0.2828  -11.8912  -46.7556 O.2       4 UNK        -0.5000 
     52 CA         -0.5221   -9.9851  -45.5303 C.3       4 UNK         0.1400 
     53 CB          0.3130   -9.8323  -44.2500 C.3       4 UNK        -0.1800 
     54 N           0.0485   -9.1330  -46.5715 N.am      4 UNK        -0.5000 
     55 C          -0.5822   -8.7603  -47.6902 C.2       3 UNK         0.5000 
     56 O          -1.7644   -9.0199  -47.9199 O.2       3 UNK        -0.5000 
     57 CA          0.2300   -7.9674  -48.7355 C.3       3 UNK         0.1400 
     58 CB          0.3610   -6.4845  -48.3366 C.3       3 UNK        -0.1800 
     59 N           1.5339   -8.5544  -49.0788 N.am      3 UNK        -0.5000 
     60 C           2.6284   -8.6828  -48.3171 C.2       2 UNK         0.5000 
     61 O           2.7055   -8.3096  -47.1445 O.2       2 UNK        -0.5000 
     62 CA          3.8409   -9.3669  -48.9741 C.3       2 UNK         0.1400 
     63 CB          5.1010   -8.4925  -48.8714 C.3       2 UNK        -0.1800 
     64 N           4.0966  -10.6515  -48.3304 N.am      2 UNK        -0.5000 
     65 C           3.3465  -11.7505  -48.4899 C.2       1 UNK         0.5000 
     66 O           2.4428  -11.8260  -49.3240 O.2       1 UNK        -0.5000 
     67 C          -0.6320  -23.9994  -47.9888 C.2       11 UNK         0.5000 
     68 O          -0.4650  -25.0164  -48.6606 O.2       11 UNK        -0.5000 
     69 N          -1.8357  -23.5566  -47.5964 N.am      12 UNK        -0.5000 
     70 CA         -3.1078  -24.2179  -47.8832 C.3       12 UNK         0.1400 
     71 CB         -4.2676  -23.3377  -47.3931 C.3       12 UNK        -0.1800 
     72 C          -3.2068  -25.6249  -47.2684 C.2       12 UNK         0.5000 
     73 O          -3.6734  -26.5484  -47.9352 O.2       12 UNK        -0.5000 
     74 N          -2.7375  -25.7748  -46.0215 N.am      13 UNK        -0.5000 
     75 CA         -2.6706  -27.0565  -45.3180 C.3       13 UNK         0.1400 
     76 CB         -2.2871  -26.8241  -43.8490 C.3       13 UNK        -0.1800 
     77 C          -1.7081  -28.0539  -45.9906 C.2       13 UNK         0.5000 
     78 O          -2.0472  -29.2313  -46.1119 O.2       13 UNK        -0.5000 
     79 N          -0.5469  -27.5615  -46.4449 N.am      14 UNK        -0.5000 
     80 CA          0.4494  -28.3306  -47.1917 C.3       14 UNK         0.1400 
     81 CB          1.7576  -27.5291  -47.2766 C.3       14 UNK        -0.1800 
     82 C          -0.0395  -28.7340  -48.5958 C.2       14 UNK         0.5000 
     83 O           0.1897  -29.8694  -49.0146 O.2       14 UNK        -0.5000 
     84 N          -0.7171  -27.8080  -49.2886 N.am      15 UNK        -0.5000 
     85 CA         -1.3232  -28.0248  -50.6047 C.3       15 UNK         0.1400 
     86 CB         -1.7034  -26.6646  -51.2112 C.3       15 UNK        -0.1800 
     87 C          -2.5576  -28.9464  -50.5671 C.2       15 UNK         0.5000 
     88 O          -2.8720  -29.5713  -51.5807 O.2       15 UNK        -0.5000 
     89 N          -3.2353  -28.9919  -49.4108 N.am      16 UNK        -0.5000 
     90 CA         -4.5069  -29.6680  -49.1386 C.3       16 UNK         0.1400 
     91 CB         -4.3720  -31.1980  -49.2854 C.3       16 UNK        -0.1800 
     92 C          -5.6734  -29.0706  -49.9552 C.2       16 UNK         0.5000 
     93 O          -6.5734  -29.7974  -50.3810 O.2       16 UNK        -0.5000 
     94 N          -5.6344  -27.7488  -50.1547 N.am      17 UNK        -0.5000 
     95 CA         -6.6115  -26.9554  -50.8909 C.3       17 UNK         0.1400 
     96 CB         -6.3885  -27.1093  -52.4060 C.3       17 UNK        -0.1800 
     97 C          -6.4504  -25.4933  -50.4598 C.2       17 UNK         0.5000 
     98 O          -5.3350  -25.0798  -50.1408 O.2       17 UNK        -0.5000 
     99 N          -7.5543  -24.7368  -50.4525 N.am      18 UNK        -0.5000 
    100 CA        -7.5960  -23.3362  -50.0309 C.3       18 UNK         0.1400 
    101 CB        -9.0574  -22.8613  -49.9902 C.3       18 UNK        -0.1800 
    102 C         -6.7510  -22.4250  -50.9407 C.2       18 UNK         0.5000 
    103 O         -7.0416  -22.3122  -52.1338 O.2       18 UNK        -0.5000 
    104 N         -5.7457  -21.7624  -50.3565 N.am      19 UNK        -0.5000 
    105 CA        -4.8577  -20.8064  -51.0210 C.3       19 UNK         0.1400 
    106 CB        -3.5050  -20.7864  -50.2823 C.3       19 UNK        -0.1800 
    107 C         -5.5139  -19.4122  -51.1001 C.2       19 UNK         0.5000 
    108 O         -4.9453  -18.4296  -50.6242 O.2       19 UNK        -0.5000 
    109 N         -6.7211  -19.3525  -51.6794 N.am      20 UNK        -0.5000 
    110 CA        -7.5782  -18.1640  -51.7465 C.3       20 UNK         0.1400 
    111 CB        -8.9228  -18.5501  -52.3804 C.3       20 UNK        -0.1800 
    112 C         -6.9443  -16.9760  -52.4944 C.2       20 UNK         0.5000 
    113 O         -7.1645  -15.8261  -52.1115 O.2       20 UNK        -0.5000 
    114 N         -6.1270  -17.2775  -53.5128 N.am      21 UNK        -0.5000 
    115 CA        -5.3457  -16.3051  -54.2812 C.3       21 UNK         0.1400 
    116 CB        -4.7443  -17.0124  -55.5056 C.3       21 UNK        -0.1800 
    117 C         -4.2359  -15.6138  -53.4611 C.2       21 UNK         0.5000 
    118 O         -3.7905  -14.5315  -53.8449 O.2       21 UNK        -0.5000 
    119 N         -3.8161  -16.2413  -52.3560 N.am      22 UNK        -0.5000 
    120 CA        -2.8075  -15.7299  -51.4169 C.3       22 UNK         0.1400 
    121 C         -3.4132  -14.8751  -50.2640 C.2       22 UNK         0.5000 
    122 N         -4.7248  -14.6734  -50.1929 N.am      22 UNK        -0.7600 
    123 O         -2.6766  -14.3681  -49.4236 O.2       22 UNK        -0.5000 
    124 C124       -1.9171  -16.8720  -50.8628 C.3       23 UNK        -0.0398 
    125 S125       -1.1088  -17.8459  -52.1819 S.3       23 UNK        -0.2404 
    126 C126        0.5937  -17.2038  -52.1381 C.3       23 UNK        -0.0205 
    127 H127        6.1469  -10.9047  -44.4597 H         1 UNK         0.0600 
    128 H128        6.6722  -12.5070  -44.9858 H         1 UNK         0.0600 
    129 H129        5.5876  -12.3447  -43.6017 H         1 UNK         0.0600 
    130 H130        5.6058  -13.1988  -46.8115 H         1 UNK         0.3000 
    131 H131        2.7437  -13.1742  -47.0352 H         1 UNK         0.0600 
    132 H132        3.1620  -14.3971  -49.1910 H         1 UNK         0.0800 
    133 H133        4.8688  -14.0837  -49.0397 H         1 UNK         0.0800 
    134 H134        1.7475  -15.5954  -47.5150 H         1 UNK         0.0800 
    135 H135        2.2848  -16.9673  -46.5906 H         1 UNK         0.0800 
    136 H136        1.2077  -15.8450  -49.8503 H         1 UNK         0.1150 
    137 H137        1.6671  -19.6699  -51.7295 H         1 UNK         0.1150 
    138 H138        3.2302  -19.0111  -47.7900 H         1 UNK         0.1150 
    139 H139        3.6119  -21.1203  -48.8311 H         1 UNK         0.0800 
    140 H140        3.7122  -21.0692  -50.5729 H         1 UNK         0.0800 
    141 H141       -0.1454  -21.4017  -48.5109 H         1 UNK         0.0800 
    142 H142        1.3740  -21.1894  -47.6928 H         1 UNK         0.0800 
    143 H143        1.4724  -23.8398  -47.6248 H         1 UNK         0.0600 
    144 H144        0.5170  -21.9725  -45.7588 H         1 UNK         0.3000 
    145 H145       -0.3061  -24.1777  -43.0967 H         1 UNK         0.0600 
    146 H146        1.2934  -22.6629  -41.9371 H         1 UNK         0.0600 
    147 H147        2.1442  -23.8537  -42.9087 H         1 UNK         0.0600 
    148 H148        2.0052  -22.1983  -43.4815 H         1 UNK         0.0600 
    149 H149       -0.3216  -21.3088  -43.5825 H         1 UNK         0.3000 
    150 H150       -3.7506  -21.1563  -44.5761 H         1 UNK         0.0600 
    151 H151       -3.7899  -21.2164  -42.0765 H         1 UNK         0.0600 
    152 H152       -3.8311  -19.5669  -42.6788 H         1 UNK         0.0600 
    153 H153       -2.3353  -20.2274  -42.0185 H         1 UNK         0.0600 
    154 H154       -1.7275  -19.1582  -44.1646 H         1 UNK         0.3000 
    155 H155       -0.2574  -19.2978  -47.3785 H         1 UNK         0.0600 
    156 H156       -2.2175  -17.1741  -46.3929 H         1 UNK         0.0600 
    157 H157       -1.0441  -17.0129  -47.7021 H         1 UNK         0.0600 
    158 H158       -2.4096  -18.1016  -47.8745 H         1 UNK         0.0600 
    159 H159        0.1037  -17.3323  -45.4361 H         1 UNK         0.3000 
    160 H160        1.7795  -18.8623  -42.9554 H         1 UNK         0.0600 
    161 H161        3.7253  -18.3074  -45.2580 H         1 UNK         0.0600 
    162 H162        3.6292  -19.7939  -44.3251 H         1 UNK         0.0600 
    163 H163        4.1290  -18.3063  -43.5427 H         1 UNK         0.0600 
    164 H164        2.5106  -16.3991  -44.2822 H         1 UNK         0.3000 
    165 H165        0.7735  -14.4832  -42.0915 H         1 UNK         0.0600 
    166 H166        2.2487  -13.1199  -43.5015 H         1 UNK         0.0600 
    167 H167        3.0825  -14.6013  -43.0794 H         1 UNK         0.0600 
    168 H168        2.3991  -14.3991  -44.6954 H         1 UNK         0.0600 
    169 H169       -0.7041  -13.4456  -43.4064 H         1 UNK         0.3000 
    170 H170       -1.7005  -13.7739  -46.8146 H         1 UNK         0.0600 
    171 H171       -3.2646  -15.1483  -45.4371 H         1 UNK         0.0600 
    172 H172       -3.2070  -13.9513  -44.1493 H         1 UNK         0.0600 
    173 H173       -3.9042  -13.5381  -45.7164 H         1 UNK         0.0600 
    174 H174       -2.2091  -11.7824  -44.8179 H         1 UNK         0.3000 
    175 H175       -1.5401   -9.6482  -45.3233 H         1 UNK         0.0600 
    176 H176        1.3475  -10.1382  -44.4083 H         1 UNK         0.0600 
    177 H177        0.3193   -8.7985  -43.9042 H         1 UNK         0.0600 
    178 H178       -0.0898  -10.4437  -43.4417 H         1 UNK         0.0600 
    179 H179        1.0382   -8.9133  -46.4980 H         1 UNK         0.3000 
    180 H180       -0.3491   -7.9980  -49.6599 H         1 UNK         0.0600 
    181 H181        0.9130   -6.3568  -47.4052 H         1 UNK         0.0600 
    182 H182       -0.6219   -6.0339  -48.1940 H         1 UNK         0.0600 
    183 H183        0.8716   -5.9116  -49.1107 H         1 UNK         0.0600 
    184 H184        1.5739   -8.9549  -50.0061 H         1 UNK         0.3000 
    185 H185        3.6333   -9.5360  -50.0330 H         1 UNK         0.0600 
    186 H186        4.9398   -7.5217  -49.3418 H         1 UNK         0.0600 
    187 H187        5.3858   -8.3114  -47.8341 H         1 UNK         0.0600 
    188 H188        5.9474   -8.9608  -49.3740 H         1 UNK         0.0600 
    189 H189        4.7915  -10.6594  -47.5987 H         1 UNK         0.3000 
    190 H190       -1.8936  -22.6751  -47.0923 H         1 UNK         0.3000 
    191 H191       -3.1804  -24.3174  -48.9669 H         1 UNK         0.0600 
    192 H192       -4.2313  -23.1856  -46.3145 H         1 UNK         0.0600 
    193 H193       -5.2286  -23.7968  -47.6261 H         1 UNK         0.0600 
    194 H194       -4.2466  -22.3572  -47.8653 H         1 UNK         0.0600 
    195 H195       -2.4140  -24.9566  -45.5183 H         1 UNK         0.3000 
    196 H196       -3.6698  -27.4966  -45.3386 H         1 UNK         0.0600 
    197 H197       -2.2872  -27.7628  -43.2938 H         1 UNK         0.0600 
    198 H198       -2.9939  -26.1550  -43.3577 H         1 UNK         0.0600 
    199 H199       -1.2929  -26.3885  -43.7540 H         1 UNK         0.0600 
    200 H200       -0.3208  -26.5895  -46.2534 H         1 UNK         0.3000 
    201 H201        0.6519  -29.2478  -46.6348 H         1 UNK         0.0600 
    202 H202        2.1479  -27.3074  -46.2832 H         1 UNK         0.0600 
    203 H203        1.6180  -26.5819  -47.7982 H         1 UNK         0.0600 
    204 H204        2.5255  -28.0894  -47.8113 H         1 UNK         0.0600 
    205 H205       -0.7953  -26.8696  -48.9035 H         1 UNK         0.3000 
    206 H206       -0.5784  -28.4930  -51.2516 H         1 UNK         0.0600 
    207 H207       -0.8311  -26.0185  -51.3107 H         1 UNK         0.0600 
    208 H208       -2.1349  -26.7849  -52.2058 H         1 UNK         0.0600 
    209 H209       -2.4383  -26.1428  -50.5965 H         1 UNK         0.0600 
    210 H210       -2.9235  -28.3692  -48.6745 H         1 UNK         0.3000 
    211 H211       -4.7351  -29.4595  -48.0924 H         1 UNK         0.0600 
    212 H212       -4.2182  -31.4965  -50.3225 H         1 UNK         0.0600 
    213 H213       -5.2709  -31.7037  -48.9312 H         1 UNK         0.0600 
    214 H214       -3.5349  -31.5765  -48.6986 H         1 UNK         0.0600 
    215 H215       -4.8944  -27.2031  -49.7219 H         1 UNK         0.3000 
    216 H216       -7.6168  -27.2921  -50.6293 H         1 UNK         0.0600 
    217 H217       -7.0913  -26.4946  -52.9696 H         1 UNK         0.0600 
    218 H218       -6.5309  -28.1413  -52.7265 H         1 UNK         0.0600 
    219 H219       -5.3807  -26.8063  -52.6936 H         1 UNK         0.0600 
    220 H220       -8.4272  -25.1371  -50.7641 H         1 UNK         0.3000 
    221 H221       -7.2010  -23.2833  -49.0145 H         1 UNK         0.0600 
    222 H222       -9.5330  -22.9338  -50.9692 H         1 UNK         0.0600 
    223 H223       -9.6452  -23.4517  -49.2870 H         1 UNK         0.0600 
    224 H224       -9.1208  -21.8200  -49.6715 H         1 UNK         0.0600 
    225 H225       -5.5898  -21.8923  -49.3684 H         1 UNK         0.3000 
    226 H226       -4.6718  -21.1392  -52.0443 H         1 UNK         0.0600 
    227 H227       -3.0637  -21.7823  -50.2351 H         1 UNK         0.0600 
    228 H228       -2.7900  -20.1415  -50.7942 H         1 UNK         0.0600 
    229 H229       -3.6048  -20.4162  -49.2611 H         1 UNK         0.0600 
    230 H230       -7.1062  -20.2161  -52.0453 H         1 UNK         0.3000 
    231 H231       -7.7659  -17.8386  -50.7213 H         1 UNK         0.0600 
    232 H232       -9.5961  -17.6928  -52.4226 H         1 UNK         0.0600 
    233 H233       -9.4231  -19.3269  -51.8017 H         1 UNK         0.0600 
    234 H234       -8.7960  -18.9195  -53.3988 H         1 UNK         0.0600 
    235 H235       -5.9996  -18.2505  -53.7493 H         1 UNK         0.3000 
    236 H236       -6.0261  -15.5269  -54.6332 H         1 UNK         0.0600 
    237 H237       -5.5225  -17.4454  -56.1343 H         1 UNK         0.0600 
    238 H238       -4.1811  -16.3121  -56.1240 H         1 UNK         0.0600 
    239 H239       -4.0628  -17.8122  -55.2125 H         1 UNK         0.0600 
    240 H240       -4.2632  -17.1058  -52.0750 H         1 UNK         0.3000 
    241 H241       -2.1462  -15.0518  -51.9591 H         1 UNK         0.0600 
    242 H242       -5.3501  -15.0769  -50.8764 H         1 UNK         0.3800 
    243 H243       -5.0973  -14.1118  -49.4443 H         1 UNK         0.3800 
    244 H244       -1.1581  -16.4702  -50.1922 H         1 UNK         0.0800 
    245 H245       -2.5116  -17.5570  -50.2584 H         1 UNK         0.0800 
    246 H246        0.5750  -16.1132  -52.1675 H         1 UNK         0.0800 
    247 H247        1.1143  -17.5245  -53.0416 H         1 UNK         0.0800 
@<TRIPOS>BOND
     1    1    2 1    
     2    1  127 1    
     3    1  128 1    
     4    1  129 1    
     5    2    3 2    
     6    2    4 am   BACKBONE|DICT|INTERRES
     7    4    5 1    
     8    4  130 1    
     9    5    6 1    
    10    5   65 1    
    11    5  131 1    
    12    6    7 1    
    13    6  132 1    
    14    6  133 1    
    15    7    8 1    
    16    8    9 1    
    17    8  134 1    
    18    8  135 1    
    19    9   10 ar   
    20    9   14 ar   
    21   10   11 ar   
    22   10  136 1    
    23   11   12 ar   
    24   11  126 1    
    25   12   13 ar   
    26   12  137 1    
    27   13   14 ar   
    28   13   15 1    
    29   14  138 1    
    30   15   16 1    
    31   15  139 1    
    32   15  140 1    
    33   16   17 1    
    34   17   18 1    
    35   17  141 1    
    36   17  142 1    
    37   18   19 1    
    38   18   67 1    
    39   18  143 1    
    40   19   20 am   BACKBONE|DICT|INTERRES
    41   19  144 1    
    42   20   21 2    
    43   20   22 1    
    44   22   23 1    
    45   22   24 1    
    46   22  145 1    
    47   23  146 1    
    48   23  147 1    
    49   23  148 1    
    50   24   25 am   BACKBONE|DICT|INTERRES
    51   24  149 1    
    52   25   26 2    
    53   25   27 1    
    54   27   28 1    
    55   27   29 1    
    56   27  150 1    
    57   28  151 1    
    58   28  152 1    
    59   28  153 1    
    60   29   30 am   BACKBONE|DICT|INTERRES
    61   29  154 1    
    62   30   31 2    
    63   30   32 1    
    64   32   33 1    
    65   32   34 1    
    66   32  155 1    
    67   33  156 1    
    68   33  157 1    
    69   33  158 1    
    70   34   35 am   BACKBONE|DICT|INTERRES
    71   34  159 1    
    72   35   36 2    
    73   35   37 1    
    74   37   38 1    
    75   37   39 1    
    76   37  160 1    
    77   38  161 1    
    78   38  162 1    
    79   38  163 1    
    80   39   40 am   BACKBONE|DICT|INTERRES
    81   39  164 1    
    82   40   41 2    
    83   40   42 1    
    84   42   43 1    
    85   42   44 1    
    86   42  165 1    
    87   43  166 1    
    88   43  167 1    
    89   43  168 1    
    90   44   45 am   BACKBONE|DICT|INTERRES
    91   44  169 1    
    92   45   46 2    
    93   45   47 1    
    94   47   48 1    
    95   47   49 1    
    96   47  170 1    
    97   48  171 1    
    98   48  172 1    
    99   48  173 1    
   100   49   50 am   BACKBONE|DICT|INTERRES
   101   49  174 1    
   102   50   51 2    
   103   50   52 1    
   104   52   53 1    
   105   52   54 1    
   106   52  175 1    
   107   53  176 1    
   108   53  177 1    
   109   53  178 1    
   110   54   55 am   BACKBONE|DICT|INTERRES
   111   54  179 1    
   112   55   56 2    
   113   55   57 1    
   114   57   58 1    
   115   57   59 1    
   116   57  180 1    
   117   58  181 1    
   118   58  182 1    
   119   58  183 1    
   120   59   60 am   BACKBONE|DICT|INTERRES
   121   59  184 1    
   122   60   61 2    
   123   60   62 1    
   124   62   63 1    
   125   62   64 1    
   126   62  185 1    
   127   63  186 1    
   128   63  187 1    
   129   63  188 1    
   130   64   65 am   BACKBONE|DICT|INTERRES
   131   64  189 1    
   132   65   66 2    
   133   67   68 2    
   134   67   69 am   BACKBONE|DICT|INTERRES
   135   69   70 1    
   136   69  190 1    
   137   70   71 1    
   138   70   72 1    
   139   70  191 1    
   140   71  192 1    
   141   71  193 1    
   142   71  194 1    
   143   72   73 2    
   144   72   74 am   BACKBONE|DICT|INTERRES
   145   74   75 1    
   146   74  195 1    
   147   75   76 1    
   148   75   77 1    
   149   75  196 1    
   150   76  197 1    
   151   76  198 1    
   152   76  199 1    
   153   77   78 2    
   154   77   79 am   BACKBONE|DICT|INTERRES
   155   79   80 1    
   156   79  200 1    
   157   80   81 1    
   158   80   82 1    
   159   80  201 1    
   160   81  202 1    
   161   81  203 1    
   162   81  204 1    
   163   82   83 2    
   164   82   84 am   BACKBONE|DICT|INTERRES
   165   84   85 1    
   166   84  205 1    
   167   85   86 1    
   168   85   87 1    
   169   85  206 1    
   170   86  207 1    
   171   86  208 1    
   172   86  209 1    
   173   87   88 2    
   174   87   89 am   BACKBONE|DICT|INTERRES
   175   89   90 1    
   176   89  210 1    
   177   90   91 1    
   178   90   92 1    
   179   90  211 1    
   180   91  212 1    
   181   91  213 1    
   182   91  214 1    
   183   92   93 2    
   184   92   94 am   BACKBONE|DICT|INTERRES
   185   94   95 1    
   186   94  215 1    
   187   95   96 1    
   188   95   97 1    
   189   95  216 1    
   190   96  217 1    
   191   96  218 1    
   192   96  219 1    
   193   97   98 2    
   194   97   99 am   BACKBONE|DICT|INTERRES
   195   99  100 1    
   196   99  220 1    
   197  100  101 1    
   198  100  102 1    
   199  100  221 1    
   200  101  222 1    
   201  101  223 1    
   202  101  224 1    
   203  102  103 2    
   204  102  104 am   BACKBONE|DICT|INTERRES
   205  104  105 1    
   206  104  225 1    
   207  105  106 1    
   208  105  107 1    
   209  105  226 1    
   210  106  227 1    
   211  106  228 1    
   212  106  229 1    
   213  107  108 2    
   214  107  109 am   BACKBONE|DICT|INTERRES
   215  109  110 1    
   216  109  230 1    
   217  110  111 1    
   218  110  112 1    
   219  110  231 1    
   220  111  232 1    
   221  111  233 1    
   222  111  234 1    
   223  112  113 2    
   224  112  114 am   BACKBONE|DICT|INTERRES
   225  114  115 1    
   226  114  235 1    
   227  115  116 1    
   228  115  117 1    
   229  115  236 1    
   230  116  237 1    
   231  116  238 1    
   232  116  239 1    
   233  117  118 2    
   234  117  119 am   BACKBONE|DICT|INTERRES
   235  119  120 1    
   236  119  240 1    
   237  120  121 1    
   238  120  124 1    
   239  120  241 1    
   240  121  122 am   BACKBONE|DICT|INTERRES
   241  121  123 2    
   242  122  242 1    
   243  122  243 1    
   244  124  125 1    
   245  124  244 1    
   246  124  245 1    
   247  125  126 1    
   248  126  246 1    
   249  126  247 1    
@<TRIPOS>SUBSTRUCTURE
     1 UNK         1 GROUP             0       ****    0 ROOT    
