@<TRIPOS>MOLECULE
3R540
247   249    1
SMALL
USER_CHARGES


@<TRIPOS>ATOM
      1 CA          1.3457  -12.8661  -45.0122 C.3       0 UNK        -0.1800 
      2 C          -0.1070  -12.7642  -45.4529 C.2       0 UNK         0.5000 
      3 O          -0.9427  -12.2737  -44.6935 O.2       0 UNK        -0.5000 
      4 N          -0.4031  -13.2026  -46.6853 N.am      1 UNK        -0.5000 
      5 CA         -1.7485  -13.2882  -47.2784 C.3       1 UNK         0.1400 
      6 C6         -1.7178  -13.9061  -48.6978 C.3       23 UNK        -0.0398 
      7 S7         -1.0212  -15.5928  -48.7471 S.3       23 UNK        -0.2404 
      8 C8          0.5292  -15.3401  -49.6690 C.3       23 UNK        -0.0205 
      9 C9          0.9203  -16.5996  -50.4243 C.ar      23 UNK        -0.0193 
     10 C10         0.4631  -16.7965  -51.7293 C.ar      23 UNK        -0.1150 
     11 C11         0.7897  -17.9577  -52.4347 C.ar      23 UNK        -0.0193 
     12 C12         1.5956  -18.9226  -51.8205 C.ar      23 UNK        -0.1150 
     13 C13         2.0613  -18.7404  -50.5139 C.ar      23 UNK        -0.0193 
     14 C14         1.7245  -17.5714  -49.8240 C.ar      23 UNK        -0.1150 
     15 C15         2.9471  -19.7903  -49.8511 C.3       23 UNK        -0.0205 
     16 S16         2.1800  -21.4447  -49.7549 S.3       23 UNK        -0.2404 
     17 C17         0.6935  -21.1250  -48.7521 C.3       23 UNK        -0.0398 
     18 CA          0.1215  -22.4179  -48.1219 C.3       11 UNK         0.1400 
     19 N           0.9814  -22.9538  -47.0631 N.am      11 UNK        -0.5000 
     20 C           0.8163  -24.1498  -46.4791 C.2       10 UNK         0.5000 
     21 O          -0.0798  -24.9415  -46.7732 O.2       10 UNK        -0.5000 
     22 CA          1.7906  -24.4953  -45.3388 C.3       10 UNK         0.1400 
     23 CB          3.0838  -25.1010  -45.9034 C.3       10 UNK        -0.1800 
     24 N           2.1290  -23.3540  -44.4853 N.am      10 UNK        -0.5000 
     25 C           1.2688  -22.5857  -43.8051 C.2       9 UNK         0.5000 
     26 O           0.0466  -22.7197  -43.8621 O.2       9 UNK        -0.5000 
     27 CA          1.8624  -21.4496  -42.9512 C.3       9 UNK         0.1400 
     28 CB          2.4069  -21.9797  -41.6120 C.3       9 UNK        -0.1800 
     29 N           2.8527  -20.6250  -43.6564 N.am      9 UNK        -0.5000 
     30 C           4.0750  -20.9572  -44.1039 C.2       8 UNK         0.5000 
     31 O           4.5811  -22.0690  -43.9471 O.2       8 UNK        -0.5000 
     32 CA          4.8483  -19.8969  -44.9145 C.3       8 UNK         0.1400 
     33 CB          4.8665  -20.2932  -46.3993 C.3       8 UNK        -0.1800 
     34 N           4.2843  -18.5512  -44.7992 N.am      8 UNK        -0.5000 
     35 C           4.4107  -17.7543  -43.7295 C.2       7 UNK         0.5000 
     36 O           5.0878  -18.0384  -42.7412 O.2       7 UNK        -0.5000 
     37 CA          3.6252  -16.4275  -43.7590 C.3       7 UNK         0.1400 
     38 CB          4.5350  -15.2727  -44.2056 C.3       7 UNK        -0.1800 
     39 N           2.4338  -16.4539  -44.6162 N.am      7 UNK        -0.5000 
     40 C           1.3582  -17.2266  -44.4121 C.2       6 UNK         0.5000 
     41 O           1.2834  -18.0812  -43.5269 O.2       6 UNK        -0.5000 
     42 CA          0.1909  -17.0558  -45.4022 C.3       6 UNK         0.1400 
     43 CB          0.1860  -18.2294  -46.3931 C.3       6 UNK        -0.1800 
     44 N          -1.1167  -16.9906  -44.7477 N.am      6 UNK        -0.5000 
     45 C          -1.4666  -16.1405  -43.7738 C.2       5 UNK         0.5000 
     46 O          -0.7152  -15.2876  -43.2956 O.2       5 UNK        -0.5000 
     47 CA         -2.8969  -16.2974  -43.2246 C.3       5 UNK         0.1400 
     48 CB         -2.9455  -17.4067  -42.1617 C.3       5 UNK        -0.1800 
     49 N          -3.3728  -15.0519  -42.6253 N.am      5 UNK        -0.5000 
     50 C          -3.7517  -13.9686  -43.3145 C.2       4 UNK         0.5000 
     51 O          -3.8798  -13.9560  -44.5391 O.2       4 UNK        -0.5000 
     52 CA         -4.0434  -12.6868  -42.5148 C.3       4 UNK         0.1400 
     53 CB         -3.7778  -12.8119  -40.9954 C.3       4 UNK        -0.1800 
     54 N          -3.2544  -11.5957  -43.0802 N.am      4 UNK        -0.5000 
     55 C          -3.4946  -10.2924  -42.8951 C.2       3 UNK         0.5000 
     56 O          -4.4563   -9.8561  -42.2607 O.2       3 UNK        -0.5000 
     57 CA         -2.4946   -9.3064  -43.5169 C.3       3 UNK         0.1400 
     58 CB         -1.1766   -9.2973  -42.7248 C.3       3 UNK        -0.1800 
     59 N          -2.2149   -9.6404  -44.9115 N.am      3 UNK        -0.5000 
     60 C          -2.7474   -9.0110  -45.9678 C.2       2 UNK         0.5000 
     61 O          -3.5543   -8.0847  -45.8755 O.2       2 UNK        -0.5000 
     62 CA         -2.2940   -9.4675  -47.3694 C.3       2 UNK         0.1400 
     63 CB         -1.2267   -8.5107  -47.9234 C.3       2 UNK        -0.1800 
     64 N          -1.7586  -10.8284  -47.3890 N.am      2 UNK        -0.5000 
     65 C          -2.5042  -11.9399  -47.3259 C.2       1 UNK         0.5000 
     66 O          -3.7355  -11.9302  -47.3131 O.2       1 UNK        -0.5000 
     67 C          -1.3314  -22.2041  -47.6441 C.2       11 UNK         0.5000 
     68 O          -2.2660  -22.4663  -48.4030 O.2       11 UNK        -0.5000 
     69 N          -1.4950  -21.7504  -46.3934 N.am      12 UNK        -0.5000 
     70 CA         -2.7972  -21.5650  -45.7568 C.3       12 UNK         0.1400 
     71 CB         -2.6719  -20.5526  -44.6088 C.3       12 UNK        -0.1800 
     72 C          -3.3766  -22.8983  -45.2573 C.2       12 UNK         0.5000 
     73 O          -4.5675  -23.1466  -45.4448 O.2       12 UNK        -0.5000 
     74 N          -2.5206  -23.7382  -44.6555 N.am      13 UNK        -0.5000 
     75 CA         -2.8692  -25.0478  -44.0982 C.3       13 UNK         0.1400 
     76 CB         -1.6425  -25.6505  -43.3991 C.3       13 UNK        -0.1800 
     77 C          -3.4349  -26.0317  -45.1383 C.2       13 UNK         0.5000 
     78 O          -4.3444  -26.7975  -44.8154 O.2       13 UNK        -0.5000 
     79 N          -2.9368  -25.9599  -46.3801 N.am      14 UNK        -0.5000 
     80 CA         -3.4314  -26.6995  -47.5439 C.3       14 UNK         0.1400 
     81 CB         -2.3139  -26.7551  -48.5978 C.3       14 UNK        -0.1800 
     82 C          -4.7473  -26.1068  -48.1006 C.2       14 UNK         0.5000 
     83 O          -4.8248  -25.7630  -49.2826 O.2       14 UNK        -0.5000 
     84 N          -5.7514  -25.9693  -47.2206 N.am      15 UNK        -0.5000 
     85 CA         -7.1239  -25.4971  -47.4579 C.3       15 UNK         0.1400 
     86 CB         -7.9043  -26.5605  -48.2576 C.3       15 UNK        -0.1800 
     87 C          -7.2243  -24.0976  -48.1073 C.2       15 UNK         0.5000 
     88 O          -8.2315  -23.7928  -48.7479 O.2       15 UNK        -0.5000 
     89 N          -6.1610  -23.2919  -47.9686 N.am      16 UNK        -0.5000 
     90 CA         -5.8989  -22.0178  -48.6467 C.3       16 UNK         0.1400 
     91 CB         -6.8719  -20.9272  -48.1570 C.3       16 UNK        -0.1800 
     92 C          -5.8437  -22.1115  -50.1906 C.2       16 UNK         0.5000 
     93 O          -5.8653  -21.0770  -50.8580 O.2       16 UNK        -0.5000 
     94 N          -5.7477  -23.3299  -50.7435 N.am      17 UNK        -0.5000 
     95 CA         -5.6665  -23.5808  -52.1818 C.3       17 UNK         0.1400 
     96 CB         -6.0626  -25.0355  -52.4741 C.3       17 UNK        -0.1800 
     97 C          -4.2581  -23.2767  -52.7083 C.2       17 UNK         0.5000 
     98 O          -4.1099  -22.6256  -53.7434 O.2       17 UNK        -0.5000 
     99 N          -3.2399  -23.6911  -51.9434 N.am      18 UNK        -0.5000 
    100 CA        -1.8386  -23.3765  -52.2123 C.3       18 UNK         0.1400 
    101 CB        -0.9398  -24.2489  -51.3318 C.3       18 UNK        -0.1800 
    102 C         -1.5246  -21.8780  -52.0458 C.2       18 UNK         0.5000 
    103 O         -0.6652  -21.3746  -52.7614 O.2       18 UNK        -0.5000 
    104 N         -2.2695  -21.1785  -51.1763 N.am      19 UNK        -0.5000 
    105 CA        -2.2380  -19.7194  -51.0232 C.3       19 UNK         0.1400 
    106 CB        -2.8907  -19.3219  -49.6883 C.3       19 UNK        -0.1800 
    107 C         -2.8807  -18.9507  -52.1974 C.2       19 UNK         0.5000 
    108 O         -2.7181  -17.7328  -52.2684 O.2       19 UNK        -0.5000 
    109 N         -3.5826  -19.6501  -53.0988 N.am      20 UNK        -0.5000 
    110 CA        -4.0993  -19.0962  -54.3477 C.3       20 UNK         0.1400 
    111 CB        -5.5431  -19.5768  -54.5671 C.3       20 UNK        -0.1800 
    112 C         -3.1970  -19.4942  -55.5277 C.2       20 UNK         0.5000 
    113 O         -2.8299  -18.6318  -56.3260 O.2       20 UNK        -0.5000 
    114 N         -2.8639  -20.7892  -55.6254 N.am      21 UNK        -0.5000 
    115 CA        -2.1203  -21.3666  -56.7477 C.3       21 UNK         0.1400 
    116 CB        -2.3500  -22.8860  -56.7584 C.3       21 UNK        -0.1800 
    117 C         -0.6107  -21.0565  -56.7351 C.2       21 UNK         0.5000 
    118 O         -0.0134  -20.9205  -57.8032 O.2       21 UNK        -0.5000 
    119 N         -0.0227  -20.9882  -55.5352 N.am      22 UNK        -0.5000 
    120 CA         1.4169  -20.8352  -55.2514 C.3       22 UNK         0.1400 
    121 C          2.2826  -22.0731  -55.6498 C.2       22 UNK         0.5000 
    122 N          1.7009  -23.2411  -55.8962 N.am      22 UNK        -0.7600 
    123 O          3.5066  -21.9902  -55.7074 O.2       22 UNK        -0.5000 
    124 C124        2.0397  -19.4939  -55.7470 C.3       23 UNK        -0.0398 
    125 S125        1.3455  -17.8857  -55.1906 S.3       23 UNK        -0.2404 
    126 C126        0.1884  -18.1896  -53.8160 C.3       23 UNK        -0.0205 
    127 H127        1.7227  -11.8820  -44.7338 H         1 UNK         0.0600 
    128 H128        1.9840  -13.2653  -45.8004 H         1 UNK         0.0600 
    129 H129        1.4246  -13.5199  -44.1435 H         1 UNK         0.0600 
    130 H130        0.3378  -13.5697  -47.2632 H         1 UNK         0.3000 
    131 H131       -2.3291  -13.9540  -46.6384 H         1 UNK         0.0600 
    132 H132       -1.1746  -13.2550  -49.3842 H         1 UNK         0.0800 
    133 H133       -2.7311  -13.9775  -49.0980 H         1 UNK         0.0800 
    134 H134        1.3216  -15.0485  -48.9786 H         1 UNK         0.0800 
    135 H135        0.4213  -14.5195  -50.3795 H         1 UNK         0.0800 
    136 H136       -0.1778  -16.0550  -52.1856 H         1 UNK         0.1150 
    137 H137        1.8472  -19.8323  -52.3398 H         1 UNK         0.1150 
    138 H138        2.0868  -17.4133  -48.8191 H         1 UNK         0.1150 
    139 H139        3.8751  -19.8703  -50.4186 H         1 UNK         0.0800 
    140 H140        3.2317  -19.4724  -48.8485 H         1 UNK         0.0800 
    141 H141       -0.0359  -20.6530  -49.4086 H         1 UNK         0.0800 
    142 H142        0.9317  -20.3958  -47.9798 H         1 UNK         0.0800 
    143 H143        0.0881  -23.1773  -48.9003 H         1 UNK         0.0600 
    144 H144        1.7559  -22.3789  -46.7684 H         1 UNK         0.3000 
    145 H145        1.3124  -25.2452  -44.7076 H         1 UNK         0.0600 
    146 H146        3.7438  -25.4364  -45.1031 H         1 UNK         0.0600 
    147 H147        2.8692  -25.9668  -46.5314 H         1 UNK         0.0600 
    148 H148        3.6338  -24.3811  -46.5110 H         1 UNK         0.0600 
    149 H149        3.1173  -23.1418  -44.3724 H         1 UNK         0.3000 
    150 H150        1.0365  -20.7752  -42.7186 H         1 UNK         0.0600 
    151 H151        1.6242  -22.4935  -41.0525 H         1 UNK         0.0600 
    152 H152        2.7718  -21.1648  -40.9867 H         1 UNK         0.0600 
    153 H153        3.2239  -22.6880  -41.7505 H         1 UNK         0.0600 
    154 H154        2.5381  -19.6755  -43.8243 H         1 UNK         0.3000 
    155 H155        5.8765  -19.8797  -44.5472 H         1 UNK         0.0600 
    156 H156        3.8564  -20.3908  -46.7976 H         1 UNK         0.0600 
    157 H157        5.3658  -21.2526  -46.5417 H         1 UNK         0.0600 
    158 H158        5.4007  -19.5586  -47.0022 H         1 UNK         0.0600 
    159 H159        3.7237  -18.2249  -45.5716 H         1 UNK         0.3000 
    160 H160        3.2938  -16.2254  -42.7382 H         1 UNK         0.0600 
    161 H161        4.8710  -15.3998  -45.2354 H         1 UNK         0.0600 
    162 H162        5.4237  -15.2090  -43.5761 H         1 UNK         0.0600 
    163 H163        4.0211  -14.3140  -44.1345 H         1 UNK         0.0600 
    164 H164        2.4275  -15.7972  -45.3821 H         1 UNK         0.3000 
    165 H165        0.3269  -16.1255  -45.9567 H         1 UNK         0.0600 
    166 H166       -0.5892  -18.1145  -47.1508 H         1 UNK         0.0600 
    167 H167        1.1415  -18.2987  -46.9115 H         1 UNK         0.0600 
    168 H168        0.0206  -19.1808  -45.8863 H         1 UNK         0.0600 
    169 H169       -1.7974  -17.6638  -45.0628 H         1 UNK         0.3000 
    170 H170       -3.5621  -16.5691  -44.0472 H         1 UNK         0.0600 
    171 H171       -2.6092  -18.3599  -42.5707 H         1 UNK         0.0600 
    172 H172       -2.3057  -17.1748  -41.3092 H         1 UNK         0.0600 
    173 H173       -3.9600  -17.5536  -41.7906 H         1 UNK         0.0600 
    174 H174       -3.2560  -14.9651  -41.6267 H         1 UNK         0.3000 
    175 H175       -5.1019  -12.4647  -42.6643 H         1 UNK         0.0600 
    176 H176       -2.7266  -13.0135  -40.7851 H         1 UNK         0.0600 
    177 H177       -4.0468  -11.8967  -40.4684 H         1 UNK         0.0600 
    178 H178       -4.3729  -13.6107  -40.5513 H         1 UNK         0.0600 
    179 H179       -2.4629  -11.8825  -43.6541 H         1 UNK         0.3000 
    180 H180       -2.9263   -8.3057  -43.4462 H         1 UNK         0.0600 
    181 H181       -0.4864   -8.5524  -43.1209 H         1 UNK         0.0600 
    182 H182       -0.6759  -10.2658  -42.7558 H         1 UNK         0.0600 
    183 H183       -1.3532   -9.0524  -41.6767 H         1 UNK         0.0600 
    184 H184       -1.6173  -10.4453  -45.0668 H         1 UNK         0.3000 
    185 H185       -3.1641   -9.4241  -48.0281 H         1 UNK         0.0600 
    186 H186       -0.9425   -8.7823  -48.9402 H         1 UNK         0.0600 
    187 H187       -1.5988   -7.4857  -47.9547 H         1 UNK         0.0600 
    188 H188       -0.3253   -8.5138  -47.3093 H         1 UNK         0.0600 
    189 H189       -0.7536  -10.9233  -47.3992 H         1 UNK         0.3000 
    190 H190       -0.6840  -21.6449  -45.8006 H         1 UNK         0.3000 
    191 H191       -3.4928  -21.1493  -46.4884 H         1 UNK         0.0600 
    192 H192       -3.6335  -20.4000  -44.1171 H         1 UNK         0.0600 
    193 H193       -2.3408  -19.5842  -44.9794 H         1 UNK         0.0600 
    194 H194       -1.9631  -20.8818  -43.8484 H         1 UNK         0.0600 
    195 H195       -1.5640  -23.4275  -44.5062 H         1 UNK         0.3000 
    196 H196       -3.6431  -24.8841  -43.3457 H         1 UNK         0.0600 
    197 H197       -0.8444  -25.8632  -44.1094 H         1 UNK         0.0600 
    198 H198       -1.2474  -24.9771  -42.6383 H         1 UNK         0.0600 
    199 H199       -1.8978  -26.5881  -42.9038 H         1 UNK         0.0600 
    200 H200       -2.1627  -25.3267  -46.5485 H         1 UNK         0.3000 
    201 H201       -3.6490  -27.7254  -47.2402 H         1 UNK         0.0600 
    202 H202       -2.0213  -25.7542  -48.9095 H         1 UNK         0.0600 
    203 H203       -2.6297  -27.3038  -49.4860 H         1 UNK         0.0600 
    204 H204       -1.4269  -27.2527  -48.2054 H         1 UNK         0.0600 
    205 H205       -5.5483  -26.2501  -46.2657 H         1 UNK         0.3000 
    206 H206       -7.5899  -25.4079  -46.4758 H         1 UNK         0.0600 
    207 H207       -7.8417  -27.5381  -47.7798 H         1 UNK         0.0600 
    208 H208       -8.9622  -26.3051  -48.3282 H         1 UNK         0.0600 
    209 H209       -7.5218  -26.6590  -49.2743 H         1 UNK         0.0600 
    210 H210       -5.4175  -23.6133  -47.3593 H         1 UNK         0.3000 
    211 H211       -4.8966  -21.7217  -48.3385 H         1 UNK         0.0600 
    212 H212       -6.5878  -19.9467  -48.5408 H         1 UNK         0.0600 
    213 H213       -6.8712  -20.8600  -47.0690 H         1 UNK         0.0600 
    214 H214       -7.8943  -21.1211  -48.4819 H         1 UNK         0.0600 
    215 H215       -5.6768  -24.1400  -50.1357 H         1 UNK         0.3000 
    216 H216       -6.3713  -22.9246  -52.6972 H         1 UNK         0.0600 
    217 H217       -5.3890  -25.7451  -51.9921 H         1 UNK         0.0600 
    218 H218       -6.0404  -25.2372  -53.5458 H         1 UNK         0.0600 
    219 H219       -7.0735  -25.2451  -52.1236 H         1 UNK         0.0600 
    220 H220       -3.4450  -24.2093  -51.1002 H         1 UNK         0.3000 
    221 H221       -1.6281  -23.6305  -53.2535 H         1 UNK         0.0600 
    222 H222       -1.0028  -25.2970  -51.6248 H         1 UNK         0.0600 
    223 H223       -1.2376  -24.1807  -50.2894 H         1 UNK         0.0600 
    224 H224        0.1067  -23.9494  -51.4069 H         1 UNK         0.0600 
    225 H225       -2.9257  -21.6804  -50.5950 H         1 UNK         0.3000 
    226 H226       -1.1942  -19.4058  -50.9862 H         1 UNK         0.0600 
    227 H227       -3.9318  -19.6379  -49.6366 H         1 UNK         0.0600 
    228 H228       -2.3628  -19.7532  -48.8400 H         1 UNK         0.0600 
    229 H229       -2.8713  -18.2397  -49.5524 H         1 UNK         0.0600 
    230 H230       -3.6935  -20.6467  -52.9675 H         1 UNK         0.3000 
    231 H231       -4.1231  -18.0054  -54.3018 H         1 UNK         0.0600 
    232 H232       -5.6080  -20.6609  -54.6585 H         1 UNK         0.0600 
    233 H233       -5.9612  -19.1467  -55.4779 H         1 UNK         0.0600 
    234 H234       -6.1856  -19.2752  -53.7395 H         1 UNK         0.0600 
    235 H235       -3.2441  -21.4458  -54.9491 H         1 UNK         0.3000 
    236 H236       -2.5299  -20.9594  -57.6747 H         1 UNK         0.0600 
    237 H237       -3.4088  -23.1225  -56.8659 H         1 UNK         0.0600 
    238 H238       -1.8261  -23.3571  -57.5912 H         1 UNK         0.0600 
    239 H239       -1.9971  -23.3535  -55.8384 H         1 UNK         0.0600 
    240 H240       -0.5904  -21.1242  -54.7053 H         1 UNK         0.3000 
    241 H241        1.4877  -20.8357  -54.1687 H         1 UNK         0.0600 
    242 H242        2.2708  -24.0352  -56.1424 H         1 UNK         0.3800 
    243 H243        0.7008  -23.3381  -55.8428 H         1 UNK         0.3800 
    244 H244        2.0449  -19.4798  -56.8375 H         1 UNK         0.0800 
    245 H245        3.0914  -19.4583  -55.4590 H         1 UNK         0.0800 
    246 H246       -0.6490  -17.5063  -53.9630 H         1 UNK         0.0800 
    247 H247       -0.2593  -19.1729  -53.8563 H         1 UNK         0.0800 
@<TRIPOS>BOND
     1    1    2 1    
     2    1  127 1    
     3    1  128 1    
     4    1  129 1    
     5    2    3 2    
     6    2    4 am   BACKBONE|DICT|INTERRES
     7    4    5 1    
     8    4  130 1    
     9    5    6 1    
    10    5   65 1    
    11    5  131 1    
    12    6    7 1    
    13    6  132 1    
    14    6  133 1    
    15    7    8 1    
    16    8    9 1    
    17    8  134 1    
    18    8  135 1    
    19    9   10 ar   
    20    9   14 ar   
    21   10   11 ar   
    22   10  136 1    
    23   11   12 ar   
    24   11  126 1    
    25   12   13 ar   
    26   12  137 1    
    27   13   14 ar   
    28   13   15 1    
    29   14  138 1    
    30   15   16 1    
    31   15  139 1    
    32   15  140 1    
    33   16   17 1    
    34   17   18 1    
    35   17  141 1    
    36   17  142 1    
    37   18   19 1    
    38   18   67 1    
    39   18  143 1    
    40   19   20 am   BACKBONE|DICT|INTERRES
    41   19  144 1    
    42   20   21 2    
    43   20   22 1    
    44   22   23 1    
    45   22   24 1    
    46   22  145 1    
    47   23  146 1    
    48   23  147 1    
    49   23  148 1    
    50   24   25 am   BACKBONE|DICT|INTERRES
    51   24  149 1    
    52   25   26 2    
    53   25   27 1    
    54   27   28 1    
    55   27   29 1    
    56   27  150 1    
    57   28  151 1    
    58   28  152 1    
    59   28  153 1    
    60   29   30 am   BACKBONE|DICT|INTERRES
    61   29  154 1    
    62   30   31 2    
    63   30   32 1    
    64   32   33 1    
    65   32   34 1    
    66   32  155 1    
    67   33  156 1    
    68   33  157 1    
    69   33  158 1    
    70   34   35 am   BACKBONE|DICT|INTERRES
    71   34  159 1    
    72   35   36 2    
    73   35   37 1    
    74   37   38 1    
    75   37   39 1    
    76   37  160 1    
    77   38  161 1    
    78   38  162 1    
    79   38  163 1    
    80   39   40 am   BACKBONE|DICT|INTERRES
    81   39  164 1    
    82   40   41 2    
    83   40   42 1    
    84   42   43 1    
    85   42   44 1    
    86   42  165 1    
    87   43  166 1    
    88   43  167 1    
    89   43  168 1    
    90   44   45 am   BACKBONE|DICT|INTERRES
    91   44  169 1    
    92   45   46 2    
    93   45   47 1    
    94   47   48 1    
    95   47   49 1    
    96   47  170 1    
    97   48  171 1    
    98   48  172 1    
    99   48  173 1    
   100   49   50 am   BACKBONE|DICT|INTERRES
   101   49  174 1    
   102   50   51 2    
   103   50   52 1    
   104   52   53 1    
   105   52   54 1    
   106   52  175 1    
   107   53  176 1    
   108   53  177 1    
   109   53  178 1    
   110   54   55 am   BACKBONE|DICT|INTERRES
   111   54  179 1    
   112   55   56 2    
   113   55   57 1    
   114   57   58 1    
   115   57   59 1    
   116   57  180 1    
   117   58  181 1    
   118   58  182 1    
   119   58  183 1    
   120   59   60 am   BACKBONE|DICT|INTERRES
   121   59  184 1    
   122   60   61 2    
   123   60   62 1    
   124   62   63 1    
   125   62   64 1    
   126   62  185 1    
   127   63  186 1    
   128   63  187 1    
   129   63  188 1    
   130   64   65 am   BACKBONE|DICT|INTERRES
   131   64  189 1    
   132   65   66 2    
   133   67   68 2    
   134   67   69 am   BACKBONE|DICT|INTERRES
   135   69   70 1    
   136   69  190 1    
   137   70   71 1    
   138   70   72 1    
   139   70  191 1    
   140   71  192 1    
   141   71  193 1    
   142   71  194 1    
   143   72   73 2    
   144   72   74 am   BACKBONE|DICT|INTERRES
   145   74   75 1    
   146   74  195 1    
   147   75   76 1    
   148   75   77 1    
   149   75  196 1    
   150   76  197 1    
   151   76  198 1    
   152   76  199 1    
   153   77   78 2    
   154   77   79 am   BACKBONE|DICT|INTERRES
   155   79   80 1    
   156   79  200 1    
   157   80   81 1    
   158   80   82 1    
   159   80  201 1    
   160   81  202 1    
   161   81  203 1    
   162   81  204 1    
   163   82   83 2    
   164   82   84 am   BACKBONE|DICT|INTERRES
   165   84   85 1    
   166   84  205 1    
   167   85   86 1    
   168   85   87 1    
   169   85  206 1    
   170   86  207 1    
   171   86  208 1    
   172   86  209 1    
   173   87   88 2    
   174   87   89 am   BACKBONE|DICT|INTERRES
   175   89   90 1    
   176   89  210 1    
   177   90   91 1    
   178   90   92 1    
   179   90  211 1    
   180   91  212 1    
   181   91  213 1    
   182   91  214 1    
   183   92   93 2    
   184   92   94 am   BACKBONE|DICT|INTERRES
   185   94   95 1    
   186   94  215 1    
   187   95   96 1    
   188   95   97 1    
   189   95  216 1    
   190   96  217 1    
   191   96  218 1    
   192   96  219 1    
   193   97   98 2    
   194   97   99 am   BACKBONE|DICT|INTERRES
   195   99  100 1    
   196   99  220 1    
   197  100  101 1    
   198  100  102 1    
   199  100  221 1    
   200  101  222 1    
   201  101  223 1    
   202  101  224 1    
   203  102  103 2    
   204  102  104 am   BACKBONE|DICT|INTERRES
   205  104  105 1    
   206  104  225 1    
   207  105  106 1    
   208  105  107 1    
   209  105  226 1    
   210  106  227 1    
   211  106  228 1    
   212  106  229 1    
   213  107  108 2    
   214  107  109 am   BACKBONE|DICT|INTERRES
   215  109  110 1    
   216  109  230 1    
   217  110  111 1    
   218  110  112 1    
   219  110  231 1    
   220  111  232 1    
   221  111  233 1    
   222  111  234 1    
   223  112  113 2    
   224  112  114 am   BACKBONE|DICT|INTERRES
   225  114  115 1    
   226  114  235 1    
   227  115  116 1    
   228  115  117 1    
   229  115  236 1    
   230  116  237 1    
   231  116  238 1    
   232  116  239 1    
   233  117  118 2    
   234  117  119 am   BACKBONE|DICT|INTERRES
   235  119  120 1    
   236  119  240 1    
   237  120  121 1    
   238  120  124 1    
   239  120  241 1    
   240  121  122 am   BACKBONE|DICT|INTERRES
   241  121  123 2    
   242  122  242 1    
   243  122  243 1    
   244  124  125 1    
   245  124  244 1    
   246  124  245 1    
   247  125  126 1    
   248  126  246 1    
   249  126  247 1    
@<TRIPOS>SUBSTRUCTURE
     1 UNK         1 GROUP             0       ****    0 ROOT    
