@<TRIPOS>MOLECULE
3R540
247   249    1
SMALL
USER_CHARGES


@<TRIPOS>ATOM
      1 CA          7.7188  -17.3966  -53.1924 C.3       0 UNK        -0.1800 
      2 C           6.7604  -17.1684  -52.0325 C.2       0 UNK         0.5000 
      3 O           6.7073  -17.9825  -51.1094 O.2       0 UNK        -0.5000 
      4 N           6.0048  -16.0633  -52.0675 N.am      1 UNK        -0.5000 
      5 CA          5.0472  -15.6566  -51.0350 C.3       1 UNK         0.1400 
      6 C6          3.9283  -14.7641  -51.6306 C.3       23 UNK        -0.0398 
      7 S7          2.5140  -14.4754  -50.5090 S.3       23 UNK        -0.2404 
      8 C8          1.7085  -16.1055  -50.4841 C.3       23 UNK        -0.0205 
      9 C9          0.2543  -15.9871  -50.0562 C.ar      23 UNK        -0.0193 
     10 C10        -0.7491  -15.9320  -51.0264 C.ar      23 UNK        -0.1150 
     11 C11        -2.0923  -15.8169  -50.6588 C.ar      23 UNK        -0.0193 
     12 C12        -2.4239  -15.7380  -49.3030 C.ar      23 UNK        -0.1150 
     13 C13        -1.4296  -15.7763  -48.3193 C.ar      23 UNK        -0.0193 
     14 C14        -0.0911  -15.9123  -48.7026 C.ar      23 UNK        -0.1150 
     15 C15        -1.8016  -15.5997  -46.8528 C.3       23 UNK        -0.0205 
     16 S16        -2.9044  -16.9165  -46.2469 S.3       23 UNK        -0.2404 
     17 C17        -1.7748  -17.9533  -45.2588 C.3       23 UNK        -0.0398 
     18 CA         -0.9942  -19.0138  -46.0689 C.3       11 UNK         0.1400 
     19 N           0.0056  -19.6734  -45.2280 N.am      11 UNK        -0.5000 
     20 C           0.9351  -20.5374  -45.6562 C.2       10 UNK         0.5000 
     21 O           1.1169  -20.8202  -46.8394 O.2       10 UNK        -0.5000 
     22 CA          1.7632  -21.2417  -44.5685 C.3       10 UNK         0.1400 
     23 CB          2.9396  -20.3662  -44.1108 C.3       10 UNK        -0.1800 
     24 N           0.9376  -21.5976  -43.4139 N.am      10 UNK        -0.5000 
     25 C           0.0329  -22.5862  -43.4115 C.2       9 UNK         0.5000 
     26 O          -0.1794  -23.3177  -44.3784 O.2       9 UNK        -0.5000 
     27 CA         -0.7956  -22.7659  -42.1252 C.3       9 UNK         0.1400 
     28 CB         -0.0201  -23.5988  -41.0939 C.3       9 UNK        -0.1800 
     29 N          -1.1944  -21.4930  -41.5208 N.am      9 UNK        -0.5000 
     30 C          -2.0596  -20.6344  -42.0776 C.2       8 UNK         0.5000 
     31 O          -2.6225  -20.8344  -43.1521 O.2       8 UNK        -0.5000 
     32 CA         -2.3036  -19.3055  -41.3397 C.3       8 UNK         0.1400 
     33 CB         -3.3958  -19.4717  -40.2735 C.3       8 UNK        -0.1800 
     34 N          -1.1121  -18.7170  -40.7230 N.am      8 UNK        -0.5000 
     35 C           0.0430  -18.4501  -41.3470 C.2       7 UNK         0.5000 
     36 O           0.2915  -18.7889  -42.5055 O.2       7 UNK        -0.5000 
     37 CA          1.0530  -17.6152  -40.5454 C.3       7 UNK         0.1400 
     38 CB          2.4289  -17.5284  -41.2312 C.3       7 UNK        -0.1800 
     39 N           0.5026  -16.2708  -40.4121 N.am      7 UNK        -0.5000 
     40 C          -0.1292  -15.7867  -39.3350 C.2       6 UNK         0.5000 
     41 O          -0.2394  -16.4056  -38.2761 O.2       6 UNK        -0.5000 
     42 CA         -0.7698  -14.3884  -39.4646 C.3       6 UNK         0.1400 
     43 CB          0.1816  -13.3115  -38.9212 C.3       6 UNK        -0.1800 
     44 N          -1.1377  -14.0452  -40.8402 N.am      6 UNK        -0.5000 
     45 C          -2.1205  -14.6281  -41.5421 C.2       5 UNK         0.5000 
     46 O          -2.8955  -15.4600  -41.0697 O.2       5 UNK        -0.5000 
     47 CA         -2.2388  -14.2420  -43.0329 C.3       5 UNK         0.1400 
     48 CB         -3.3283  -13.1779  -43.2306 C.3       5 UNK        -0.1800 
     49 N          -0.9908  -13.7700  -43.6503 N.am      5 UNK        -0.5000 
     50 C           0.1357  -14.4882  -43.7344 C.2       4 UNK         0.5000 
     51 O           0.2684  -15.6028  -43.2256 O.2       4 UNK        -0.5000 
     52 CA          1.3151  -13.8645  -44.4902 C.3       4 UNK         0.1400 
     53 CB          2.0066  -12.7809  -43.6463 C.3       4 UNK        -0.1800 
     54 N           2.2580  -14.9390  -44.7717 N.am      4 UNK        -0.5000 
     55 C           3.0315  -15.0534  -45.8511 C.2       3 UNK         0.5000 
     56 O           3.0998  -14.2048  -46.7423 O.2       3 UNK        -0.5000 
     57 CA          3.8164  -16.3749  -45.9584 C.3       3 UNK         0.1400 
     58 CB          2.8965  -17.5032  -46.4534 C.3       3 UNK        -0.1800 
     59 N           4.9559  -16.2776  -46.8658 N.am      3 UNK        -0.5000 
     60 C           6.0788  -15.5803  -46.6430 C.2       2 UNK         0.5000 
     61 O           6.3232  -14.9933  -45.5880 O.2       2 UNK        -0.5000 
     62 CA          7.1079  -15.5444  -47.7921 C.3       2 UNK         0.1400 
     63 CB          8.2567  -16.5276  -47.5200 C.3       2 UNK        -0.1800 
     64 N           6.5000  -15.8751  -49.0827 N.am      2 UNK        -0.5000 
     65 C           5.7844  -15.0270  -49.8311 C.2       1 UNK         0.5000 
     66 O           5.7142  -13.8171  -49.6098 O.2       1 UNK        -0.5000 
     67 C          -1.9168  -20.0462  -46.7542 C.2       11 UNK         0.5000 
     68 O          -2.1031  -19.9787  -47.9683 O.2       11 UNK        -0.5000 
     69 N          -2.4220  -21.0224  -45.9836 N.am      12 UNK        -0.5000 
     70 CA         -3.2208  -22.1410  -46.4849 C.3       12 UNK         0.1400 
     71 CB         -3.7456  -22.9862  -45.3159 C.3       12 UNK        -0.1800 
     72 C          -2.4545  -23.0194  -47.4869 C.2       12 UNK         0.5000 
     73 O          -3.0273  -23.3919  -48.5104 O.2       12 UNK        -0.5000 
     74 N          -1.1758  -23.3053  -47.2026 N.am      13 UNK        -0.5000 
     75 CA         -0.2762  -24.0363  -48.0962 C.3       13 UNK         0.1400 
     76 CB          1.0448  -24.3466  -47.3771 C.3       13 UNK        -0.1800 
     77 C          -0.0279  -23.2929  -49.4217 C.2       13 UNK         0.5000 
     78 O          -0.1411  -23.9061  -50.4836 O.2       13 UNK        -0.5000 
     79 N           0.2419  -21.9806  -49.3443 N.am      14 UNK        -0.5000 
     80 CA          0.3943  -21.0872  -50.4981 C.3       14 UNK         0.1400 
     81 CB          0.8341  -19.6941  -50.0207 C.3       14 UNK        -0.1800 
     82 C          -0.8826  -20.9912  -51.3558 C.2       14 UNK         0.5000 
     83 O          -0.7931  -20.9453  -52.5823 O.2       14 UNK        -0.5000 
     84 N          -2.0455  -21.0235  -50.6939 N.am      15 UNK        -0.5000 
     85 CA         -3.3782  -21.0655  -51.2937 C.3       15 UNK         0.1400 
     86 CB         -4.3915  -20.5553  -50.2567 C.3       15 UNK        -0.1800 
     87 C          -3.7896  -22.4502  -51.8408 C.2       15 UNK         0.5000 
     88 O          -4.9300  -22.5838  -52.2888 O.2       15 UNK        -0.5000 
     89 N          -2.8795  -23.4360  -51.8016 N.am      16 UNK        -0.5000 
     90 CA         -3.0215  -24.8214  -52.2600 C.3       16 UNK         0.1400 
     91 CB         -3.3225  -24.8909  -53.7707 C.3       16 UNK        -0.1800 
     92 C          -4.0239  -25.6147  -51.4034 C.2       16 UNK         0.5000 
     93 O          -5.0217  -26.1216  -51.9158 O.2       16 UNK        -0.5000 
     94 N          -3.7304  -25.6855  -50.0984 N.am      17 UNK        -0.5000 
     95 CA         -4.5271  -26.3114  -49.0371 C.3       17 UNK         0.1400 
     96 CB         -4.6878  -27.8292  -49.2665 C.3       17 UNK        -0.1800 
     97 C          -5.8620  -25.5732  -48.8173 C.2       17 UNK         0.5000 
     98 O          -6.9139  -26.2027  -48.6930 O.2       17 UNK        -0.5000 
     99 N          -5.7723  -24.2352  -48.7844 N.am      18 UNK        -0.5000 
    100 CA        -6.8622  -23.2712  -48.5995 C.3       18 UNK         0.1400 
    101 CB        -7.4688  -23.3939  -47.1863 C.3       18 UNK        -0.1800 
    102 C         -7.9264  -23.3082  -49.7191 C.2       18 UNK         0.5000 
    103 O         -9.0842  -22.9629  -49.4783 O.2       18 UNK        -0.5000 
    104 N         -7.5140  -23.6939  -50.9350 N.am      19 UNK        -0.5000 
    105 CA        -8.3536  -23.7064  -52.1363 C.3       19 UNK         0.1400 
    106 CB        -7.7362  -24.6685  -53.1626 C.3       19 UNK        -0.1800 
    107 C         -8.5376  -22.3075  -52.7589 C.2       19 UNK         0.5000 
    108 O         -9.3943  -22.1463  -53.6288 O.2       19 UNK        -0.5000 
    109 N         -7.7215  -21.3385  -52.3161 N.am      20 UNK        -0.5000 
    110 CA        -7.6045  -19.9644  -52.8142 C.3       20 UNK         0.1400 
    111 CB        -8.9223  -19.1808  -52.6385 C.3       20 UNK        -0.1800 
    112 C         -7.0456  -19.9206  -54.2502 C.2       20 UNK         0.5000 
    113 O         -7.4748  -19.0999  -55.0623 O.2       20 UNK        -0.5000 
    114 N         -6.0866  -20.8144  -54.5333 N.am      21 UNK        -0.5000 
    115 CA        -5.4037  -20.9196  -55.8249 C.3       21 UNK         0.1400 
    116 CB        -4.7323  -22.2970  -55.9112 C.3       21 UNK        -0.1800 
    117 C         -4.3633  -19.8055  -56.0593 C.2       21 UNK         0.5000 
    118 O         -3.9541  -19.5919  -57.2016 O.2       21 UNK        -0.5000 
    119 N         -3.9373  -19.1382  -54.9804 N.am      22 UNK        -0.5000 
    120 CA        -2.9945  -18.0136  -54.9897 C.3       22 UNK         0.1400 
    121 C         -3.5580  -16.7205  -55.6494 C.2       22 UNK         0.5000 
    122 N         -2.6902  -15.8374  -56.1261 N.am      22 UNK        -0.7600 
    123 O         -4.7640  -16.4922  -55.7120 O.2       22 UNK        -0.5000 
    124 C124       -2.4270  -17.7485  -53.5717 C.3       23 UNK        -0.0398 
    125 S125       -3.6938  -17.3880  -52.2997 S.3       23 UNK        -0.2404 
    126 C126       -3.1824  -15.7389  -51.7202 C.3       23 UNK        -0.0205 
    127 H127        7.6580  -16.5979  -53.9321 H         1 UNK         0.0600 
    128 H128        7.4881  -18.3389  -53.6893 H         1 UNK         0.0600 
    129 H129        8.7446  -17.4446  -52.8269 H         1 UNK         0.0600 
    130 H130        6.1184  -15.4173  -52.8361 H         1 UNK         0.3000 
    131 H131        4.5616  -16.5624  -50.6660 H         1 UNK         0.0600 
    132 H132        4.3304  -13.7958  -51.9332 H         1 UNK         0.0800 
    133 H133        3.5385  -15.2181  -52.5428 H         1 UNK         0.0800 
    134 H134        2.2439  -16.7684  -49.8040 H         1 UNK         0.0800 
    135 H135        1.7696  -16.5631  -51.4728 H         1 UNK         0.0800 
    136 H136       -0.4754  -15.9651  -52.0698 H         1 UNK         0.1150 
    137 H137       -3.4587  -15.6297  -49.0097 H         1 UNK         0.1150 
    138 H138        0.6857  -15.9244  -47.9523 H         1 UNK         0.1150 
    139 H139       -0.9060  -15.5442  -46.2352 H         1 UNK         0.0800 
    140 H140       -2.3096  -14.6415  -46.7357 H         1 UNK         0.0800 
    141 H141       -2.3676  -18.4369  -44.4823 H         1 UNK         0.0800 
    142 H142       -1.0782  -17.3049  -44.7276 H         1 UNK         0.0800 
    143 H143       -0.4480  -18.4937  -46.8589 H         1 UNK         0.0600 
    144 H144       -0.0269  -19.4652  -44.2327 H         1 UNK         0.3000 
    145 H145        2.1715  -22.1605  -44.9945 H         1 UNK         0.0600 
    146 H146        3.4943  -20.8405  -43.3013 H         1 UNK         0.0600 
    147 H147        3.6413  -20.2046  -44.9291 H         1 UNK         0.0600 
    148 H148        2.6087  -19.3875  -43.7624 H         1 UNK         0.0600 
    149 H149        0.9899  -20.9825  -42.6141 H         1 UNK         0.3000 
    150 H150       -1.7026  -23.3134  -42.3902 H         1 UNK         0.0600 
    151 H151        0.2748  -24.5619  -41.5129 H         1 UNK         0.0600 
    152 H152       -0.6294  -23.8020  -40.2130 H         1 UNK         0.0600 
    153 H153        0.8879  -23.0918  -40.7651 H         1 UNK         0.0600 
    154 H154       -0.7676  -21.2462  -40.6401 H         1 UNK         0.3000 
    155 H155       -2.6640  -18.5864  -42.0777 H         1 UNK         0.0600 
    156 H156       -3.0769  -20.1367  -39.4700 H         1 UNK         0.0600 
    157 H157       -4.3051  -19.8908  -40.7067 H         1 UNK         0.0600 
    158 H158       -3.6620  -18.5115  -39.8306 H         1 UNK         0.0600 
    159 H159       -1.2247  -18.3770  -39.7783 H         1 UNK         0.3000 
    160 H160        1.1876  -18.0836  -39.5685 H         1 UNK         0.0600 
    161 H161        2.3620  -17.0852  -42.2251 H         1 UNK         0.0600 
    162 H162        2.8712  -18.5190  -41.3417 H         1 UNK         0.0600 
    163 H163        3.1222  -16.9261  -40.6442 H         1 UNK         0.0600 
    164 H164        0.4525  -15.7486  -41.2811 H         1 UNK         0.3000 
    165 H165       -1.6772  -14.3831  -38.8571 H         1 UNK         0.0600 
    166 H166       -0.2854  -12.3266  -38.9390 H         1 UNK         0.0600 
    167 H167        0.4577  -13.5202  -37.8867 H         1 UNK         0.0600 
    168 H168        1.1031  -13.2580  -39.5025 H         1 UNK         0.0600 
    169 H169       -0.5580  -13.3650  -41.3085 H         1 UNK         0.3000 
    170 H170       -2.5451  -15.1429  -43.5688 H         1 UNK         0.0600 
    171 H171       -4.2782  -13.5066  -42.8066 H         1 UNK         0.0600 
    172 H172       -3.0620  -12.2360  -42.7493 H         1 UNK         0.0600 
    173 H173       -3.4990  -12.9800  -44.2890 H         1 UNK         0.0600 
    174 H174       -1.0212  -12.8528  -44.0722 H         1 UNK         0.3000 
    175 H175        0.9426  -13.4357  -45.4229 H         1 UNK         0.0600 
    176 H176        2.3635  -13.1786  -42.6952 H         1 UNK         0.0600 
    177 H177        2.8628  -12.3600  -44.1737 H         1 UNK         0.0600 
    178 H178        1.3260  -11.9579  -43.4259 H         1 UNK         0.0600 
    179 H179        2.1775  -15.7144  -44.1252 H         1 UNK         0.3000 
    180 H180        4.1910  -16.6368  -44.9665 H         1 UNK         0.0600 
    181 H181        2.5036  -17.2977  -47.4484 H         1 UNK         0.0600 
    182 H182        2.0449  -17.6382  -45.7858 H         1 UNK         0.0600 
    183 H183        3.4271  -18.4533  -46.5017 H         1 UNK         0.0600 
    184 H184        4.8427  -16.7035  -47.7719 H         1 UNK         0.3000 
    185 H185        7.5229  -14.5353  -47.8379 H         1 UNK         0.0600 
    186 H186        8.7525  -16.2976  -46.5759 H         1 UNK         0.0600 
    187 H187        7.9010  -17.5570  -47.4625 H         1 UNK         0.0600 
    188 H188        9.0125  -16.4769  -48.3040 H         1 UNK         0.0600 
    189 H189        6.5864  -16.8342  -49.4032 H         1 UNK         0.3000 
    190 H190       -2.2724  -20.9922  -44.9781 H         1 UNK         0.3000 
    191 H191       -4.0827  -21.7212  -47.0066 H         1 UNK         0.0600 
    192 H192       -2.9325  -23.3846  -44.7089 H         1 UNK         0.0600 
    193 H193       -4.3316  -23.8327  -45.6762 H         1 UNK         0.0600 
    194 H194       -4.3920  -22.3978  -44.6646 H         1 UNK         0.0600 
    195 H195       -0.7925  -23.0092  -46.3113 H         1 UNK         0.3000 
    196 H196       -0.7552  -24.9876  -48.3368 H         1 UNK         0.0600 
    197 H197        1.7104  -24.9255  -48.0184 H         1 UNK         0.0600 
    198 H198        0.8732  -24.9322  -46.4738 H         1 UNK         0.0600 
    199 H199        1.5746  -23.4387  -47.0909 H         1 UNK         0.0600 
    200 H200        0.3521  -21.5567  -48.4262 H         1 UNK         0.3000 
    201 H201        1.1859  -21.4960  -51.1292 H         1 UNK         0.0600 
    202 H202        1.7721  -19.7423  -49.4674 H         1 UNK         0.0600 
    203 H203        0.0880  -19.2333  -49.3727 H         1 UNK         0.0600 
    204 H204        0.9881  -19.0254  -50.8680 H         1 UNK         0.0600 
    205 H205       -2.0163  -20.9858  -49.6790 H         1 UNK         0.3000 
    206 H206       -3.3926  -20.3833  -52.1441 H         1 UNK         0.0600 
    207 H207       -5.4054  -20.5422  -50.6525 H         1 UNK         0.0600 
    208 H208       -4.3939  -21.1787  -49.3642 H         1 UNK         0.0600 
    209 H209       -4.1540  -19.5369  -49.9473 H         1 UNK         0.0600 
    210 H210       -1.9832  -23.2229  -51.3806 H         1 UNK         0.3000 
    211 H211       -2.0484  -25.2903  -52.1067 H         1 UNK         0.0600 
    212 H212       -4.3153  -24.5090  -54.0057 H         1 UNK         0.0600 
    213 H213       -3.2828  -25.9213  -54.1252 H         1 UNK         0.0600 
    214 H214       -2.5929  -24.3210  -54.3456 H         1 UNK         0.0600 
    215 H215       -2.9493  -25.1319  -49.7683 H         1 UNK         0.3000 
    216 H216       -3.9569  -26.1822  -48.1159 H         1 UNK         0.0600 
    217 H217       -5.1544  -28.3044  -48.4030 H         1 UNK         0.0600 
    218 H218       -3.7211  -28.3095  -49.4178 H         1 UNK         0.0600 
    219 H219       -5.3116  -28.0489  -50.1332 H         1 UNK         0.0600 
    220 H220       -4.8409  -23.8389  -48.8816 H         1 UNK         0.3000 
    221 H221       -6.4033  -22.2847  -48.6650 H         1 UNK         0.0600 
    222 H222       -8.0058  -24.3338  -47.0556 H         1 UNK         0.0600 
    223 H223       -6.6970  -23.3385  -46.4191 H         1 UNK         0.0600 
    224 H224       -8.1743  -22.5856  -46.9905 H         1 UNK         0.0600 
    225 H225       -6.5459  -23.9571  -51.0657 H         1 UNK         0.3000 
    226 H226       -9.3440  -24.0816  -51.8709 H         1 UNK         0.0600 
    227 H227       -7.6523  -25.6765  -52.7562 H         1 UNK         0.0600 
    228 H228       -8.3496  -24.7317  -54.0622 H         1 UNK         0.0600 
    229 H229       -6.7400  -24.3456  -53.4667 H         1 UNK         0.0600 
    230 H230       -7.0186  -21.6247  -51.6497 H         1 UNK         0.3000 
    231 H231       -6.8566  -19.4740  -52.1905 H         1 UNK         0.0600 
    232 H232       -9.2876  -19.2490  -51.6138 H         1 UNK         0.0600 
    233 H233       -9.7076  -19.5461  -53.3005 H         1 UNK         0.0600 
    234 H234       -8.7772  -18.1231  -52.8610 H         1 UNK         0.0600 
    235 H235       -5.8047  -21.4739  -53.8155 H         1 UNK         0.3000 
    236 H236       -6.1495  -20.8510  -56.6196 H         1 UNK         0.0600 
    237 H237       -4.2755  -22.4501  -56.8898 H         1 UNK         0.0600 
    238 H238       -3.9460  -22.3990  -55.1631 H         1 UNK         0.0600 
    239 H239       -5.4532  -23.1005  -55.7589 H         1 UNK         0.0600 
    240 H240       -4.3667  -19.3430  -54.0923 H         1 UNK         0.3000 
    241 H241       -2.1544  -18.3293  -55.6117 H         1 UNK         0.0600 
    242 H242       -3.0397  -14.9908  -56.5481 H         1 UNK         0.3800 
    243 H243       -1.6951  -15.9969  -56.0961 H         1 UNK         0.3800 
    244 H244       -1.6977  -16.9416  -53.6189 H         1 UNK         0.0800 
    245 H245       -1.8653  -18.6201  -53.2378 H         1 UNK         0.0800 
    246 H246       -2.8515  -15.1292  -52.5624 H         1 UNK         0.0800 
    247 H247       -4.0581  -15.2320  -51.3123 H         1 UNK         0.0800 
@<TRIPOS>BOND
     1    1    2 1    
     2    1  127 1    
     3    1  128 1    
     4    1  129 1    
     5    2    3 2    
     6    2    4 am   BACKBONE|DICT|INTERRES
     7    4    5 1    
     8    4  130 1    
     9    5    6 1    
    10    5   65 1    
    11    5  131 1    
    12    6    7 1    
    13    6  132 1    
    14    6  133 1    
    15    7    8 1    
    16    8    9 1    
    17    8  134 1    
    18    8  135 1    
    19    9   10 ar   
    20    9   14 ar   
    21   10   11 ar   
    22   10  136 1    
    23   11   12 ar   
    24   11  126 1    
    25   12   13 ar   
    26   12  137 1    
    27   13   14 ar   
    28   13   15 1    
    29   14  138 1    
    30   15   16 1    
    31   15  139 1    
    32   15  140 1    
    33   16   17 1    
    34   17   18 1    
    35   17  141 1    
    36   17  142 1    
    37   18   19 1    
    38   18   67 1    
    39   18  143 1    
    40   19   20 am   BACKBONE|DICT|INTERRES
    41   19  144 1    
    42   20   21 2    
    43   20   22 1    
    44   22   23 1    
    45   22   24 1    
    46   22  145 1    
    47   23  146 1    
    48   23  147 1    
    49   23  148 1    
    50   24   25 am   BACKBONE|DICT|INTERRES
    51   24  149 1    
    52   25   26 2    
    53   25   27 1    
    54   27   28 1    
    55   27   29 1    
    56   27  150 1    
    57   28  151 1    
    58   28  152 1    
    59   28  153 1    
    60   29   30 am   BACKBONE|DICT|INTERRES
    61   29  154 1    
    62   30   31 2    
    63   30   32 1    
    64   32   33 1    
    65   32   34 1    
    66   32  155 1    
    67   33  156 1    
    68   33  157 1    
    69   33  158 1    
    70   34   35 am   BACKBONE|DICT|INTERRES
    71   34  159 1    
    72   35   36 2    
    73   35   37 1    
    74   37   38 1    
    75   37   39 1    
    76   37  160 1    
    77   38  161 1    
    78   38  162 1    
    79   38  163 1    
    80   39   40 am   BACKBONE|DICT|INTERRES
    81   39  164 1    
    82   40   41 2    
    83   40   42 1    
    84   42   43 1    
    85   42   44 1    
    86   42  165 1    
    87   43  166 1    
    88   43  167 1    
    89   43  168 1    
    90   44   45 am   BACKBONE|DICT|INTERRES
    91   44  169 1    
    92   45   46 2    
    93   45   47 1    
    94   47   48 1    
    95   47   49 1    
    96   47  170 1    
    97   48  171 1    
    98   48  172 1    
    99   48  173 1    
   100   49   50 am   BACKBONE|DICT|INTERRES
   101   49  174 1    
   102   50   51 2    
   103   50   52 1    
   104   52   53 1    
   105   52   54 1    
   106   52  175 1    
   107   53  176 1    
   108   53  177 1    
   109   53  178 1    
   110   54   55 am   BACKBONE|DICT|INTERRES
   111   54  179 1    
   112   55   56 2    
   113   55   57 1    
   114   57   58 1    
   115   57   59 1    
   116   57  180 1    
   117   58  181 1    
   118   58  182 1    
   119   58  183 1    
   120   59   60 am   BACKBONE|DICT|INTERRES
   121   59  184 1    
   122   60   61 2    
   123   60   62 1    
   124   62   63 1    
   125   62   64 1    
   126   62  185 1    
   127   63  186 1    
   128   63  187 1    
   129   63  188 1    
   130   64   65 am   BACKBONE|DICT|INTERRES
   131   64  189 1    
   132   65   66 2    
   133   67   68 2    
   134   67   69 am   BACKBONE|DICT|INTERRES
   135   69   70 1    
   136   69  190 1    
   137   70   71 1    
   138   70   72 1    
   139   70  191 1    
   140   71  192 1    
   141   71  193 1    
   142   71  194 1    
   143   72   73 2    
   144   72   74 am   BACKBONE|DICT|INTERRES
   145   74   75 1    
   146   74  195 1    
   147   75   76 1    
   148   75   77 1    
   149   75  196 1    
   150   76  197 1    
   151   76  198 1    
   152   76  199 1    
   153   77   78 2    
   154   77   79 am   BACKBONE|DICT|INTERRES
   155   79   80 1    
   156   79  200 1    
   157   80   81 1    
   158   80   82 1    
   159   80  201 1    
   160   81  202 1    
   161   81  203 1    
   162   81  204 1    
   163   82   83 2    
   164   82   84 am   BACKBONE|DICT|INTERRES
   165   84   85 1    
   166   84  205 1    
   167   85   86 1    
   168   85   87 1    
   169   85  206 1    
   170   86  207 1    
   171   86  208 1    
   172   86  209 1    
   173   87   88 2    
   174   87   89 am   BACKBONE|DICT|INTERRES
   175   89   90 1    
   176   89  210 1    
   177   90   91 1    
   178   90   92 1    
   179   90  211 1    
   180   91  212 1    
   181   91  213 1    
   182   91  214 1    
   183   92   93 2    
   184   92   94 am   BACKBONE|DICT|INTERRES
   185   94   95 1    
   186   94  215 1    
   187   95   96 1    
   188   95   97 1    
   189   95  216 1    
   190   96  217 1    
   191   96  218 1    
   192   96  219 1    
   193   97   98 2    
   194   97   99 am   BACKBONE|DICT|INTERRES
   195   99  100 1    
   196   99  220 1    
   197  100  101 1    
   198  100  102 1    
   199  100  221 1    
   200  101  222 1    
   201  101  223 1    
   202  101  224 1    
   203  102  103 2    
   204  102  104 am   BACKBONE|DICT|INTERRES
   205  104  105 1    
   206  104  225 1    
   207  105  106 1    
   208  105  107 1    
   209  105  226 1    
   210  106  227 1    
   211  106  228 1    
   212  106  229 1    
   213  107  108 2    
   214  107  109 am   BACKBONE|DICT|INTERRES
   215  109  110 1    
   216  109  230 1    
   217  110  111 1    
   218  110  112 1    
   219  110  231 1    
   220  111  232 1    
   221  111  233 1    
   222  111  234 1    
   223  112  113 2    
   224  112  114 am   BACKBONE|DICT|INTERRES
   225  114  115 1    
   226  114  235 1    
   227  115  116 1    
   228  115  117 1    
   229  115  236 1    
   230  116  237 1    
   231  116  238 1    
   232  116  239 1    
   233  117  118 2    
   234  117  119 am   BACKBONE|DICT|INTERRES
   235  119  120 1    
   236  119  240 1    
   237  120  121 1    
   238  120  124 1    
   239  120  241 1    
   240  121  122 am   BACKBONE|DICT|INTERRES
   241  121  123 2    
   242  122  242 1    
   243  122  243 1    
   244  124  125 1    
   245  124  244 1    
   246  124  245 1    
   247  125  126 1    
   248  126  246 1    
   249  126  247 1    
@<TRIPOS>SUBSTRUCTURE
     1 UNK         1 GROUP             0       ****    0 ROOT    
