@<TRIPOS>MOLECULE
3R540
247   249    1
SMALL
USER_CHARGES


@<TRIPOS>ATOM
      1 CA          1.7089  -14.6630  -52.8875 C.3       0 UNK        -0.1800 
      2 C           1.0353  -14.5344  -51.5287 C.2       0 UNK         0.5000 
      3 O           1.3935  -15.2525  -50.5947 O.2       0 UNK        -0.5000 
      4 N           0.0765  -13.6065  -51.4080 N.am      1 UNK        -0.5000 
      5 CA         -0.6757  -13.2981  -50.1852 C.3       1 UNK         0.1400 
      6 C6         -2.0437  -12.6519  -50.5301 C.3       23 UNK        -0.0398 
      7 S7         -3.2419  -12.7472  -49.1546 S.3       23 UNK        -0.2404 
      8 C8         -4.2925  -14.1399  -49.6707 C.3       23 UNK        -0.0205 
      9 C9         -3.5321  -15.4567  -49.6705 C.ar      23 UNK        -0.0193 
     10 C10        -3.1529  -16.0522  -50.8768 C.ar      23 UNK        -0.1150 
     11 C11        -2.4854  -17.2796  -50.8844 C.ar      23 UNK        -0.0193 
     12 C12        -2.1756  -17.8973  -49.6696 C.ar      23 UNK        -0.1150 
     13 C13        -2.5710  -17.3242  -48.4595 C.ar      23 UNK        -0.0193 
     14 C14        -3.2418  -16.0990  -48.4635 C.ar      23 UNK        -0.1150 
     15 C15        -2.3164  -18.0615  -47.1579 C.3       23 UNK        -0.0205 
     16 S16        -3.5198  -19.4099  -46.9379 S.3       23 UNK        -0.2404 
     17 C17        -2.8845  -20.1583  -45.4051 C.3       23 UNK        -0.0398 
     18 CA         -1.7852  -21.2165  -45.6789 C.3       11 UNK         0.1400 
     19 N          -0.7635  -21.1928  -44.6315 N.am      11 UNK        -0.5000 
     20 C           0.3899  -21.8727  -44.6159 C.2       10 UNK         0.5000 
     21 O           0.7575  -22.6100  -45.5300 O.2       10 UNK        -0.5000 
     22 CA          1.2318  -21.7729  -43.3282 C.3       10 UNK         0.1400 
     23 CB          2.4076  -20.8028  -43.5121 C.3       10 UNK        -0.1800 
     24 N           0.4584  -21.3833  -42.1421 N.am      10 UNK        -0.5000 
     25 C          -0.5532  -22.0943  -41.6143 C.2       9 UNK         0.5000 
     26 O          -0.9684  -23.1420  -42.1136 O.2       9 UNK        -0.5000 
     27 CA         -1.2374  -21.5269  -40.3496 C.3       9 UNK         0.1400 
     28 CB         -1.8855  -22.6229  -39.4780 C.3       9 UNK        -0.1800 
     29 N          -0.3606  -20.6665  -39.5491 N.am      9 UNK        -0.5000 
     30 C           0.7982  -21.0043  -38.9628 C.2       8 UNK         0.5000 
     31 O           1.2307  -22.1571  -38.9179 O.2       8 UNK        -0.5000 
     32 CA          1.6221  -19.8566  -38.3351 C.3       8 UNK         0.1400 
     33 CB          3.1394  -20.0747  -38.5128 C.3       8 UNK        -0.1800 
     34 N           1.2545  -18.5051  -38.7885 N.am      8 UNK        -0.5000 
     35 C           1.2757  -18.0276  -40.0425 C.2       7 UNK         0.5000 
     36 O           1.5251  -18.7125  -41.0371 O.2       7 UNK        -0.5000 
     37 CA          0.9861  -16.5210  -40.1806 C.3       7 UNK         0.1400 
     38 CB          2.2676  -15.7144  -39.9184 C.3       7 UNK        -0.1800 
     39 N           0.4543  -16.1471  -41.4904 N.am      7 UNK        -0.5000 
     40 C          -0.7322  -16.5227  -41.9865 C.2       6 UNK         0.5000 
     41 O          -1.5375  -17.2299  -41.3783 O.2       6 UNK        -0.5000 
     42 CA         -1.0775  -16.0171  -43.4013 C.3       6 UNK         0.1400 
     43 CB         -1.6105  -14.5770  -43.3579 C.3       6 UNK        -0.1800 
     44 N           0.0680  -16.0787  -44.3083 N.am      6 UNK        -0.5000 
     45 C           0.5621  -17.2176  -44.8116 C.2       5 UNK         0.5000 
     46 O           0.0478  -18.3180  -44.6255 O.2       5 UNK        -0.5000 
     47 CA          1.8430  -17.1154  -45.6566 C.3       5 UNK         0.1400 
     48 CB          1.5058  -16.8763  -47.1379 C.3       5 UNK        -0.1800 
     49 N           2.7190  -16.0495  -45.1685 N.am      5 UNK        -0.5000 
     50 C           3.5750  -16.1936  -44.1452 C.2       4 UNK         0.5000 
     51 O           3.7750  -17.2628  -43.5704 O.2       4 UNK        -0.5000 
     52 CA          4.3445  -14.9414  -43.6764 C.3       4 UNK         0.1400 
     53 CB          5.7489  -14.9131  -44.2988 C.3       4 UNK        -0.1800 
     54 N           3.6676  -13.6816  -43.9854 N.am      4 UNK        -0.5000 
     55 C           2.5145  -13.2705  -43.4396 C.2       3 UNK         0.5000 
     56 O           1.9011  -13.9015  -42.5816 O.2       3 UNK        -0.5000 
     57 CA          1.9098  -11.9725  -44.0097 C.3       3 UNK         0.1400 
     58 CB          2.4508  -10.7470  -43.2590 C.3       3 UNK        -0.1800 
     59 N           2.1602  -11.8172  -45.4469 N.am      3 UNK        -0.5000 
     60 C           1.7304  -12.6768  -46.3797 C.2       2 UNK         0.5000 
     61 O           1.0447  -13.6698  -46.1222 O.2       2 UNK        -0.5000 
     62 CA          2.2348  -12.4403  -47.8117 C.3       2 UNK         0.1400 
     63 CB          3.6144  -13.0922  -47.9970 C.3       2 UNK        -0.1800 
     64 N           1.3188  -13.0161  -48.7895 N.am      2 UNK        -0.5000 
     65 C           0.1774  -12.4572  -49.2026 C.2       1 UNK         0.5000 
     66 O          -0.1755  -11.3241  -48.8687 O.2       1 UNK        -0.5000 
     67 C          -2.3842  -22.6211  -45.9279 C.2       11 UNK         0.5000 
     68 O          -2.9324  -22.8602  -47.0043 O.2       11 UNK        -0.5000 
     69 N          -2.2265  -23.5497  -44.9713 N.am      12 UNK        -0.5000 
     70 CA         -2.5469  -24.9685  -45.1341 C.3       12 UNK         0.1400 
     71 CB         -2.3737  -25.6872  -43.7887 C.3       12 UNK        -0.1800 
     72 C          -1.7022  -25.6551  -46.2273 C.2       12 UNK         0.5000 
     73 O          -2.2225  -26.5204  -46.9310 O.2       12 UNK        -0.5000 
     74 N          -0.4408  -25.2266  -46.3980 N.am      13 UNK        -0.5000 
     75 CA          0.4542  -25.7037  -47.4584 C.3       13 UNK         0.1400 
     76 CB          1.9063  -25.3480  -47.1061 C.3       13 UNK        -0.1800 
     77 C           0.0772  -25.1432  -48.8440 C.2       13 UNK         0.5000 
     78 O           0.3571  -25.7843  -49.8567 O.2       13 UNK        -0.5000 
     79 N          -0.5875  -23.9796  -48.8597 N.am      14 UNK        -0.5000 
     80 CA         -1.1914  -23.3644  -50.0428 C.3       14 UNK         0.1400 
     81 CB         -1.2233  -21.8383  -49.8478 C.3       14 UNK        -0.1800 
     82 C          -2.6062  -23.9070  -50.3346 C.2       14 UNK         0.5000 
     83 O          -3.2314  -23.4477  -51.2911 O.2       14 UNK        -0.5000 
     84 N          -3.0924  -24.8457  -49.5065 N.am      15 UNK        -0.5000 
     85 CA         -4.4202  -25.4663  -49.5259 C.3       15 UNK         0.1400 
     86 CB         -4.6018  -26.3352  -50.7858 C.3       15 UNK        -0.1800 
     87 C          -5.5497  -24.4350  -49.3417 C.2       15 UNK         0.5000 
     88 O          -6.5442  -24.4727  -50.0668 O.2       15 UNK        -0.5000 
     89 N          -5.3501  -23.5058  -48.3945 N.am      16 UNK        -0.5000 
     90 CA         -6.2057  -22.3497  -48.1099 C.3       16 UNK         0.1400 
     91 CB         -7.5767  -22.7900  -47.5556 C.3       16 UNK        -0.1800 
     92 C          -6.3035  -21.4113  -49.3295 C.2       16 UNK         0.5000 
     93 O          -7.3991  -21.0200  -49.7339 O.2       16 UNK        -0.5000 
     94 N          -5.1281  -21.1085  -49.8993 N.am      17 UNK        -0.5000 
     95 CA         -4.8569  -20.2357  -51.0470 C.3       17 UNK         0.1400 
     96 CB         -5.5040  -18.8473  -50.8563 C.3       17 UNK        -0.1800 
     97 C          -5.1904  -20.8346  -52.4299 C.2       17 UNK         0.5000 
     98 O          -4.8892  -20.1963  -53.4421 O.2       17 UNK        -0.5000 
     99 N          -5.7909  -22.0311  -52.4683 N.am      18 UNK        -0.5000 
    100 CA        -6.2917  -22.6643  -53.6864 C.3       18 UNK         0.1400 
    101 CB        -7.3437  -23.7188  -53.3121 C.3       18 UNK        -0.1800 
    102 C         -5.1955  -23.2950  -54.5622 C.2       18 UNK         0.5000 
    103 O         -5.2688  -23.1766  -55.7856 O.2       18 UNK        -0.5000 
    104 N         -4.2140  -23.9668  -53.9434 N.am      19 UNK        -0.5000 
    105 CA        -3.1810  -24.7265  -54.6573 C.3       19 UNK         0.1400 
    106 CB        -2.6254  -25.8443  -53.7620 C.3       19 UNK        -0.1800 
    107 C         -2.0453  -23.8301  -55.1699 C.2       19 UNK         0.5000 
    108 O         -1.5149  -24.0792  -56.2529 O.2       19 UNK        -0.5000 
    109 N         -1.7093  -22.7908  -54.3949 N.am      20 UNK        -0.5000 
    110 CA        -0.7308  -21.7681  -54.7749 C.3       20 UNK         0.1400 
    111 CB        -0.1798  -21.1135  -53.5031 C.3       20 UNK        -0.1800 
    112 C         -1.3099  -20.7201  -55.7497 C.2       20 UNK         0.5000 
    113 O         -0.5420  -19.9895  -56.3747 O.2       20 UNK        -0.5000 
    114 N         -2.6458  -20.6812  -55.8700 N.am      21 UNK        -0.5000 
    115 CA        -3.4593  -19.9190  -56.8253 C.3       21 UNK         0.1400 
    116 CB        -3.0931  -20.2841  -58.2787 C.3       21 UNK        -0.1800 
    117 C         -3.4986  -18.3927  -56.6027 C.2       21 UNK         0.5000 
    118 O         -4.1576  -17.6956  -57.3759 O.2       21 UNK        -0.5000 
    119 N         -2.8455  -17.8936  -55.5461 N.am      22 UNK        -0.5000 
    120 CA        -2.9330  -16.4969  -55.0845 C.3       22 UNK         0.1400 
    121 C         -4.2942  -16.1015  -54.4340 C.2       22 UNK         0.5000 
    122 N         -5.2013  -17.0290  -54.1483 N.am      22 UNK        -0.7600 
    123 O         -4.5375  -14.9218  -54.1970 O.2       22 UNK        -0.5000 
    124 C124       -1.6999  -16.0466  -54.2379 C.3       23 UNK        -0.0398 
    125 S125       -0.8739  -17.2985  -53.1854 S.3       23 UNK        -0.2404 
    126 C126       -2.2107  -18.0128  -52.1882 C.3       23 UNK        -0.0205 
    127 H127        1.7600  -15.7102  -53.1852 H         1 UNK         0.0600 
    128 H128        1.1670  -14.1180  -53.6608 H         1 UNK         0.0600 
    129 H129        2.7254  -14.2727  -52.8396 H         1 UNK         0.0600 
    130 H130       -0.1344  -13.0211  -52.2034 H         1 UNK         0.3000 
    131 H131       -0.8799  -14.2475  -49.6847 H         1 UNK         0.0600 
    132 H132       -1.9241  -11.6081  -50.8253 H         1 UNK         0.0800 
    133 H133       -2.4821  -13.1484  -51.3968 H         1 UNK         0.0800 
    134 H134       -4.7157  -13.9338  -50.6553 H         1 UNK         0.0800 
    135 H135       -5.1391  -14.2148  -48.9868 H         1 UNK         0.0800 
    136 H136       -3.4097  -15.5739  -51.8084 H         1 UNK         0.1150 
    137 H137       -1.6785  -18.8567  -49.6619 H         1 UNK         0.1150 
    138 H138       -3.5550  -15.6521  -47.5304 H         1 UNK         0.1150 
    139 H139       -1.3064  -18.4722  -47.1621 H         1 UNK         0.0800 
    140 H140       -2.3714  -17.3760  -46.3109 H         1 UNK         0.0800 
    141 H141       -2.4991  -19.3488  -44.7833 H         1 UNK         0.0800 
    142 H142       -3.7186  -20.5799  -44.8412 H         1 UNK         0.0800 
    143 H143       -1.2580  -20.9433  -46.5951 H         1 UNK         0.0600 
    144 H144       -0.9344  -20.5692  -43.8562 H         1 UNK         0.3000 
    145 H145        1.6417  -22.7670  -43.1395 H         1 UNK         0.0600 
    146 H146        3.0738  -20.8247  -42.6495 H         1 UNK         0.0600 
    147 H147        3.0008  -21.0630  -44.3895 H         1 UNK         0.0600 
    148 H148        2.0663  -19.7755  -43.6377 H         1 UNK         0.0600 
    149 H149        0.7398  -20.5177  -41.6911 H         1 UNK         0.3000 
    150 H150       -2.0390  -20.8818  -40.7119 H         1 UNK         0.0600 
    151 H151       -2.6557  -23.1596  -40.0331 H         1 UNK         0.0600 
    152 H152       -2.3625  -22.1953  -38.5962 H         1 UNK         0.0600 
    153 H153       -1.1553  -23.3593  -39.1416 H         1 UNK         0.0600 
    154 H154       -0.6107  -19.6875  -39.5360 H         1 UNK         0.3000 
    155 H155        1.4075  -19.8870  -37.2661 H         1 UNK         0.0600 
    156 H156        3.7106  -19.2702  -38.0498 H         1 UNK         0.0600 
    157 H157        3.4191  -20.1212  -39.5660 H         1 UNK         0.0600 
    158 H158        3.4620  -21.0067  -38.0473 H         1 UNK         0.0600 
    159 H159        1.0139  -17.8633  -38.0454 H         1 UNK         0.3000 
    160 H160        0.2417  -16.2442  -39.4313 H         1 UNK         0.0600 
    161 H161        3.0300  -15.9229  -40.6700 H         1 UNK         0.0600 
    162 H162        2.6940  -15.9521  -38.9431 H         1 UNK         0.0600 
    163 H163        2.0688  -14.6426  -39.9304 H         1 UNK         0.0600 
    164 H164        1.0349  -15.5248  -42.0445 H         1 UNK         0.3000 
    165 H165       -1.8679  -16.6565  -43.8003 H         1 UNK         0.0600 
    166 H166       -0.8649  -13.8812  -42.9719 H         1 UNK         0.0600 
    167 H167       -1.9033  -14.2358  -44.3512 H         1 UNK         0.0600 
    168 H168       -2.4895  -14.5061  -42.7162 H         1 UNK         0.0600 
    169 H169        0.5191  -15.2046  -44.5446 H         1 UNK         0.3000 
    170 H170        2.3691  -18.0700  -45.5863 H         1 UNK         0.0600 
    171 H171        0.9693  -17.7289  -47.5545 H         1 UNK         0.0600 
    172 H172        0.8762  -15.9981  -47.2810 H         1 UNK         0.0600 
    173 H173        2.4081  -16.7415  -47.7344 H         1 UNK         0.0600 
    174 H174        2.5690  -15.1304  -45.5621 H         1 UNK         0.3000 
    175 H175        4.4516  -15.0091  -42.5919 H         1 UNK         0.0600 
    176 H176        5.7058  -14.8239  -45.3851 H         1 UNK         0.0600 
    177 H177        6.3344  -14.0775  -43.9150 H         1 UNK         0.0600 
    178 H178        6.2980  -15.8265  -44.0660 H         1 UNK         0.0600 
    179 H179        4.0992  -13.0974  -44.6857 H         1 UNK         0.3000 
    180 H180        0.8290  -12.0176  -43.8598 H         1 UNK         0.0600 
    181 H181        2.2599  -10.8305  -42.1882 H         1 UNK         0.0600 
    182 H182        3.5274  -10.6339  -43.3928 H         1 UNK         0.0600 
    183 H183        1.9709   -9.8305  -43.6026 H         1 UNK         0.0600 
    184 H184        2.7271  -11.0287  -45.7246 H         1 UNK         0.3000 
    185 H185        2.3225  -11.3661  -47.9880 H         1 UNK         0.0600 
    186 H186        4.3464  -12.6715  -47.3066 H         1 UNK         0.0600 
    187 H187        3.5787  -14.1688  -47.8235 H         1 UNK         0.0600 
    188 H188        3.9929  -12.9303  -49.0065 H         1 UNK         0.0600 
    189 H189        1.5331  -13.9481  -49.1311 H         1 UNK         0.3000 
    190 H190       -1.7695  -23.2896  -44.1041 H         1 UNK         0.3000 
    191 H191       -3.5956  -25.0428  -45.4294 H         1 UNK         0.0600 
    192 H192       -2.6433  -26.7410  -43.8703 H         1 UNK         0.0600 
    193 H193       -3.0102  -25.2466  -43.0211 H         1 UNK         0.0600 
    194 H194       -1.3426  -25.6373  -43.4363 H         1 UNK         0.0600 
    195 H195       -0.0898  -24.4676  -45.8235 H         1 UNK         0.3000 
    196 H196        0.3770  -26.7920  -47.5088 H         1 UNK         0.0600 
    197 H197        2.5977  -25.7800  -47.8307 H         1 UNK         0.0600 
    198 H198        2.1818  -25.7330  -46.1242 H         1 UNK         0.0600 
    199 H199        2.0704  -24.2703  -47.1037 H         1 UNK         0.0600 
    200 H200       -0.7870  -23.5344  -47.9755 H         1 UNK         0.3000 
    201 H201       -0.5758  -23.5815  -50.9182 H         1 UNK         0.0600 
    202 H202       -0.2217  -21.4406  -49.6838 H         1 UNK         0.0600 
    203 H203       -1.8422  -21.5465  -49.0001 H         1 UNK         0.0600 
    204 H204       -1.6279  -21.3393  -50.7272 H         1 UNK         0.0600 
    205 H205       -2.4985  -25.1456  -48.7454 H         1 UNK         0.3000 
    206 H206       -4.4625  -26.1276  -48.6595 H         1 UNK         0.0600 
    207 H207       -3.7630  -27.0177  -50.9221 H         1 UNK         0.0600 
    208 H208       -5.5060  -26.9403  -50.7130 H         1 UNK         0.0600 
    209 H209       -4.6938  -25.7254  -51.6835 H         1 UNK         0.0600 
    210 H210       -4.4667  -23.5149  -47.8896 H         1 UNK         0.3000 
    211 H211       -5.7029  -21.7818  -47.3255 H         1 UNK         0.0600 
    212 H212       -8.1684  -23.3220  -48.3008 H         1 UNK         0.0600 
    213 H213       -8.1598  -21.9265  -47.2337 H         1 UNK         0.0600 
    214 H214       -7.4599  -23.4433  -46.6910 H         1 UNK         0.0600 
    215 H215       -4.3083  -21.5371  -49.4942 H         1 UNK         0.3000 
    216 H216       -3.7774  -20.0998  -51.0397 H         1 UNK         0.0600 
    217 H217       -6.5909  -18.8870  -50.9213 H         1 UNK         0.0600 
    218 H218       -5.1728  -18.1476  -51.6207 H         1 UNK         0.0600 
    219 H219       -5.2389  -18.4170  -49.8904 H         1 UNK         0.0600 
    220 H220       -5.9740  -22.5081  -51.5961 H         1 UNK         0.3000 
    221 H221       -6.7901  -21.8978  -54.2840 H         1 UNK         0.0600 
    222 H222       -6.9075  -24.5363  -52.7370 H         1 UNK         0.0600 
    223 H223       -8.1474  -23.2831  -52.7182 H         1 UNK         0.0600 
    224 H224       -7.7960  -24.1525  -54.2048 H         1 UNK         0.0600 
    225 H225       -4.1518  -23.9388  -52.9295 H         1 UNK         0.3000 
    226 H226       -3.6363  -25.2042  -55.5278 H         1 UNK         0.0600 
    227 H227       -3.4040  -26.5595  -53.4993 H         1 UNK         0.0600 
    228 H228       -1.8421  -26.4020  -54.2770 H         1 UNK         0.0600 
    229 H229       -2.1937  -25.4549  -52.8407 H         1 UNK         0.0600 
    230 H230       -2.1927  -22.6711  -53.5155 H         1 UNK         0.3000 
    231 H231        0.1048  -22.2498  -55.2873 H         1 UNK         0.0600 
    232 H232       -0.9849  -20.7241  -52.8883 H         1 UNK         0.0600 
    233 H233        0.3799  -21.8306  -52.9025 H         1 UNK         0.0600 
    234 H234        0.4931  -20.2873  -53.7372 H         1 UNK         0.0600 
    235 H235       -3.1760  -21.3007  -55.2737 H         1 UNK         0.3000 
    236 H236       -4.4823  -20.2597  -56.6578 H         1 UNK         0.0600 
    237 H237       -3.1084  -21.3637  -58.4290 H         1 UNK         0.0600 
    238 H238       -3.8042  -19.8505  -58.9827 H         1 UNK         0.0600 
    239 H239       -2.1029  -19.9195  -58.5525 H         1 UNK         0.0600 
    240 H240       -2.3004  -18.5204  -54.9735 H         1 UNK         0.3000 
    241 H241       -2.9027  -15.8827  -55.9869 H         1 UNK         0.0600 
    242 H242       -5.0204  -18.0096  -54.3086 H         1 UNK         0.3800 
    243 H243       -6.0798  -16.7444  -53.7466 H         1 UNK         0.3800 
    244 H244       -1.9244  -15.1722  -53.6252 H         1 UNK         0.0800 
    245 H245       -0.9299  -15.7007  -54.9286 H         1 UNK         0.0800 
    246 H246       -1.9239  -19.0346  -51.9565 H         1 UNK         0.0800 
    247 H247       -3.1251  -18.0995  -52.7676 H         1 UNK         0.0800 
@<TRIPOS>BOND
     1    1    2 1    
     2    1  127 1    
     3    1  128 1    
     4    1  129 1    
     5    2    3 2    
     6    2    4 am   BACKBONE|DICT|INTERRES
     7    4    5 1    
     8    4  130 1    
     9    5    6 1    
    10    5   65 1    
    11    5  131 1    
    12    6    7 1    
    13    6  132 1    
    14    6  133 1    
    15    7    8 1    
    16    8    9 1    
    17    8  134 1    
    18    8  135 1    
    19    9   10 ar   
    20    9   14 ar   
    21   10   11 ar   
    22   10  136 1    
    23   11   12 ar   
    24   11  126 1    
    25   12   13 ar   
    26   12  137 1    
    27   13   14 ar   
    28   13   15 1    
    29   14  138 1    
    30   15   16 1    
    31   15  139 1    
    32   15  140 1    
    33   16   17 1    
    34   17   18 1    
    35   17  141 1    
    36   17  142 1    
    37   18   19 1    
    38   18   67 1    
    39   18  143 1    
    40   19   20 am   BACKBONE|DICT|INTERRES
    41   19  144 1    
    42   20   21 2    
    43   20   22 1    
    44   22   23 1    
    45   22   24 1    
    46   22  145 1    
    47   23  146 1    
    48   23  147 1    
    49   23  148 1    
    50   24   25 am   BACKBONE|DICT|INTERRES
    51   24  149 1    
    52   25   26 2    
    53   25   27 1    
    54   27   28 1    
    55   27   29 1    
    56   27  150 1    
    57   28  151 1    
    58   28  152 1    
    59   28  153 1    
    60   29   30 am   BACKBONE|DICT|INTERRES
    61   29  154 1    
    62   30   31 2    
    63   30   32 1    
    64   32   33 1    
    65   32   34 1    
    66   32  155 1    
    67   33  156 1    
    68   33  157 1    
    69   33  158 1    
    70   34   35 am   BACKBONE|DICT|INTERRES
    71   34  159 1    
    72   35   36 2    
    73   35   37 1    
    74   37   38 1    
    75   37   39 1    
    76   37  160 1    
    77   38  161 1    
    78   38  162 1    
    79   38  163 1    
    80   39   40 am   BACKBONE|DICT|INTERRES
    81   39  164 1    
    82   40   41 2    
    83   40   42 1    
    84   42   43 1    
    85   42   44 1    
    86   42  165 1    
    87   43  166 1    
    88   43  167 1    
    89   43  168 1    
    90   44   45 am   BACKBONE|DICT|INTERRES
    91   44  169 1    
    92   45   46 2    
    93   45   47 1    
    94   47   48 1    
    95   47   49 1    
    96   47  170 1    
    97   48  171 1    
    98   48  172 1    
    99   48  173 1    
   100   49   50 am   BACKBONE|DICT|INTERRES
   101   49  174 1    
   102   50   51 2    
   103   50   52 1    
   104   52   53 1    
   105   52   54 1    
   106   52  175 1    
   107   53  176 1    
   108   53  177 1    
   109   53  178 1    
   110   54   55 am   BACKBONE|DICT|INTERRES
   111   54  179 1    
   112   55   56 2    
   113   55   57 1    
   114   57   58 1    
   115   57   59 1    
   116   57  180 1    
   117   58  181 1    
   118   58  182 1    
   119   58  183 1    
   120   59   60 am   BACKBONE|DICT|INTERRES
   121   59  184 1    
   122   60   61 2    
   123   60   62 1    
   124   62   63 1    
   125   62   64 1    
   126   62  185 1    
   127   63  186 1    
   128   63  187 1    
   129   63  188 1    
   130   64   65 am   BACKBONE|DICT|INTERRES
   131   64  189 1    
   132   65   66 2    
   133   67   68 2    
   134   67   69 am   BACKBONE|DICT|INTERRES
   135   69   70 1    
   136   69  190 1    
   137   70   71 1    
   138   70   72 1    
   139   70  191 1    
   140   71  192 1    
   141   71  193 1    
   142   71  194 1    
   143   72   73 2    
   144   72   74 am   BACKBONE|DICT|INTERRES
   145   74   75 1    
   146   74  195 1    
   147   75   76 1    
   148   75   77 1    
   149   75  196 1    
   150   76  197 1    
   151   76  198 1    
   152   76  199 1    
   153   77   78 2    
   154   77   79 am   BACKBONE|DICT|INTERRES
   155   79   80 1    
   156   79  200 1    
   157   80   81 1    
   158   80   82 1    
   159   80  201 1    
   160   81  202 1    
   161   81  203 1    
   162   81  204 1    
   163   82   83 2    
   164   82   84 am   BACKBONE|DICT|INTERRES
   165   84   85 1    
   166   84  205 1    
   167   85   86 1    
   168   85   87 1    
   169   85  206 1    
   170   86  207 1    
   171   86  208 1    
   172   86  209 1    
   173   87   88 2    
   174   87   89 am   BACKBONE|DICT|INTERRES
   175   89   90 1    
   176   89  210 1    
   177   90   91 1    
   178   90   92 1    
   179   90  211 1    
   180   91  212 1    
   181   91  213 1    
   182   91  214 1    
   183   92   93 2    
   184   92   94 am   BACKBONE|DICT|INTERRES
   185   94   95 1    
   186   94  215 1    
   187   95   96 1    
   188   95   97 1    
   189   95  216 1    
   190   96  217 1    
   191   96  218 1    
   192   96  219 1    
   193   97   98 2    
   194   97   99 am   BACKBONE|DICT|INTERRES
   195   99  100 1    
   196   99  220 1    
   197  100  101 1    
   198  100  102 1    
   199  100  221 1    
   200  101  222 1    
   201  101  223 1    
   202  101  224 1    
   203  102  103 2    
   204  102  104 am   BACKBONE|DICT|INTERRES
   205  104  105 1    
   206  104  225 1    
   207  105  106 1    
   208  105  107 1    
   209  105  226 1    
   210  106  227 1    
   211  106  228 1    
   212  106  229 1    
   213  107  108 2    
   214  107  109 am   BACKBONE|DICT|INTERRES
   215  109  110 1    
   216  109  230 1    
   217  110  111 1    
   218  110  112 1    
   219  110  231 1    
   220  111  232 1    
   221  111  233 1    
   222  111  234 1    
   223  112  113 2    
   224  112  114 am   BACKBONE|DICT|INTERRES
   225  114  115 1    
   226  114  235 1    
   227  115  116 1    
   228  115  117 1    
   229  115  236 1    
   230  116  237 1    
   231  116  238 1    
   232  116  239 1    
   233  117  118 2    
   234  117  119 am   BACKBONE|DICT|INTERRES
   235  119  120 1    
   236  119  240 1    
   237  120  121 1    
   238  120  124 1    
   239  120  241 1    
   240  121  122 am   BACKBONE|DICT|INTERRES
   241  121  123 2    
   242  122  242 1    
   243  122  243 1    
   244  124  125 1    
   245  124  244 1    
   246  124  245 1    
   247  125  126 1    
   248  126  246 1    
   249  126  247 1    
@<TRIPOS>SUBSTRUCTURE
     1 UNK         1 GROUP             0       ****    0 ROOT    
