@<TRIPOS>MOLECULE
3R540
247   249    1
SMALL
USER_CHARGES


@<TRIPOS>ATOM
      1 CA         -6.8982  -20.7047  -44.1743 C.3       0 UNK        -0.1800 
      2 C          -6.7334  -19.2497  -44.5910 C.2       0 UNK         0.5000 
      3 O          -7.3591  -18.3737  -43.9936 O.2       0 UNK        -0.5000 
      4 N          -5.9067  -18.9857  -45.6116 N.am      1 UNK        -0.5000 
      5 CA         -5.5921  -17.6400  -46.0979 C.3       1 UNK         0.1400 
      6 C6         -4.8288  -17.6568  -47.4417 C.3       23 UNK        -0.0398 
      7 S7         -5.6634  -18.5560  -48.7894 S.3       23 UNK        -0.2404 
      8 C8         -4.8654  -17.8272  -50.2593 C.3       23 UNK        -0.0205 
      9 C9         -3.3643  -18.0906  -50.3167 C.ar      23 UNK        -0.0193 
     10 C10        -2.8557  -19.1665  -51.0522 C.ar      23 UNK        -0.1150 
     11 C11        -1.4747  -19.3783  -51.1331 C.ar      23 UNK        -0.0193 
     12 C12        -0.6041  -18.5330  -50.4399 C.ar      23 UNK        -0.1150 
     13 C13        -1.1005  -17.4671  -49.6871 C.ar      23 UNK        -0.0193 
     14 C14        -2.4772  -17.2355  -49.6552 C.ar      23 UNK        -0.1150 
     15 C15        -0.1563  -16.5622  -48.9066 C.3       23 UNK        -0.0205 
     16 S16         0.7293  -17.4413  -47.5754 S.3       23 UNK        -0.2404 
     17 C17        -0.6274  -18.1998  -46.6153 C.3       23 UNK        -0.0398 
     18 CA         -0.6207  -19.7429  -46.7398 C.3       11 UNK         0.1400 
     19 N           0.5859  -20.3415  -46.1544 N.am      11 UNK        -0.5000 
     20 C           0.9349  -21.6317  -46.2540 C.2       10 UNK         0.5000 
     21 O           0.2303  -22.4906  -46.7805 O.2       10 UNK        -0.5000 
     22 CA          2.2824  -22.0395  -45.6417 C.3       10 UNK         0.1400 
     23 CB          3.4487  -21.5828  -46.5321 C.3       10 UNK        -0.1800 
     24 N           2.4325  -21.4744  -44.3041 N.am      10 UNK        -0.5000 
     25 C           2.0299  -22.0788  -43.1782 C.2       9 UNK         0.5000 
     26 O           1.5631  -23.2178  -43.1426 O.2       9 UNK        -0.5000 
     27 CA          2.1490  -21.2716  -41.8687 C.3       9 UNK         0.1400 
     28 CB          3.5077  -21.5284  -41.1997 C.3       9 UNK        -0.1800 
     29 N           1.9729  -19.8290  -42.0470 N.am      9 UNK        -0.5000 
     30 C           0.8574  -19.2452  -42.5047 C.2       8 UNK         0.5000 
     31 O          -0.1627  -19.8602  -42.8095 O.2       8 UNK        -0.5000 
     32 CA          0.9072  -17.7231  -42.7159 C.3       8 UNK         0.1400 
     33 CB          0.5285  -16.9896  -41.4215 C.3       8 UNK        -0.1800 
     34 N           2.1925  -17.2127  -43.2019 N.am      8 UNK        -0.5000 
     35 C           2.8866  -17.6517  -44.2625 C.2       7 UNK         0.5000 
     36 O           2.5618  -18.6301  -44.9343 O.2       7 UNK        -0.5000 
     37 CA          4.1677  -16.8844  -44.6258 C.3       7 UNK         0.1400 
     38 CB          3.8450  -15.7402  -45.5982 C.3       7 UNK        -0.1800 
     39 N           4.8219  -16.3276  -43.4421 N.am      7 UNK        -0.5000 
     40 C           5.8414  -16.8970  -42.7871 C.2       6 UNK         0.5000 
     41 O           6.3541  -17.9666  -43.1182 O.2       6 UNK        -0.5000 
     42 CA          6.3947  -16.1444  -41.5592 C.3       6 UNK         0.1400 
     43 CB          7.5879  -15.2657  -41.9653 C.3       6 UNK        -0.1800 
     44 N           5.3978  -15.3073  -40.8883 N.am      6 UNK        -0.5000 
     45 C           4.3874  -15.7800  -40.1466 C.2       5 UNK         0.5000 
     46 O           4.2084  -16.9772  -39.9204 O.2       5 UNK        -0.5000 
     47 CA          3.3903  -14.7458  -39.5822 C.3       5 UNK         0.1400 
     48 CB          3.8408  -14.2780  -38.1900 C.3       5 UNK        -0.1800 
     49 N           3.1366  -13.5667  -40.4241 N.am      5 UNK        -0.5000 
     50 C           2.7643  -13.5924  -41.7104 C.2       4 UNK         0.5000 
     51 O           2.7772  -14.6105  -42.4028 O.2       4 UNK        -0.5000 
     52 CA          2.3171  -12.2627  -42.3465 C.3       4 UNK         0.1400 
     53 CB          3.5248  -11.5300  -42.9497 C.3       4 UNK        -0.1800 
     54 N           1.3272  -12.4973  -43.4026 N.am      4 UNK        -0.5000 
     55 C           0.1087  -13.0137  -43.1933 C.2       3 UNK         0.5000 
     56 O          -0.3813  -13.1756  -42.0705 O.2       3 UNK        -0.5000 
     57 CA         -0.6808  -13.4482  -44.4402 C.3       3 UNK         0.1400 
     58 CB          0.0745  -14.5399  -45.2275 C.3       3 UNK        -0.1800 
     59 N          -1.9808  -13.9436  -43.9979 N.am      3 UNK        -0.5000 
     60 C          -3.0417  -14.2011  -44.7657 C.2       2 UNK         0.5000 
     61 O          -3.0595  -14.0581  -45.9911 O.2       2 UNK        -0.5000 
     62 CA         -4.3126  -14.6630  -44.0287 C.3       2 UNK         0.1400 
     63 CB         -5.1946  -13.4578  -43.6671 C.3       2 UNK        -0.1800 
     64 N          -5.0891  -15.5899  -44.8500 N.am      2 UNK        -0.5000 
     65 C          -4.7530  -16.8681  -45.0586 C.2       1 UNK         0.5000 
     66 O          -3.8034  -17.4277  -44.5040 O.2       1 UNK        -0.5000 
     67 C          -1.9278  -20.3548  -46.1943 C.2       11 UNK         0.5000 
     68 O          -2.8699  -20.5332  -46.9646 O.2       11 UNK        -0.5000 
     69 N          -1.9640  -20.7084  -44.9012 N.am      12 UNK        -0.5000 
     70 CA         -3.1069  -21.3822  -44.2836 C.3       12 UNK         0.1400 
     71 CB         -2.9969  -21.3009  -42.7548 C.3       12 UNK        -0.1800 
     72 C          -3.2624  -22.8459  -44.7377 C.2       12 UNK         0.5000 
     73 O          -4.3895  -23.3292  -44.8371 O.2       12 UNK        -0.5000 
     74 N          -2.1390  -23.5237  -45.0086 N.am      13 UNK        -0.5000 
     75 CA         -2.1048  -24.9135  -45.4653 C.3       13 UNK         0.1400 
     76 CB         -0.7295  -25.5194  -45.1446 C.3       13 UNK        -0.1800 
     77 C          -2.4191  -25.0332  -46.9666 C.2       13 UNK         0.5000 
     78 O          -3.1643  -25.9266  -47.3692 O.2       13 UNK        -0.5000 
     79 N          -1.8594  -24.1161  -47.7648 N.am      14 UNK        -0.5000 
     80 CA         -1.9973  -24.0560  -49.2207 C.3       14 UNK         0.1400 
     81 CB         -0.7923  -23.2944  -49.7891 C.3       14 UNK        -0.1800 
     82 C          -3.3219  -23.4277  -49.7001 C.2       14 UNK         0.5000 
     83 O          -3.5472  -23.3581  -50.9080 O.2       14 UNK        -0.5000 
     84 N          -4.1812  -23.0051  -48.7623 N.am      15 UNK        -0.5000 
     85 CA         -5.4681  -22.3339  -48.9771 C.3       15 UNK         0.1400 
     86 CB         -6.0552  -21.9758  -47.6053 C.3       15 UNK        -0.1800 
     87 C          -6.5084  -23.1206  -49.8014 C.2       15 UNK         0.5000 
     88 O          -7.5007  -22.5349  -50.2367 O.2       15 UNK        -0.5000 
     89 N          -6.2763  -24.4243  -50.0067 N.am      16 UNK        -0.5000 
     90 CA         -7.0367  -25.2748  -50.9231 C.3       16 UNK         0.1400 
     91 CB         -6.6254  -26.7378  -50.6975 C.3       16 UNK        -0.1800 
     92 C          -6.8534  -24.8833  -52.4058 C.2       16 UNK         0.5000 
     93 O          -7.7356  -25.1712  -53.2160 O.2       16 UNK        -0.5000 
     94 N          -5.7279  -24.2344  -52.7310 N.am      17 UNK        -0.5000 
     95 CA         -5.4300  -23.6592  -54.0379 C.3       17 UNK         0.1400 
     96 CB         -3.9884  -24.0320  -54.4131 C.3       17 UNK        -0.1800 
     97 C          -5.5976  -22.1304  -53.9906 C.2       17 UNK         0.5000 
     98 O          -5.5615  -21.5300  -52.9134 O.2       17 UNK        -0.5000 
     99 N          -5.7677  -21.5235  -55.1716 N.am      18 UNK        -0.5000 
    100 CA        -5.8588  -20.0743  -55.3536 C.3       18 UNK         0.1400 
    101 CB        -6.2895  -19.7814  -56.7991 C.3       18 UNK        -0.1800 
    102 C         -4.5251  -19.3711  -55.0417 C.2       18 UNK         0.5000 
    103 O         -3.4622  -19.9371  -55.3082 O.2       18 UNK        -0.5000 
    104 N         -4.6121  -18.1416  -54.5173 N.am      19 UNK        -0.5000 
    105 CA        -3.4718  -17.2879  -54.1780 C.3       19 UNK         0.1400 
    106 CB        -3.9891  -15.9920  -53.5356 C.3       19 UNK        -0.1800 
    107 C         -2.5869  -16.9635  -55.3946 C.2       19 UNK         0.5000 
    108 O         -3.0978  -16.8344  -56.5099 O.2       19 UNK        -0.5000 
    109 N         -1.2752  -16.8536  -55.1499 N.am      20 UNK        -0.5000 
    110 CA        -0.1751  -16.6274  -56.0985 C.3       20 UNK         0.1400 
    111 CB        -0.3534  -15.3113  -56.8798 C.3       20 UNK        -0.1800 
    112 C          0.1045  -17.8120  -57.0469 C.2       20 UNK         0.5000 
    113 O          1.2715  -18.0813  -57.3340 O.2       20 UNK        -0.5000 
    114 N         -0.9462  -18.5078  -57.5001 N.am      21 UNK        -0.5000 
    115 CA        -0.8691  -19.7519  -58.2619 C.3       21 UNK         0.1400 
    116 CB        -2.2431  -20.0612  -58.8802 C.3       21 UNK        -0.1800 
    117 C         -0.3725  -20.9044  -57.3722 C.2       21 UNK         0.5000 
    118 O          0.6830  -21.4760  -57.6476 O.2       21 UNK        -0.5000 
    119 N         -1.1287  -21.1837  -56.3020 N.am      22 UNK        -0.5000 
    120 CA        -0.7982  -22.1012  -55.1988 C.3       22 UNK         0.1400 
    121 C         -0.5516  -23.5892  -55.5996 C.2       22 UNK         0.5000 
    122 N         -1.0415  -24.0514  -56.7434 N.am      22 UNK        -0.7600 
    123 O          0.0598  -24.3491  -54.8535 O.2       22 UNK        -0.5000 
    124 C124        0.3021  -21.5216  -54.2691 C.3       23 UNK        -0.0398 
    125 S125       -0.2066  -19.9305  -53.5280 S.3       23 UNK        -0.2404 
    126 C126       -0.9131  -20.5212  -51.9602 C.3       23 UNK        -0.0205 
    127 H127       -7.9539  -20.9755  -44.1653 H         1 UNK         0.0600 
    128 H128       -6.4982  -20.8545  -43.1715 H         1 UNK         0.0600 
    129 H129       -6.3835  -21.3861  -44.8489 H         1 UNK         0.0600 
    130 H130       -5.4052  -19.7328  -46.0691 H         1 UNK         0.3000 
    131 H131       -6.5368  -17.1133  -46.2504 H         1 UNK         0.0600 
    132 H132       -4.6680  -16.6292  -47.7712 H         1 UNK         0.0800 
    133 H133       -3.8433  -18.1032  -47.3135 H         1 UNK         0.0800 
    134 H134       -5.0563  -16.7533  -50.2762 H         1 UNK         0.0800 
    135 H135       -5.3447  -18.2340  -51.1512 H         1 UNK         0.0800 
    136 H136       -3.5332  -19.8267  -51.5771 H         1 UNK         0.1150 
    137 H137        0.4622  -18.7062  -50.4838 H         1 UNK         0.1150 
    138 H138       -2.8581  -16.3914  -49.0996 H         1 UNK         0.1150 
    139 H139        0.5749  -16.1338  -49.5931 H         1 UNK         0.0800 
    140 H140       -0.6971  -15.7204  -48.4716 H         1 UNK         0.0800 
    141 H141       -1.5761  -17.7801  -46.9488 H         1 UNK         0.0800 
    142 H142       -0.5253  -17.9011  -45.5732 H         1 UNK         0.0800 
    143 H143       -0.6019  -19.9862  -47.8045 H         1 UNK         0.0600 
    144 H144        1.2417  -19.6948  -45.7231 H         1 UNK         0.3000 
    145 H145        2.3128  -23.1300  -45.5880 H         1 UNK         0.0600 
    146 H146        4.4058  -21.9013  -46.1191 H         1 UNK         0.0600 
    147 H147        3.3657  -22.0130  -47.5309 H         1 UNK         0.0600 
    148 H148        3.4777  -20.4986  -46.6448 H         1 UNK         0.0600 
    149 H149        2.7319  -20.5065  -44.2602 H         1 UNK         0.3000 
    150 H150        1.3631  -21.6209  -41.1959 H         1 UNK         0.0600 
    151 H151        3.6642  -22.5944  -41.0291 H         1 UNK         0.0600 
    152 H152        3.5709  -21.0323  -40.2309 H         1 UNK         0.0600 
    153 H153        4.3332  -21.1690  -41.8157 H         1 UNK         0.0600 
    154 H154        2.7663  -19.2411  -41.8354 H         1 UNK         0.3000 
    155 H155        0.1562  -17.4780  -43.4658 H         1 UNK         0.0600 
    156 H156        1.2701  -17.1515  -40.6387 H         1 UNK         0.0600 
    157 H157        0.4422  -15.9156  -41.5867 H         1 UNK         0.0600 
    158 H158       -0.4337  -17.3357  -41.0417 H         1 UNK         0.0600 
    159 H159        2.5142  -16.3537  -42.7620 H         1 UNK         0.3000 
    160 H160        4.8379  -17.5803  -45.1348 H         1 UNK         0.0600 
    161 H161        3.2004  -14.9912  -45.1380 H         1 UNK         0.0600 
    162 H162        3.3361  -16.1127  -46.4880 H         1 UNK         0.0600 
    163 H163        4.7543  -15.2389  -45.9296 H         1 UNK         0.0600 
    164 H164        4.4035  -15.4875  -43.0578 H         1 UNK         0.3000 
    165 H165        6.7505  -16.8925  -40.8475 H         1 UNK         0.0600 
    166 H166        8.0383  -14.7855  -41.0964 H         1 UNK         0.0600 
    167 H167        8.3658  -15.8607  -42.4457 H         1 UNK         0.0600 
    168 H168        7.2921  -14.4843  -42.6666 H         1 UNK         0.0600 
    169 H169        5.4661  -14.3101  -41.0285 H         1 UNK         0.3000 
    170 H170        2.4344  -15.2603  -39.4685 H         1 UNK         0.0600 
    171 H171        4.0147  -15.1275  -37.5278 H         1 UNK         0.0600 
    172 H172        4.7677  -13.7052  -38.2396 H         1 UNK         0.0600 
    173 H173        3.0831  -13.6521  -37.7183 H         1 UNK         0.0600 
    174 H174        3.1285  -12.6794  -39.9420 H         1 UNK         0.3000 
    175 H175        1.8635  -11.6345  -41.5772 H         1 UNK         0.0600 
    176 H176        4.0101  -12.1244  -43.7253 H         1 UNK         0.0600 
    177 H177        3.2284  -10.5786  -43.3919 H         1 UNK         0.0600 
    178 H178        4.2730  -11.3128  -42.1864 H         1 UNK         0.0600 
    179 H179        1.6634  -12.4160  -44.3504 H         1 UNK         0.3000 
    180 H180       -0.8340  -12.5727  -45.0740 H         1 UNK         0.0600 
    181 H181        0.3270  -15.3890  -44.5935 H         1 UNK         0.0600 
    182 H182        1.0043  -14.1537  -45.6442 H         1 UNK         0.0600 
    183 H183       -0.5113  -14.9149  -46.0658 H         1 UNK         0.0600 
    184 H184       -2.0460  -14.0298  -42.9899 H         1 UNK         0.3000 
    185 H185       -4.0232  -15.1701  -43.1054 H         1 UNK         0.0600 
    186 H186       -4.6552  -12.7562  -43.0294 H         1 UNK         0.0600 
    187 H187       -5.5165  -12.9126  -44.5555 H         1 UNK         0.0600 
    188 H188       -6.0862  -13.7703  -43.1230 H         1 UNK         0.0600 
    189 H189       -5.8573  -15.1887  -45.3678 H         1 UNK         0.3000 
    190 H190       -1.1765  -20.4966  -44.2933 H         1 UNK         0.3000 
    191 H191       -4.0090  -20.8466  -44.5787 H         1 UNK         0.0600 
    192 H192       -2.1024  -21.8063  -42.3884 H         1 UNK         0.0600 
    193 H193       -3.8589  -21.7665  -42.2754 H         1 UNK         0.0600 
    194 H194       -2.9590  -20.2643  -42.4191 H         1 UNK         0.0600 
    195 H195       -1.2534  -23.0409  -44.9517 H         1 UNK         0.3000 
    196 H196       -2.8587  -25.4834  -44.9178 H         1 UNK         0.0600 
    197 H197       -0.6833  -26.5653  -45.4502 H         1 UNK         0.0600 
    198 H198       -0.5232  -25.4833  -44.0747 H         1 UNK         0.0600 
    199 H199        0.0766  -24.9921  -45.6560 H         1 UNK         0.0600 
    200 H200       -1.2224  -23.4373  -47.3513 H         1 UNK         0.3000 
    201 H201       -1.9663  -25.0743  -49.6135 H         1 UNK         0.0600 
    202 H202        0.1473  -23.7497  -49.4755 H         1 UNK         0.0600 
    203 H203       -0.7881  -22.2561  -49.4547 H         1 UNK         0.0600 
    204 H204       -0.8054  -23.3007  -50.8793 H         1 UNK         0.0600 
    205 H205       -3.8867  -23.0919  -47.8007 H         1 UNK         0.3000 
    206 H206       -5.2599  -21.4122  -49.5232 H         1 UNK         0.0600 
    207 H207       -5.3547  -21.3739  -47.0307 H         1 UNK         0.0600 
    208 H208       -6.9741  -21.3967  -47.7070 H         1 UNK         0.0600 
    209 H209       -6.2872  -22.8680  -47.0223 H         1 UNK         0.0600 
    210 H210       -5.4458  -24.8258  -49.5968 H         1 UNK         0.3000 
    211 H211       -8.0969  -25.1737  -50.6820 H         1 UNK         0.0600 
    212 H212       -5.5667  -26.8947  -50.9085 H         1 UNK         0.0600 
    213 H213       -7.1924  -27.4073  -51.3457 H         1 UNK         0.0600 
    214 H214       -6.8129  -27.0469  -49.6689 H         1 UNK         0.0600 
    215 H215       -5.0845  -23.9657  -51.9914 H         1 UNK         0.3000 
    216 H216       -6.1038  -24.0597  -54.7981 H         1 UNK         0.0600 
    217 H217       -3.7115  -23.6082  -55.3789 H         1 UNK         0.0600 
    218 H218       -3.8672  -25.1128  -54.4865 H         1 UNK         0.0600 
    219 H219       -3.2760  -23.6675  -53.6723 H         1 UNK         0.0600 
    220 H220       -5.7526  -22.0782  -56.0145 H         1 UNK         0.3000 
    221 H221       -6.6254  -19.6935  -54.6753 H         1 UNK         0.0600 
    222 H222       -5.5643  -20.1617  -57.5198 H         1 UNK         0.0600 
    223 H223       -7.2558  -20.2335  -57.0234 H         1 UNK         0.0600 
    224 H224       -6.3864  -18.7082  -56.9687 H         1 UNK         0.0600 
    225 H225       -5.5256  -17.7378  -54.3747 H         1 UNK         0.3000 
    226 H226       -2.8657  -17.8250  -53.4475 H         1 UNK         0.0600 
    227 H227       -3.1615  -15.3609  -53.2090 H         1 UNK         0.0600 
    228 H228       -4.5904  -15.4098  -54.2351 H         1 UNK         0.0600 
    229 H229       -4.6021  -16.1985  -52.6596 H         1 UNK         0.0600 
    230 H230       -0.9695  -17.0221  -54.2012 H         1 UNK         0.3000 
    231 H231        0.7163  -16.5158  -55.4792 H         1 UNK         0.0600 
    232 H232        0.5346  -15.0919  -57.4738 H         1 UNK         0.0600 
    233 H233       -0.5094  -14.4696  -56.2051 H         1 UNK         0.0600 
    234 H234       -1.1983  -15.3530  -57.5674 H         1 UNK         0.0600 
    235 H235       -1.8694  -18.1877  -57.2267 H         1 UNK         0.3000 
    236 H236       -0.1529  -19.6175  -59.0752 H         1 UNK         0.0600 
    237 H237       -3.0226  -20.1470  -58.1223 H         1 UNK         0.0600 
    238 H238       -2.5436  -19.2783  -59.5766 H         1 UNK         0.0600 
    239 H239       -2.2188  -20.9990  -59.4364 H         1 UNK         0.0600 
    240 H240       -1.9737  -20.6388  -56.1419 H         1 UNK         0.3000 
    241 H241       -1.7088  -22.1460  -54.6025 H         1 UNK         0.0600 
    242 H242       -1.5388  -23.4404  -57.3707 H         1 UNK         0.3800 
    243 H243       -0.8882  -25.0149  -56.9958 H         1 UNK         0.3800 
    244 H244        0.5457  -22.2162  -53.4637 H         1 UNK         0.0800 
    245 H245        1.2276  -21.3688  -54.8256 H         1 UNK         0.0800 
    246 H246       -0.1297  -21.0231  -51.3925 H         1 UNK         0.0800 
    247 H247       -1.6885  -21.2627  -52.1620 H         1 UNK         0.0800 
@<TRIPOS>BOND
     1    1    2 1    
     2    1  127 1    
     3    1  128 1    
     4    1  129 1    
     5    2    3 2    
     6    2    4 am   BACKBONE|DICT|INTERRES
     7    4    5 1    
     8    4  130 1    
     9    5    6 1    
    10    5   65 1    
    11    5  131 1    
    12    6    7 1    
    13    6  132 1    
    14    6  133 1    
    15    7    8 1    
    16    8    9 1    
    17    8  134 1    
    18    8  135 1    
    19    9   10 ar   
    20    9   14 ar   
    21   10   11 ar   
    22   10  136 1    
    23   11   12 ar   
    24   11  126 1    
    25   12   13 ar   
    26   12  137 1    
    27   13   14 ar   
    28   13   15 1    
    29   14  138 1    
    30   15   16 1    
    31   15  139 1    
    32   15  140 1    
    33   16   17 1    
    34   17   18 1    
    35   17  141 1    
    36   17  142 1    
    37   18   19 1    
    38   18   67 1    
    39   18  143 1    
    40   19   20 am   BACKBONE|DICT|INTERRES
    41   19  144 1    
    42   20   21 2    
    43   20   22 1    
    44   22   23 1    
    45   22   24 1    
    46   22  145 1    
    47   23  146 1    
    48   23  147 1    
    49   23  148 1    
    50   24   25 am   BACKBONE|DICT|INTERRES
    51   24  149 1    
    52   25   26 2    
    53   25   27 1    
    54   27   28 1    
    55   27   29 1    
    56   27  150 1    
    57   28  151 1    
    58   28  152 1    
    59   28  153 1    
    60   29   30 am   BACKBONE|DICT|INTERRES
    61   29  154 1    
    62   30   31 2    
    63   30   32 1    
    64   32   33 1    
    65   32   34 1    
    66   32  155 1    
    67   33  156 1    
    68   33  157 1    
    69   33  158 1    
    70   34   35 am   BACKBONE|DICT|INTERRES
    71   34  159 1    
    72   35   36 2    
    73   35   37 1    
    74   37   38 1    
    75   37   39 1    
    76   37  160 1    
    77   38  161 1    
    78   38  162 1    
    79   38  163 1    
    80   39   40 am   BACKBONE|DICT|INTERRES
    81   39  164 1    
    82   40   41 2    
    83   40   42 1    
    84   42   43 1    
    85   42   44 1    
    86   42  165 1    
    87   43  166 1    
    88   43  167 1    
    89   43  168 1    
    90   44   45 am   BACKBONE|DICT|INTERRES
    91   44  169 1    
    92   45   46 2    
    93   45   47 1    
    94   47   48 1    
    95   47   49 1    
    96   47  170 1    
    97   48  171 1    
    98   48  172 1    
    99   48  173 1    
   100   49   50 am   BACKBONE|DICT|INTERRES
   101   49  174 1    
   102   50   51 2    
   103   50   52 1    
   104   52   53 1    
   105   52   54 1    
   106   52  175 1    
   107   53  176 1    
   108   53  177 1    
   109   53  178 1    
   110   54   55 am   BACKBONE|DICT|INTERRES
   111   54  179 1    
   112   55   56 2    
   113   55   57 1    
   114   57   58 1    
   115   57   59 1    
   116   57  180 1    
   117   58  181 1    
   118   58  182 1    
   119   58  183 1    
   120   59   60 am   BACKBONE|DICT|INTERRES
   121   59  184 1    
   122   60   61 2    
   123   60   62 1    
   124   62   63 1    
   125   62   64 1    
   126   62  185 1    
   127   63  186 1    
   128   63  187 1    
   129   63  188 1    
   130   64   65 am   BACKBONE|DICT|INTERRES
   131   64  189 1    
   132   65   66 2    
   133   67   68 2    
   134   67   69 am   BACKBONE|DICT|INTERRES
   135   69   70 1    
   136   69  190 1    
   137   70   71 1    
   138   70   72 1    
   139   70  191 1    
   140   71  192 1    
   141   71  193 1    
   142   71  194 1    
   143   72   73 2    
   144   72   74 am   BACKBONE|DICT|INTERRES
   145   74   75 1    
   146   74  195 1    
   147   75   76 1    
   148   75   77 1    
   149   75  196 1    
   150   76  197 1    
   151   76  198 1    
   152   76  199 1    
   153   77   78 2    
   154   77   79 am   BACKBONE|DICT|INTERRES
   155   79   80 1    
   156   79  200 1    
   157   80   81 1    
   158   80   82 1    
   159   80  201 1    
   160   81  202 1    
   161   81  203 1    
   162   81  204 1    
   163   82   83 2    
   164   82   84 am   BACKBONE|DICT|INTERRES
   165   84   85 1    
   166   84  205 1    
   167   85   86 1    
   168   85   87 1    
   169   85  206 1    
   170   86  207 1    
   171   86  208 1    
   172   86  209 1    
   173   87   88 2    
   174   87   89 am   BACKBONE|DICT|INTERRES
   175   89   90 1    
   176   89  210 1    
   177   90   91 1    
   178   90   92 1    
   179   90  211 1    
   180   91  212 1    
   181   91  213 1    
   182   91  214 1    
   183   92   93 2    
   184   92   94 am   BACKBONE|DICT|INTERRES
   185   94   95 1    
   186   94  215 1    
   187   95   96 1    
   188   95   97 1    
   189   95  216 1    
   190   96  217 1    
   191   96  218 1    
   192   96  219 1    
   193   97   98 2    
   194   97   99 am   BACKBONE|DICT|INTERRES
   195   99  100 1    
   196   99  220 1    
   197  100  101 1    
   198  100  102 1    
   199  100  221 1    
   200  101  222 1    
   201  101  223 1    
   202  101  224 1    
   203  102  103 2    
   204  102  104 am   BACKBONE|DICT|INTERRES
   205  104  105 1    
   206  104  225 1    
   207  105  106 1    
   208  105  107 1    
   209  105  226 1    
   210  106  227 1    
   211  106  228 1    
   212  106  229 1    
   213  107  108 2    
   214  107  109 am   BACKBONE|DICT|INTERRES
   215  109  110 1    
   216  109  230 1    
   217  110  111 1    
   218  110  112 1    
   219  110  231 1    
   220  111  232 1    
   221  111  233 1    
   222  111  234 1    
   223  112  113 2    
   224  112  114 am   BACKBONE|DICT|INTERRES
   225  114  115 1    
   226  114  235 1    
   227  115  116 1    
   228  115  117 1    
   229  115  236 1    
   230  116  237 1    
   231  116  238 1    
   232  116  239 1    
   233  117  118 2    
   234  117  119 am   BACKBONE|DICT|INTERRES
   235  119  120 1    
   236  119  240 1    
   237  120  121 1    
   238  120  124 1    
   239  120  241 1    
   240  121  122 am   BACKBONE|DICT|INTERRES
   241  121  123 2    
   242  122  242 1    
   243  122  243 1    
   244  124  125 1    
   245  124  244 1    
   246  124  245 1    
   247  125  126 1    
   248  126  246 1    
   249  126  247 1    
@<TRIPOS>SUBSTRUCTURE
     1 UNK         1 GROUP             0       ****    0 ROOT    
