@<TRIPOS>MOLECULE
3R540
247   249    1
SMALL
USER_CHARGES


@<TRIPOS>ATOM
      1 CA         -1.4895  -12.7420  -45.7621 C.3       0 UNK        -0.1800 
      2 C          -1.0286  -12.1773  -47.0979 C.2       0 UNK         0.5000 
      3 O          -1.1960  -10.9842  -47.3483 O.2       0 UNK        -0.5000 
      4 N          -0.4253  -13.0263  -47.9404 N.am      1 UNK        -0.5000 
      5 CA          0.0644  -12.7217  -49.2961 C.3       1 UNK         0.1400 
      6 C6          0.5636  -13.9962  -50.0263 C.3       23 UNK        -0.0398 
      7 S7          1.7825  -14.9711  -49.0663 S.3       23 UNK        -0.2404 
      8 C8          0.7696  -16.3657  -48.4779 C.3       23 UNK        -0.0205 
      9 C9          0.8547  -17.5656  -49.4080 C.ar      23 UNK        -0.0193 
     10 C10         0.0755  -17.6268  -50.5676 C.ar      23 UNK        -0.1150 
     11 C11         0.1651  -18.7264  -51.4259 C.ar      23 UNK        -0.0193 
     12 C12         1.0126  -19.7876  -51.0994 C.ar      23 UNK        -0.1150 
     13 C13         1.7824  -19.7475  -49.9337 C.ar      23 UNK        -0.0193 
     14 C14         1.7092  -18.6276  -49.0995 C.ar      23 UNK        -0.1150 
     15 C15         2.6908  -20.9175  -49.5804 C.3       23 UNK        -0.0205 
     16 S16         2.3039  -21.6402  -47.9536 S.3       23 UNK        -0.2404 
     17 C17         0.5091  -21.9435  -48.0961 C.3       23 UNK        -0.0398 
     18 CA          0.0343  -23.0309  -47.1096 C.3       11 UNK         0.1400 
     19 N           0.2138  -22.6420  -45.7078 N.am      11 UNK        -0.5000 
     20 C           0.1457  -23.4958  -44.6783 C.2       10 UNK         0.5000 
     21 O          -0.0719  -24.6996  -44.8078 O.2       10 UNK        -0.5000 
     22 CA          0.2896  -22.9031  -43.2663 C.3       10 UNK         0.1400 
     23 CB          1.7576  -22.5824  -42.9487 C.3       10 UNK        -0.1800 
     24 N          -0.5389  -21.7125  -43.0752 N.am      10 UNK        -0.5000 
     25 C          -1.8789  -21.7129  -43.1250 C.2       9 UNK         0.5000 
     26 O          -2.5537  -22.7290  -43.2951 O.2       9 UNK        -0.5000 
     27 CA         -2.5848  -20.3498  -43.0002 C.3       9 UNK         0.1400 
     28 CB         -2.7020  -19.9315  -41.5272 C.3       9 UNK        -0.1800 
     29 N          -1.9237  -19.2888  -43.7614 N.am      9 UNK        -0.5000 
     30 C          -1.7851  -19.2775  -45.0953 C.2       8 UNK         0.5000 
     31 O          -2.2272  -20.1518  -45.8377 O.2       8 UNK        -0.5000 
     32 CA         -0.9561  -18.1297  -45.6989 C.3       8 UNK         0.1400 
     33 CB         -1.7699  -16.8285  -45.7545 C.3       8 UNK        -0.1800 
     34 N           0.2937  -17.9044  -44.9723 N.am      8 UNK        -0.5000 
     35 C           1.2529  -18.8294  -44.8193 C.2       7 UNK         0.5000 
     36 O           1.2061  -19.9540  -45.3134 O.2       7 UNK        -0.5000 
     37 CA          2.4302  -18.4569  -43.9070 C.3       7 UNK         0.1400 
     38 CB          3.4564  -17.5991  -44.6619 C.3       7 UNK        -0.1800 
     39 N           1.9724  -17.7628  -42.7025 N.am      7 UNK        -0.5000 
     40 C           1.2841  -18.3543  -41.7141 C.2       6 UNK         0.5000 
     41 O           1.0085  -19.5536  -41.6972 O.2       6 UNK        -0.5000 
     42 CA          0.7848  -17.4484  -40.5732 C.3       6 UNK         0.1400 
     43 CB          1.8902  -17.2329  -39.5290 C.3       6 UNK        -0.1800 
     44 N           0.3084  -16.1499  -41.0510 N.am      6 UNK        -0.5000 
     45 C          -0.7713  -15.9757  -41.8263 C.2       5 UNK         0.5000 
     46 O          -1.5125  -16.8920  -42.1789 O.2       5 UNK        -0.5000 
     47 CA         -1.0366  -14.5461  -42.3370 C.3       5 UNK         0.1400 
     48 CB         -1.9299  -13.7752  -41.3551 C.3       5 UNK        -0.1800 
     49 N           0.1876  -13.7783  -42.5829 N.am      5 UNK        -0.5000 
     50 C           1.1465  -14.1196  -43.4521 C.2       4 UNK         0.5000 
     51 O           1.0839  -15.1192  -44.1714 O.2       4 UNK        -0.5000 
     52 CA          2.3600  -13.1748  -43.5289 C.3       4 UNK         0.1400 
     53 CB          3.5611  -13.8201  -44.2419 C.3       4 UNK        -0.1800 
     54 N           2.0175  -11.9401  -44.2266 N.am      4 UNK        -0.5000 
     55 C           1.3381  -10.9012  -43.7245 C.2       3 UNK         0.5000 
     56 O           0.9170  -10.8704  -42.5670 O.2       3 UNK        -0.5000 
     57 CA          1.0409   -9.7178  -44.6745 C.3       3 UNK         0.1400 
     58 CB          1.5605   -8.3816  -44.1070 C.3       3 UNK        -0.1800 
     59 N           1.4817   -9.9262  -46.0641 N.am      3 UNK        -0.5000 
     60 C           2.7340   -9.9785  -46.5489 C.2       2 UNK         0.5000 
     61 O           3.7423   -9.7919  -45.8681 O.2       2 UNK        -0.5000 
     62 CA          2.8638  -10.3999  -48.0241 C.3       2 UNK         0.1400 
     63 CB          4.2863  -10.8491  -48.4067 C.3       2 UNK        -0.1800 
     64 N           1.9244  -11.4884  -48.2860 N.am      2 UNK        -0.5000 
     65 C           1.1155  -11.5892  -49.3448 C.2       1 UNK         0.5000 
     66 O           1.1436  -10.8216  -50.3078 O.2       1 UNK        -0.5000 
     67 C          -1.4133  -23.4667  -47.4134 C.2       11 UNK         0.5000 
     68 O          -1.6027  -24.3712  -48.2283 O.2       11 UNK        -0.5000 
     69 N          -2.4056  -22.8584  -46.7458 N.am      12 UNK        -0.5000 
     70 CA         -3.8123  -23.2614  -46.8022 C.3       12 UNK         0.1400 
     71 CB         -4.7005  -22.2242  -46.1014 C.3       12 UNK        -0.1800 
     72 C          -4.0443  -24.6699  -46.2311 C.2       12 UNK         0.5000 
     73 O          -4.7782  -25.4528  -46.8333 O.2       12 UNK        -0.5000 
     74 N          -3.3867  -24.9833  -45.1081 N.am      13 UNK        -0.5000 
     75 CA         -3.4035  -26.3125  -44.5008 C.3       13 UNK         0.1400 
     76 CB         -2.8268  -26.2323  -43.0789 C.3       13 UNK        -0.1800 
     77 C          -2.6478  -27.3575  -45.3446 C.2       13 UNK         0.5000 
     78 O          -3.1333  -28.4792  -45.4966 O.2       13 UNK        -0.5000 
     79 N          -1.4741  -26.9765  -45.8659 N.am      14 UNK        -0.5000 
     80 CA         -0.5700  -27.8640  -46.5943 C.3       14 UNK         0.1400 
     81 CB          0.8401  -27.2538  -46.6135 C.3       14 UNK        -0.1800 
     82 C          -1.0259  -28.1914  -48.0267 C.2       14 UNK         0.5000 
     83 O          -0.9388  -29.3533  -48.4275 O.2       14 UNK        -0.5000 
     84 N          -1.4547  -27.1754  -48.7882 N.am      15 UNK        -0.5000 
     85 CA         -1.6535  -27.2790  -50.2372 C.3       15 UNK         0.1400 
     86 CB         -0.3038  -27.0627  -50.9523 C.3       15 UNK        -0.1800 
     87 C          -2.7488  -26.3309  -50.7565 C.2       15 UNK         0.5000 
     88 O          -2.6755  -25.8883  -51.9054 O.2       15 UNK        -0.5000 
     89 N          -3.7372  -26.0128  -49.9053 N.am      16 UNK        -0.5000 
     90 CA         -4.9156  -25.1786  -50.1932 C.3       16 UNK         0.1400 
     91 CB         -5.8408  -25.8938  -51.2003 C.3       16 UNK        -0.1800 
     92 C          -4.5898  -23.7357  -50.6405 C.2       16 UNK         0.5000 
     93 O          -5.4462  -23.0832  -51.2383 O.2       16 UNK        -0.5000 
     94 N          -3.3583  -23.2715  -50.3662 N.am      17 UNK        -0.5000 
     95 CA         -2.7578  -22.0122  -50.8223 C.3       17 UNK         0.1400 
     96 CB         -3.3238  -20.8204  -50.0263 C.3       17 UNK        -0.1800 
     97 C          -2.8664  -21.8419  -52.3525 C.2       17 UNK         0.5000 
     98 O          -3.2413  -20.7733  -52.8371 O.2       17 UNK        -0.5000 
     99 N          -2.5984  -22.9423  -53.0726 N.am      18 UNK        -0.5000 
    100 CA        -2.7820  -23.1692  -54.5095 C.3       18 UNK         0.1400 
    101 CB        -1.9996  -22.1524  -55.3640 C.3       18 UNK        -0.1800 
    102 C         -4.2666  -23.2386  -54.9165 C.2       18 UNK         0.5000 
    103 O         -4.6943  -24.2496  -55.4747 O.2       18 UNK        -0.5000 
    104 N         -5.0231  -22.1791  -54.6166 N.am      19 UNK        -0.5000 
    105 CA        -6.4520  -22.0383  -54.8818 C.3       19 UNK         0.1400 
    106 CB        -6.6966  -21.7832  -56.3841 C.3       19 UNK        -0.1800 
    107 C         -7.0190  -20.9270  -53.9831 C.2       19 UNK         0.5000 
    108 O         -7.6276  -19.9794  -54.4813 O.2       19 UNK        -0.5000 
    109 N         -6.7492  -21.0301  -52.6736 N.am      20 UNK        -0.5000 
    110 CA        -7.0669  -20.0940  -51.5835 C.3       20 UNK         0.1400 
    111 CB        -8.5799  -19.8154  -51.4922 C.3       20 UNK        -0.1800 
    112 C         -6.2515  -18.7826  -51.5954 C.2       20 UNK         0.5000 
    113 O         -6.0902  -18.1687  -50.5401 O.2       20 UNK        -0.5000 
    114 N         -5.7308  -18.3889  -52.7589 N.am      21 UNK        -0.5000 
    115 CA        -4.8396  -17.2627  -52.9884 C.3       21 UNK         0.1400 
    116 CB        -5.6521  -15.9576  -53.0692 C.3       21 UNK        -0.1800 
    117 C         -4.0676  -17.5242  -54.2902 C.2       21 UNK         0.5000 
    118 O         -4.4755  -18.3724  -55.0898 O.2       21 UNK        -0.5000 
    119 N         -2.9727  -16.7843  -54.4832 N.am      22 UNK        -0.5000 
    120 CA        -2.0657  -16.9179  -55.6345 C.3       22 UNK         0.1400 
    121 C         -1.4806  -15.5655  -56.1376 C.2       22 UNK         0.5000 
    122 N         -1.9907  -14.4183  -55.7034 N.am      22 UNK        -0.7600 
    123 O         -0.5662  -15.5482  -56.9573 O.2       22 UNK        -0.5000 
    124 C124       -0.9973  -18.0214  -55.4047 C.3       23 UNK        -0.0398 
    125 S125        0.1096  -17.7061  -53.9853 S.3       23 UNK        -0.2404 
    126 C126       -0.6440  -18.7625  -52.7110 C.3       23 UNK        -0.0205 
    127 H127       -1.2168  -12.0708  -44.9485 H         1 UNK         0.0600 
    128 H128       -1.0394  -13.7131  -45.5619 H         1 UNK         0.0600 
    129 H129       -2.5730  -12.8588  -45.7581 H         1 UNK         0.0600 
    130 H130       -0.2876  -13.9820  -47.6485 H         1 UNK         0.3000 
    131 H131       -0.7975  -12.3493  -49.8539 H         1 UNK         0.0600 
    132 H132       -0.2940  -14.6236  -50.2658 H         1 UNK         0.0800 
    133 H133        1.0061  -13.7429  -50.9916 H         1 UNK         0.0800 
    134 H134       -0.2712  -16.0631  -48.3629 H         1 UNK         0.0800 
    135 H135        1.1174  -16.6416  -47.4811 H         1 UNK         0.0800 
    136 H136       -0.5884  -16.8129  -50.8181 H         1 UNK         0.1150 
    137 H137        1.0773  -20.6424  -51.7580 H         1 UNK         0.1150 
    138 H138        2.3078  -18.5934  -48.1997 H         1 UNK         0.1150 
    139 H139        2.6266  -21.7022  -50.3358 H         1 UNK         0.0800 
    140 H140        3.7264  -20.5754  -49.5787 H         1 UNK         0.0800 
    141 H141        0.2978  -22.2429  -49.1240 H         1 UNK         0.0800 
    142 H142       -0.0240  -21.0061  -47.9246 H         1 UNK         0.0800 
    143 H143        0.6570  -23.9114  -47.2794 H         1 UNK         0.0600 
    144 H144        0.4405  -21.6652  -45.5317 H         1 UNK         0.3000 
    145 H145       -0.0494  -23.6596  -42.5555 H         1 UNK         0.0600 
    146 H146        1.8713  -22.2350  -41.9217 H         1 UNK         0.0600 
    147 H147        2.3834  -23.4682  -43.0637 H         1 UNK         0.0600 
    148 H148        2.1564  -21.8119  -43.6082 H         1 UNK         0.0600 
    149 H149       -0.0518  -20.8425  -42.8881 H         1 UNK         0.3000 
    150 H150       -3.5942  -20.4624  -43.4001 H         1 UNK         0.0600 
    151 H151       -3.2056  -20.7010  -40.9408 H         1 UNK         0.0600 
    152 H152       -3.2802  -19.0131  -41.4239 H         1 UNK         0.0600 
    153 H153       -1.7234  -19.7621  -41.0774 H         1 UNK         0.0600 
    154 H154       -1.5671  -18.5022  -43.2257 H         1 UNK         0.3000 
    155 H155       -0.6942  -18.4124  -46.7207 H         1 UNK         0.0600 
    156 H156       -2.1240  -16.5284  -44.7689 H         1 UNK         0.0600 
    157 H157       -2.6454  -16.9464  -46.3939 H         1 UNK         0.0600 
    158 H158       -1.1780  -16.0087  -46.1575 H         1 UNK         0.0600 
    159 H159        0.4292  -16.9910  -44.5510 H         1 UNK         0.3000 
    160 H160        2.9251  -19.3807  -43.5999 H         1 UNK         0.0600 
    161 H161        3.0129  -16.6853  -45.0564 H         1 UNK         0.0600 
    162 H162        3.8679  -18.1488  -45.5094 H         1 UNK         0.0600 
    163 H163        4.2911  -17.3208  -44.0186 H         1 UNK         0.0600 
    164 H164        2.1022  -16.7624  -42.6778 H         1 UNK         0.3000 
    165 H165       -0.0502  -17.9569  -40.0864 H         1 UNK         0.0600 
    166 H166        1.5227  -16.6578  -38.6789 H         1 UNK         0.0600 
    167 H167        2.2521  -18.1866  -39.1424 H         1 UNK         0.0600 
    168 H168        2.7459  -16.7029  -39.9491 H         1 UNK         0.0600 
    169 H169        0.8579  -15.3403  -40.8036 H         1 UNK         0.3000 
    170 H170       -1.5702  -14.6320  -43.2850 H         1 UNK         0.0600 
    171 H171       -2.8612  -14.3122  -41.1698 H         1 UNK         0.0600 
    172 H172       -1.4376  -13.6278  -40.3931 H         1 UNK         0.0600 
    173 H173       -2.1945  -12.7944  -41.7509 H         1 UNK         0.0600 
    174 H174        0.2887  -12.9017  -42.0846 H         1 UNK         0.3000 
    175 H175        2.6657  -12.9345  -42.5084 H         1 UNK         0.0600 
    176 H176        3.3264  -14.0901  -45.2726 H         1 UNK         0.0600 
    177 H177        4.4166  -13.1445  -44.2609 H         1 UNK         0.0600 
    178 H178        3.8783  -14.7265  -43.7257 H         1 UNK         0.0600 
    179 H179        2.3431  -11.8640  -45.1764 H         1 UNK         0.3000 
    180 H180       -0.0466   -9.6464  -44.7239 H         1 UNK         0.0600 
    181 H181        2.6379   -8.3978  -43.9420 H         1 UNK         0.0600 
    182 H182        1.0917   -8.1588  -43.1478 H         1 UNK         0.0600 
    183 H183        1.3342   -7.5527  -44.7777 H         1 UNK         0.0600 
    184 H184        0.7264  -10.1084  -46.7161 H         1 UNK         0.3000 
    185 H185        2.6036   -9.5235  -48.6212 H         1 UNK         0.0600 
    186 H186        5.0076  -10.0460  -48.2510 H         1 UNK         0.0600 
    187 H187        4.6099  -11.7054  -47.8137 H         1 UNK         0.0600 
    188 H188        4.3388  -11.1319  -49.4581 H         1 UNK         0.0600 
    189 H189        1.8303  -12.1845  -47.5612 H         1 UNK         0.3000 
    190 H190       -2.1888  -22.0587  -46.1575 H         1 UNK         0.3000 
    191 H191       -4.1134  -23.2817  -47.8464 H         1 UNK         0.0600 
    192 H192       -4.4428  -22.1132  -45.0493 H         1 UNK         0.0600 
    193 H193       -5.7510  -22.5128  -46.1524 H         1 UNK         0.0600 
    194 H194       -4.6112  -21.2465  -46.5750 H         1 UNK         0.0600 
    195 H195       -2.8363  -24.2691  -44.6423 H         1 UNK         0.3000 
    196 H196       -4.4434  -26.6371  -44.4227 H         1 UNK         0.0600 
    197 H197       -2.8513  -27.2078  -42.5918 H         1 UNK         0.0600 
    198 H198       -3.4023  -25.5439  -42.4597 H         1 UNK         0.0600 
    199 H199       -1.7912  -25.8913  -43.0801 H         1 UNK         0.0600 
    200 H200       -1.1150  -26.0541  -45.6331 H         1 UNK         0.3000 
    201 H201       -0.5111  -28.8068  -46.0459 H         1 UNK         0.0600 
    202 H202        1.2168  -27.0992  -45.6023 H         1 UNK         0.0600 
    203 H203        0.8554  -26.2926  -47.1273 H         1 UNK         0.0600 
    204 H204        1.5443  -27.9108  -47.1255 H         1 UNK         0.0600 
    205 H205       -1.5015  -26.2354  -48.4005 H         1 UNK         0.3000 
    206 H206       -2.0086  -28.2822  -50.4808 H         1 UNK         0.0600 
    207 H207        0.4439  -27.7814  -50.6169 H         1 UNK         0.0600 
    208 H208       -0.4010  -27.1855  -52.0317 H         1 UNK         0.0600 
    209 H209        0.0873  -26.0616  -50.7665 H         1 UNK         0.0600 
    210 H210       -3.6971  -26.3937  -48.9691 H         1 UNK         0.3000 
    211 H211       -5.4702  -25.0829  -49.2610 H         1 UNK         0.0600 
    212 H212       -5.3918  -25.9514  -52.1925 H         1 UNK         0.0600 
    213 H213       -6.7909  -25.3683  -51.3035 H         1 UNK         0.0600 
    214 H214       -6.0689  -26.9087  -50.8748 H         1 UNK         0.0600 
    215 H215       -2.7415  -23.8824  -49.8407 H         1 UNK         0.3000 
    216 H216       -1.6917  -22.0762  -50.6026 H         1 UNK         0.0600 
    217 H217       -2.8534  -19.8843  -50.3303 H         1 UNK         0.0600 
    218 H218       -3.1432  -20.9394  -48.9579 H         1 UNK         0.0600 
    219 H219       -4.3972  -20.7124  -50.1727 H         1 UNK         0.0600 
    220 H220       -2.3894  -23.7871  -52.5520 H         1 UNK         0.3000 
    221 H221       -2.3536  -24.1540  -54.7035 H         1 UNK         0.0600 
    222 H222       -2.4211  -21.1499  -55.2959 H         1 UNK         0.0600 
    223 H223       -0.9542  -22.0998  -55.0600 H         1 UNK         0.0600 
    224 H224       -2.0201  -22.4379  -56.4162 H         1 UNK         0.0600 
    225 H225       -4.5792  -21.4121  -54.1167 H         1 UNK         0.3000 
    226 H226       -6.9561  -22.9642  -54.5976 H         1 UNK         0.0600 
    227 H227       -6.3423  -22.6132  -56.9949 H         1 UNK         0.0600 
    228 H228       -7.7602  -21.6635  -56.5932 H         1 UNK         0.0600 
    229 H229       -6.1889  -20.8787  -56.7217 H         1 UNK         0.0600 
    230 H230       -6.2210  -21.8437  -52.3601 H         1 UNK         0.3000 
    231 H231       -6.7831  -20.6169  -50.6693 H         1 UNK         0.0600 
    232 H232       -9.1506  -20.7430  -51.4496 H         1 UNK         0.0600 
    233 H233       -8.9417  -19.2344  -52.3406 H         1 UNK         0.0600 
    234 H234       -8.8142  -19.2480  -50.5908 H         1 UNK         0.0600 
    235 H235       -5.9083  -18.9458  -53.5874 H         1 UNK         0.3000 
    236 H236       -4.1214  -17.2040  -52.1679 H         1 UNK         0.0600 
    237 H237       -5.0033  -15.0988  -53.2432 H         1 UNK         0.0600 
    238 H238       -6.3805  -15.9905  -53.8805 H         1 UNK         0.0600 
    239 H239       -6.1935  -15.7692  -52.1420 H         1 UNK         0.0600 
    240 H240       -2.6860  -16.1185  -53.7805 H         1 UNK         0.3000 
    241 H241       -2.6660  -17.2460  -56.4851 H         1 UNK         0.0600 
    242 H242       -1.6056  -13.5517  -56.0460 H         1 UNK         0.3800 
    243 H243       -2.7878  -14.3967  -55.0888 H         1 UNK         0.3800 
    244 H244       -1.4931  -18.9817  -55.2644 H         1 UNK         0.0800 
    245 H245       -0.3813  -18.1456  -56.2966 H         1 UNK         0.0800 
    246 H246       -0.7096  -19.7837  -53.0887 H         1 UNK         0.0800 
    247 H247       -1.6656  -18.4378  -52.5116 H         1 UNK         0.0800 
@<TRIPOS>BOND
     1    1    2 1    
     2    1  127 1    
     3    1  128 1    
     4    1  129 1    
     5    2    3 2    
     6    2    4 am   BACKBONE|DICT|INTERRES
     7    4    5 1    
     8    4  130 1    
     9    5    6 1    
    10    5   65 1    
    11    5  131 1    
    12    6    7 1    
    13    6  132 1    
    14    6  133 1    
    15    7    8 1    
    16    8    9 1    
    17    8  134 1    
    18    8  135 1    
    19    9   10 ar   
    20    9   14 ar   
    21   10   11 ar   
    22   10  136 1    
    23   11   12 ar   
    24   11  126 1    
    25   12   13 ar   
    26   12  137 1    
    27   13   14 ar   
    28   13   15 1    
    29   14  138 1    
    30   15   16 1    
    31   15  139 1    
    32   15  140 1    
    33   16   17 1    
    34   17   18 1    
    35   17  141 1    
    36   17  142 1    
    37   18   19 1    
    38   18   67 1    
    39   18  143 1    
    40   19   20 am   BACKBONE|DICT|INTERRES
    41   19  144 1    
    42   20   21 2    
    43   20   22 1    
    44   22   23 1    
    45   22   24 1    
    46   22  145 1    
    47   23  146 1    
    48   23  147 1    
    49   23  148 1    
    50   24   25 am   BACKBONE|DICT|INTERRES
    51   24  149 1    
    52   25   26 2    
    53   25   27 1    
    54   27   28 1    
    55   27   29 1    
    56   27  150 1    
    57   28  151 1    
    58   28  152 1    
    59   28  153 1    
    60   29   30 am   BACKBONE|DICT|INTERRES
    61   29  154 1    
    62   30   31 2    
    63   30   32 1    
    64   32   33 1    
    65   32   34 1    
    66   32  155 1    
    67   33  156 1    
    68   33  157 1    
    69   33  158 1    
    70   34   35 am   BACKBONE|DICT|INTERRES
    71   34  159 1    
    72   35   36 2    
    73   35   37 1    
    74   37   38 1    
    75   37   39 1    
    76   37  160 1    
    77   38  161 1    
    78   38  162 1    
    79   38  163 1    
    80   39   40 am   BACKBONE|DICT|INTERRES
    81   39  164 1    
    82   40   41 2    
    83   40   42 1    
    84   42   43 1    
    85   42   44 1    
    86   42  165 1    
    87   43  166 1    
    88   43  167 1    
    89   43  168 1    
    90   44   45 am   BACKBONE|DICT|INTERRES
    91   44  169 1    
    92   45   46 2    
    93   45   47 1    
    94   47   48 1    
    95   47   49 1    
    96   47  170 1    
    97   48  171 1    
    98   48  172 1    
    99   48  173 1    
   100   49   50 am   BACKBONE|DICT|INTERRES
   101   49  174 1    
   102   50   51 2    
   103   50   52 1    
   104   52   53 1    
   105   52   54 1    
   106   52  175 1    
   107   53  176 1    
   108   53  177 1    
   109   53  178 1    
   110   54   55 am   BACKBONE|DICT|INTERRES
   111   54  179 1    
   112   55   56 2    
   113   55   57 1    
   114   57   58 1    
   115   57   59 1    
   116   57  180 1    
   117   58  181 1    
   118   58  182 1    
   119   58  183 1    
   120   59   60 am   BACKBONE|DICT|INTERRES
   121   59  184 1    
   122   60   61 2    
   123   60   62 1    
   124   62   63 1    
   125   62   64 1    
   126   62  185 1    
   127   63  186 1    
   128   63  187 1    
   129   63  188 1    
   130   64   65 am   BACKBONE|DICT|INTERRES
   131   64  189 1    
   132   65   66 2    
   133   67   68 2    
   134   67   69 am   BACKBONE|DICT|INTERRES
   135   69   70 1    
   136   69  190 1    
   137   70   71 1    
   138   70   72 1    
   139   70  191 1    
   140   71  192 1    
   141   71  193 1    
   142   71  194 1    
   143   72   73 2    
   144   72   74 am   BACKBONE|DICT|INTERRES
   145   74   75 1    
   146   74  195 1    
   147   75   76 1    
   148   75   77 1    
   149   75  196 1    
   150   76  197 1    
   151   76  198 1    
   152   76  199 1    
   153   77   78 2    
   154   77   79 am   BACKBONE|DICT|INTERRES
   155   79   80 1    
   156   79  200 1    
   157   80   81 1    
   158   80   82 1    
   159   80  201 1    
   160   81  202 1    
   161   81  203 1    
   162   81  204 1    
   163   82   83 2    
   164   82   84 am   BACKBONE|DICT|INTERRES
   165   84   85 1    
   166   84  205 1    
   167   85   86 1    
   168   85   87 1    
   169   85  206 1    
   170   86  207 1    
   171   86  208 1    
   172   86  209 1    
   173   87   88 2    
   174   87   89 am   BACKBONE|DICT|INTERRES
   175   89   90 1    
   176   89  210 1    
   177   90   91 1    
   178   90   92 1    
   179   90  211 1    
   180   91  212 1    
   181   91  213 1    
   182   91  214 1    
   183   92   93 2    
   184   92   94 am   BACKBONE|DICT|INTERRES
   185   94   95 1    
   186   94  215 1    
   187   95   96 1    
   188   95   97 1    
   189   95  216 1    
   190   96  217 1    
   191   96  218 1    
   192   96  219 1    
   193   97   98 2    
   194   97   99 am   BACKBONE|DICT|INTERRES
   195   99  100 1    
   196   99  220 1    
   197  100  101 1    
   198  100  102 1    
   199  100  221 1    
   200  101  222 1    
   201  101  223 1    
   202  101  224 1    
   203  102  103 2    
   204  102  104 am   BACKBONE|DICT|INTERRES
   205  104  105 1    
   206  104  225 1    
   207  105  106 1    
   208  105  107 1    
   209  105  226 1    
   210  106  227 1    
   211  106  228 1    
   212  106  229 1    
   213  107  108 2    
   214  107  109 am   BACKBONE|DICT|INTERRES
   215  109  110 1    
   216  109  230 1    
   217  110  111 1    
   218  110  112 1    
   219  110  231 1    
   220  111  232 1    
   221  111  233 1    
   222  111  234 1    
   223  112  113 2    
   224  112  114 am   BACKBONE|DICT|INTERRES
   225  114  115 1    
   226  114  235 1    
   227  115  116 1    
   228  115  117 1    
   229  115  236 1    
   230  116  237 1    
   231  116  238 1    
   232  116  239 1    
   233  117  118 2    
   234  117  119 am   BACKBONE|DICT|INTERRES
   235  119  120 1    
   236  119  240 1    
   237  120  121 1    
   238  120  124 1    
   239  120  241 1    
   240  121  122 am   BACKBONE|DICT|INTERRES
   241  121  123 2    
   242  122  242 1    
   243  122  243 1    
   244  124  125 1    
   245  124  244 1    
   246  124  245 1    
   247  125  126 1    
   248  126  246 1    
   249  126  247 1    
@<TRIPOS>SUBSTRUCTURE
     1 UNK         1 GROUP             0       ****    0 ROOT    
