@<TRIPOS>MOLECULE
3R540
247   249    1
SMALL
USER_CHARGES


@<TRIPOS>ATOM
      1 CA          7.7343  -16.8921  -44.6353 C.3       0 UNK        -0.1800 
      2 C           6.3102  -16.3961  -44.8404 C.2       0 UNK         0.5000 
      3 O           5.3858  -16.9081  -44.2089 O.2       0 UNK        -0.5000 
      4 N           6.1275  -15.4032  -45.7200 N.am      1 UNK        -0.5000 
      5 CA          4.8417  -14.7719  -46.0242 C.3       1 UNK         0.1400 
      6 C6          4.8528  -14.1158  -47.4272 C.3       23 UNK        -0.0398 
      7 S7          3.1667  -13.7929  -48.0513 S.3       23 UNK        -0.2404 
      8 C8          3.4546  -13.7715  -49.8510 C.3       23 UNK        -0.0205 
      9 C9          3.1152  -15.0852  -50.5512 C.ar      23 UNK        -0.0193 
     10 C10         2.4111  -15.0509  -51.7582 C.ar      23 UNK        -0.1150 
     11 C11         2.1140  -16.2305  -52.4431 C.ar      23 UNK        -0.0193 
     12 C12         2.5356  -17.4544  -51.9209 C.ar      23 UNK        -0.1150 
     13 C13         3.2159  -17.5172  -50.6971 C.ar      23 UNK        -0.0193 
     14 C14         3.5108  -16.3237  -50.0301 C.ar      23 UNK        -0.1150 
     15 C15         3.6461  -18.8370  -50.0471 C.3       23 UNK        -0.0205 
     16 S16         2.9531  -20.3629  -50.7797 S.3       23 UNK        -0.2404 
     17 C17         1.1624  -20.1146  -50.5237 C.3       23 UNK        -0.0398 
     18 CA          0.5040  -21.2142  -49.6552 C.3       11 UNK         0.1400 
     19 N           1.0186  -21.2308  -48.2855 N.am      11 UNK        -0.5000 
     20 C           1.8042  -22.1814  -47.7680 C.2       10 UNK         0.5000 
     21 O           2.2233  -23.1506  -48.4007 O.2       10 UNK        -0.5000 
     22 CA          2.1705  -22.0389  -46.2786 C.3       10 UNK         0.1400 
     23 CB          3.5002  -21.2818  -46.1349 C.3       10 UNK        -0.1800 
     24 N           1.1620  -21.3651  -45.4568 N.am      10 UNK        -0.5000 
     25 C          -0.1302  -21.6888  -45.3144 C.2       9 UNK         0.5000 
     26 O          -0.6803  -22.6035  -45.9307 O.2       9 UNK        -0.5000 
     27 CA         -0.9709  -20.8310  -44.3481 C.3       9 UNK         0.1400 
     28 CB         -1.1743  -21.5519  -43.0025 C.3       9 UNK        -0.1800 
     29 N          -0.4843  -19.4567  -44.1604 N.am      9 UNK        -0.5000 
     30 C           0.6130  -19.0250  -43.5205 C.2       8 UNK         0.5000 
     31 O           1.4381  -19.7699  -42.9930 O.2       8 UNK        -0.5000 
     32 CA          0.8618  -17.5071  -43.5125 C.3       8 UNK         0.1400 
     33 CB          1.8063  -17.1292  -44.6635 C.3       8 UNK        -0.1800 
     34 N          -0.3612  -16.7177  -43.6359 N.am      8 UNK        -0.5000 
     35 C          -1.3223  -16.6114  -42.7094 C.2       7 UNK         0.5000 
     36 O          -1.2793  -17.1618  -41.6085 O.2       7 UNK        -0.5000 
     37 CA         -2.5546  -15.7742  -43.0956 C.3       7 UNK         0.1400 
     38 CB         -2.3206  -14.2789  -42.8315 C.3       7 UNK        -0.1800 
     39 N          -2.9139  -15.9635  -44.5013 N.am      7 UNK        -0.5000 
     40 C          -3.6607  -16.9750  -44.9624 C.2       6 UNK         0.5000 
     41 O          -4.1629  -17.8381  -44.2428 O.2       6 UNK        -0.5000 
     42 CA         -3.8797  -17.0434  -46.4856 C.3       6 UNK         0.1400 
     43 CB         -5.1413  -16.2675  -46.8921 C.3       6 UNK        -0.1800 
     44 N          -2.7413  -16.5470  -47.2598 N.am      6 UNK        -0.5000 
     45 C          -1.5566  -17.1660  -47.3596 C.2       5 UNK         0.5000 
     46 O          -1.2936  -18.2426  -46.8224 O.2       5 UNK        -0.5000 
     47 CA         -0.4707  -16.4343  -48.1733 C.3       5 UNK         0.1400 
     48 CB         -0.6309  -16.7489  -49.6663 C.3       5 UNK        -0.1800 
     49 N          -0.4526  -14.9763  -48.0004 N.am      5 UNK        -0.5000 
     50 C          -0.3665  -14.3305  -46.8308 C.2       4 UNK         0.5000 
     51 O          -0.3482  -14.8976  -45.7388 O.2       4 UNK        -0.5000 
     52 CA         -0.3626  -12.7991  -46.8835 C.3       4 UNK         0.1400 
     53 CB         -1.7929  -12.2710  -47.1063 C.3       4 UNK        -0.1800 
     54 N           0.1721  -12.2850  -45.6257 N.am      4 UNK        -0.5000 
     55 C           0.6039  -11.0401  -45.4076 C.2       3 UNK         0.5000 
     56 O           0.6188  -10.1646  -46.2741 O.2       3 UNK        -0.5000 
     57 CA          1.1082  -10.6998  -43.9913 C.3       3 UNK         0.1400 
     58 CB         -0.0594  -10.5548  -42.9948 C.3       3 UNK        -0.1800 
     59 N           2.1524  -11.6015  -43.4890 N.am      3 UNK        -0.5000 
     60 C           2.0504  -12.8832  -43.1155 C.2       2 UNK         0.5000 
     61 O           1.0047  -13.5312  -43.1430 O.2       2 UNK        -0.5000 
     62 CA          3.3602  -13.5683  -42.6827 C.3       2 UNK         0.1400 
     63 CB          3.1417  -14.5211  -41.4958 C.3       2 UNK        -0.1800 
     64 N           3.9285  -14.3210  -43.7970 N.am      2 UNK        -0.5000 
     65 C           4.4574  -13.7832  -44.9017 C.2       1 UNK         0.5000 
     66 O           4.6703  -12.5760  -45.0334 O.2       1 UNK        -0.5000 
     67 C          -1.0320  -21.0915  -49.6176 C.2       11 UNK         0.5000 
     68 O          -1.6130  -20.3855  -50.4424 O.2       11 UNK        -0.5000 
     69 N          -1.6695  -21.7703  -48.6574 N.am      12 UNK        -0.5000 
     70 CA         -3.1176  -21.8396  -48.5167 C.3       12 UNK         0.1400 
     71 CB         -3.6335  -20.6366  -47.7076 C.3       12 UNK        -0.1800 
     72 C          -3.4783  -23.2043  -47.9216 C.2       12 UNK         0.5000 
     73 O          -3.4999  -24.1901  -48.6584 O.2       12 UNK        -0.5000 
     74 N          -3.7140  -23.2608  -46.6045 N.am      13 UNK        -0.5000 
     75 CA         -4.1005  -24.4688  -45.8715 C.3       13 UNK         0.1400 
     76 CB         -4.3776  -24.1069  -44.4058 C.3       13 UNK        -0.1800 
     77 C          -3.0761  -25.6163  -45.9651 C.2       13 UNK         0.5000 
     78 O          -3.4799  -26.7765  -46.0433 O.2       13 UNK        -0.5000 
     79 N          -1.7779  -25.2833  -46.0188 N.am      14 UNK        -0.5000 
     80 CA         -0.6889  -26.2465  -46.2139 C.3       14 UNK         0.1400 
     81 CB          0.6466  -25.5779  -45.8650 C.3       14 UNK        -0.1800 
     82 C          -0.6399  -26.8262  -47.6431 C.2       14 UNK         0.5000 
     83 O          -0.0982  -27.9150  -47.8347 O.2       14 UNK        -0.5000 
     84 N          -1.2264  -26.1074  -48.6101 N.am      15 UNK        -0.5000 
     85 CA         -1.4212  -26.5427  -49.9941 C.3       15 UNK         0.1400 
     86 CB         -1.2347  -25.3279  -50.9222 C.3       15 UNK        -0.1800 
     87 C          -2.8045  -27.2001  -50.1999 C.2       15 UNK         0.5000 
     88 O          -3.1416  -27.5468  -51.3324 O.2       15 UNK        -0.5000 
     89 N          -3.5787  -27.3499  -49.1121 N.am      16 UNK        -0.5000 
     90 CA         -4.9431  -27.8811  -49.0334 C.3       16 UNK         0.1400 
     91 CB         -4.9900  -29.3597  -49.4730 C.3       16 UNK        -0.1800 
     92 C          -5.9961  -27.0057  -49.7469 C.2       16 UNK         0.5000 
     93 O          -7.0575  -27.5116  -50.1175 O.2       16 UNK        -0.5000 
     94 N          -5.7039  -25.7097  -49.9124 N.am      17 UNK        -0.5000 
     95 CA         -6.6156  -24.7190  -50.4763 C.3       17 UNK         0.1400 
     96 CB         -5.8010  -23.7206  -51.3125 C.3       17 UNK        -0.1800 
     97 C          -7.3866  -24.0055  -49.3514 C.2       17 UNK         0.5000 
     98 O          -6.8777  -23.8727  -48.2361 O.2       17 UNK        -0.5000 
     99 N          -8.6027  -23.5442  -49.6694 N.am      18 UNK        -0.5000 
    100 CA        -9.4924  -22.8306  -48.7444 C.3       18 UNK         0.1400 
    101 CB       -10.9373  -22.9703  -49.2501 C.3       18 UNK        -0.1800 
    102 C         -9.1280  -21.3416  -48.5625 C.2       18 UNK         0.5000 
    103 O         -9.6419  -20.6966  -47.6477 O.2       18 UNK        -0.5000 
    104 N         -8.2626  -20.8236  -49.4370 N.am      19 UNK        -0.5000 
    105 CA        -7.7261  -19.4684  -49.4475 C.3       19 UNK         0.1400 
    106 CB        -8.6799  -18.5405  -50.2248 C.3       19 UNK        -0.1800 
    107 C         -6.3190  -19.5290  -50.0658 C.2       19 UNK         0.5000 
    108 O         -5.7904  -20.6267  -50.2552 O.2       19 UNK        -0.5000 
    109 N         -5.7316  -18.3638  -50.3676 N.am      20 UNK        -0.5000 
    110 CA        -4.4258  -18.2295  -51.0175 C.3       20 UNK         0.1400 
    111 CB        -4.0987  -16.7377  -51.1834 C.3       20 UNK        -0.1800 
    112 C         -4.3670  -18.9542  -52.3778 C.2       20 UNK         0.5000 
    113 O         -5.1972  -18.6899  -53.2498 O.2       20 UNK        -0.5000 
    114 N         -3.3791  -19.8413  -52.5329 N.am      21 UNK        -0.5000 
    115 CA        -3.1646  -20.6890  -53.7081 C.3       21 UNK         0.1400 
    116 CB        -2.4484  -21.9732  -53.2524 C.3       21 UNK        -0.1800 
    117 C         -2.3899  -19.9836  -54.8437 C.2       21 UNK         0.5000 
    118 O         -1.9771  -20.6462  -55.7964 O.2       21 UNK        -0.5000 
    119 N         -2.1893  -18.6654  -54.7230 N.am      22 UNK        -0.5000 
    120 CA        -1.4363  -17.8078  -55.6542 C.3       22 UNK         0.1400 
    121 C         -2.0518  -17.6631  -57.0782 C.2       22 UNK         0.5000 
    122 N         -3.3177  -17.9989  -57.2953 N.am      22 UNK        -0.7600 
    123 O         -1.3654  -17.2361  -58.0025 O.2       22 UNK        -0.5000 
    124 C124       -1.1719  -16.4030  -55.0509 C.3       23 UNK        -0.0398 
    125 S125       -0.4557  -16.4517  -53.3735 S.3       23 UNK        -0.2404 
    126 C126        1.3075  -16.1913  -53.7295 C.3       23 UNK        -0.0205 
    127 H127        8.4457  -16.3554  -45.2633 H         1 UNK         0.0600 
    128 H128        7.7998  -17.9529  -44.8769 H         1 UNK         0.0600 
    129 H129        8.0308  -16.7594  -43.5949 H         1 UNK         0.0600 
    130 H130        6.9318  -15.0033  -46.1823 H         1 UNK         0.3000 
    131 H131        4.0851  -15.5599  -46.0456 H         1 UNK         0.0600 
    132 H132        5.3566  -14.7770  -48.1325 H         1 UNK         0.0800 
    133 H133        5.4266  -13.1875  -47.4371 H         1 UNK         0.0800 
    134 H134        2.8496  -12.9634  -50.2648 H         1 UNK         0.0800 
    135 H135        4.4914  -13.5091  -50.0648 H         1 UNK         0.0800 
    136 H136        2.0874  -14.1039  -52.1670 H         1 UNK         0.1150 
    137 H137        2.2996  -18.3538  -52.4691 H         1 UNK         0.1150 
    138 H138        4.0459  -16.3674  -49.0936 H         1 UNK         0.1150 
    139 H139        4.7339  -18.9027  -50.0909 H         1 UNK         0.0800 
    140 H140        3.3806  -18.8194  -48.9888 H         1 UNK         0.0800 
    141 H141        0.7052  -20.0795  -51.5143 H         1 UNK         0.0800 
    142 H142        0.9922  -19.1371  -50.0748 H         1 UNK         0.0800 
    143 H143        0.6964  -22.1740  -50.1391 H         1 UNK         0.0600 
    144 H144        0.6959  -20.4899  -47.6790 H         1 UNK         0.3000 
    145 H145        2.3049  -23.0421  -45.8717 H         1 UNK         0.0600 
    146 H146        3.8284  -21.2529  -45.0956 H         1 UNK         0.0600 
    147 H147        4.2908  -21.7646  -46.7111 H         1 UNK         0.0600 
    148 H148        3.4171  -20.2533  -46.4889 H         1 UNK         0.0600 
    149 H149        1.5063  -20.6373  -44.8426 H         1 UNK         0.3000 
    150 H150       -1.9533  -20.7273  -44.8069 H         1 UNK         0.0600 
    151 H151       -1.6234  -22.5337  -43.1506 H         1 UNK         0.0600 
    152 H152       -1.8370  -20.9850  -42.3486 H         1 UNK         0.0600 
    153 H153       -0.2343  -21.7100  -42.4741 H         1 UNK         0.0600 
    154 H154       -1.0230  -18.7531  -44.6509 H         1 UNK         0.3000 
    155 H155        1.3394  -17.2509  -42.5657 H         1 UNK         0.0600 
    156 H156        1.3941  -17.4171  -45.6309 H         1 UNK         0.0600 
    157 H157        2.7722  -17.6238  -44.5572 H         1 UNK         0.0600 
    158 H158        1.9830  -16.0549  -44.6882 H         1 UNK         0.0600 
    159 H159       -0.4406  -16.1470  -44.4758 H         1 UNK         0.3000 
    160 H160       -3.3849  -16.0975  -42.4639 H         1 UNK         0.0600 
    161 H161       -1.5737  -13.8626  -43.5066 H         1 UNK         0.0600 
    162 H162       -1.9737  -14.1079  -41.8117 H         1 UNK         0.0600 
    163 H163       -3.2401  -13.7089  -42.9640 H         1 UNK         0.0600 
    164 H164       -2.4721  -15.3420  -45.1645 H         1 UNK         0.3000 
    165 H165       -4.0383  -18.0905  -46.7398 H         1 UNK         0.0600 
    166 H166       -5.3523  -16.3873  -47.9547 H         1 UNK         0.0600 
    167 H167       -6.0143  -16.6282  -46.3465 H         1 UNK         0.0600 
    168 H168       -5.0424  -15.2010  -46.6861 H         1 UNK         0.0600 
    169 H169       -2.8592  -15.6605  -47.7269 H         1 UNK         0.3000 
    170 H170        0.4956  -16.8206  -47.8439 H         1 UNK         0.0600 
    171 H171       -0.8505  -17.8025  -49.8374 H         1 UNK         0.0600 
    172 H172       -1.4423  -16.1747  -50.1110 H         1 UNK         0.0600 
    173 H173        0.2798  -16.5107  -50.2132 H         1 UNK         0.0600 
    174 H174       -0.4669  -14.4327  -48.8509 H         1 UNK         0.3000 
    175 H175        0.2846  -12.4819  -47.7036 H         1 UNK         0.0600 
    176 H176       -2.4557  -12.5553  -46.2878 H         1 UNK         0.0600 
    177 H177       -1.8097  -11.1841  -47.1858 H         1 UNK         0.0600 
    178 H178       -2.2209  -12.6647  -48.0289 H         1 UNK         0.0600 
    179 H179        0.2425  -12.9699  -44.8747 H         1 UNK         0.3000 
    180 H180        1.5870   -9.7218  -44.0620 H         1 UNK         0.0600 
    181 H181       -0.6214  -11.4818  -42.8793 H         1 UNK         0.0600 
    182 H182       -0.7625   -9.7925  -43.3323 H         1 UNK         0.0600 
    183 H183        0.2978  -10.2543  -42.0099 H         1 UNK         0.0600 
    184 H184        3.0840  -11.2084  -43.5095 H         1 UNK         0.3000 
    185 H185        4.0760  -12.8041  -42.3725 H         1 UNK         0.0600 
    186 H186        4.0814  -14.9678  -41.1705 H         1 UNK         0.0600 
    187 H187        2.7210  -13.9882  -40.6423 H         1 UNK         0.0600 
    188 H188        2.4559  -15.3303  -41.7462 H         1 UNK         0.0600 
    189 H189        3.8680  -15.3297  -43.7416 H         1 UNK         0.3000 
    190 H190       -1.1328  -22.3012  -47.9806 H         1 UNK         0.3000 
    191 H191       -3.5747  -21.8082  -49.5068 H         1 UNK         0.0600 
    192 H192       -4.7053  -20.7154  -47.5206 H         1 UNK         0.0600 
    193 H193       -3.4699  -19.7143  -48.2624 H         1 UNK         0.0600 
    194 H194       -3.1265  -20.5345  -46.7501 H         1 UNK         0.0600 
    195 H195       -3.6514  -22.4098  -46.0677 H         1 UNK         0.3000 
    196 H196       -5.0317  -24.8303  -46.3130 H         1 UNK         0.0600 
    197 H197       -4.7047  -24.9821  -43.8429 H         1 UNK         0.0600 
    198 H198       -5.1655  -23.3577  -44.3258 H         1 UNK         0.0600 
    199 H199       -3.4881  -23.7147  -43.9139 H         1 UNK         0.0600 
    200 H200       -1.5118  -24.3032  -45.9599 H         1 UNK         0.3000 
    201 H201       -0.8427  -27.0784  -45.5233 H         1 UNK         0.0600 
    202 H202        0.6262  -25.1387  -44.8674 H         1 UNK         0.0600 
    203 H203        0.8853  -24.7904  -46.5778 H         1 UNK         0.0600 
    204 H204        1.4638  -26.2998  -45.8897 H         1 UNK         0.0600 
    205 H205       -1.7034  -25.2507  -48.3569 H         1 UNK         0.3000 
    206 H206       -0.6665  -27.2863  -50.2573 H         1 UNK         0.0600 
    207 H207       -0.2646  -24.8561  -50.7642 H         1 UNK         0.0600 
    208 H208       -1.2823  -25.6258  -51.9702 H         1 UNK         0.0600 
    209 H209       -2.0035  -24.5712  -50.7655 H         1 UNK         0.0600 
    210 H210       -3.2066  -27.0235  -48.2297 H         1 UNK         0.3000 
    211 H211       -5.2088  -27.8514  -47.9760 H         1 UNK         0.0600 
    212 H212       -4.8198  -29.4711  -50.5440 H         1 UNK         0.0600 
    213 H213       -5.9610  -29.8035  -49.2504 H         1 UNK         0.0600 
    214 H214       -4.2384  -29.9507  -48.9495 H         1 UNK         0.0600 
    215 H215       -4.8457  -25.3416  -49.5119 H         1 UNK         0.3000 
    216 H216       -7.3341  -25.2068  -51.1384 H         1 UNK         0.0600 
    217 H217       -6.4444  -22.9643  -51.7631 H         1 UNK         0.0600 
    218 H218       -5.2739  -24.2241  -52.1230 H         1 UNK         0.0600 
    219 H219       -5.0584  -23.2013  -50.7084 H         1 UNK         0.0600 
    220 H220       -8.9546  -23.6879  -50.6053 H         1 UNK         0.3000 
    221 H221       -9.4301  -23.3029  -47.7617 H         1 UNK         0.0600 
    222 H222      -11.0658  -22.5146  -50.2327 H         1 UNK         0.0600 
    223 H223      -11.2303  -24.0178  -49.3236 H         1 UNK         0.0600 
    224 H224      -11.6392  -22.4861  -48.5698 H         1 UNK         0.0600 
    225 H225       -7.8109  -21.4457  -50.0945 H         1 UNK         0.3000 
    226 H226       -7.6202  -19.1103  -48.4215 H         1 UNK         0.0600 
    227 H227       -8.7450  -18.8240  -51.2761 H         1 UNK         0.0600 
    228 H228       -9.6870  -18.5728  -49.8088 H         1 UNK         0.0600 
    229 H229       -8.3517  -17.5018  -50.1807 H         1 UNK         0.0600 
    230 H230       -6.2429  -17.5078  -50.2148 H         1 UNK         0.3000 
    231 H231       -3.6782  -18.6663  -50.3538 H         1 UNK         0.0600 
    232 H232       -4.8630  -16.2208  -51.7649 H         1 UNK         0.0600 
    233 H233       -3.1495  -16.6015  -51.7024 H         1 UNK         0.0600 
    234 H234       -4.0174  -16.2409  -50.2167 H         1 UNK         0.0600 
    235 H235       -2.7330  -19.9954  -51.7583 H         1 UNK         0.3000 
    236 H236       -4.1371  -20.9748  -54.1140 H         1 UNK         0.0600 
    237 H237       -2.9954  -22.4668  -52.4484 H         1 UNK         0.0600 
    238 H238       -2.3618  -22.6891  -54.0705 H         1 UNK         0.0600 
    239 H239       -1.4410  -21.7632  -52.8911 H         1 UNK         0.0600 
    240 H240       -2.5505  -18.2088  -53.8996 H         1 UNK         0.3000 
    241 H241       -0.4666  -18.2881  -55.7969 H         1 UNK         0.0600 
    242 H242       -3.7058  -17.9044  -58.2208 H         1 UNK         0.3800 
    243 H243       -3.8904  -18.3497  -56.5441 H         1 UNK         0.3800 
    244 H244       -0.5158  -15.8224  -55.7020 H         1 UNK         0.0800 
    245 H245       -2.1056  -15.8411  -54.9894 H         1 UNK         0.0800 
    246 H246        1.4436  -15.2335  -54.2340 H         1 UNK         0.0800 
    247 H247        1.6606  -16.9615  -54.4170 H         1 UNK         0.0800 
@<TRIPOS>BOND
     1    1    2 1    
     2    1  127 1    
     3    1  128 1    
     4    1  129 1    
     5    2    3 2    
     6    2    4 am   BACKBONE|DICT|INTERRES
     7    4    5 1    
     8    4  130 1    
     9    5    6 1    
    10    5   65 1    
    11    5  131 1    
    12    6    7 1    
    13    6  132 1    
    14    6  133 1    
    15    7    8 1    
    16    8    9 1    
    17    8  134 1    
    18    8  135 1    
    19    9   10 ar   
    20    9   14 ar   
    21   10   11 ar   
    22   10  136 1    
    23   11   12 ar   
    24   11  126 1    
    25   12   13 ar   
    26   12  137 1    
    27   13   14 ar   
    28   13   15 1    
    29   14  138 1    
    30   15   16 1    
    31   15  139 1    
    32   15  140 1    
    33   16   17 1    
    34   17   18 1    
    35   17  141 1    
    36   17  142 1    
    37   18   19 1    
    38   18   67 1    
    39   18  143 1    
    40   19   20 am   BACKBONE|DICT|INTERRES
    41   19  144 1    
    42   20   21 2    
    43   20   22 1    
    44   22   23 1    
    45   22   24 1    
    46   22  145 1    
    47   23  146 1    
    48   23  147 1    
    49   23  148 1    
    50   24   25 am   BACKBONE|DICT|INTERRES
    51   24  149 1    
    52   25   26 2    
    53   25   27 1    
    54   27   28 1    
    55   27   29 1    
    56   27  150 1    
    57   28  151 1    
    58   28  152 1    
    59   28  153 1    
    60   29   30 am   BACKBONE|DICT|INTERRES
    61   29  154 1    
    62   30   31 2    
    63   30   32 1    
    64   32   33 1    
    65   32   34 1    
    66   32  155 1    
    67   33  156 1    
    68   33  157 1    
    69   33  158 1    
    70   34   35 am   BACKBONE|DICT|INTERRES
    71   34  159 1    
    72   35   36 2    
    73   35   37 1    
    74   37   38 1    
    75   37   39 1    
    76   37  160 1    
    77   38  161 1    
    78   38  162 1    
    79   38  163 1    
    80   39   40 am   BACKBONE|DICT|INTERRES
    81   39  164 1    
    82   40   41 2    
    83   40   42 1    
    84   42   43 1    
    85   42   44 1    
    86   42  165 1    
    87   43  166 1    
    88   43  167 1    
    89   43  168 1    
    90   44   45 am   BACKBONE|DICT|INTERRES
    91   44  169 1    
    92   45   46 2    
    93   45   47 1    
    94   47   48 1    
    95   47   49 1    
    96   47  170 1    
    97   48  171 1    
    98   48  172 1    
    99   48  173 1    
   100   49   50 am   BACKBONE|DICT|INTERRES
   101   49  174 1    
   102   50   51 2    
   103   50   52 1    
   104   52   53 1    
   105   52   54 1    
   106   52  175 1    
   107   53  176 1    
   108   53  177 1    
   109   53  178 1    
   110   54   55 am   BACKBONE|DICT|INTERRES
   111   54  179 1    
   112   55   56 2    
   113   55   57 1    
   114   57   58 1    
   115   57   59 1    
   116   57  180 1    
   117   58  181 1    
   118   58  182 1    
   119   58  183 1    
   120   59   60 am   BACKBONE|DICT|INTERRES
   121   59  184 1    
   122   60   61 2    
   123   60   62 1    
   124   62   63 1    
   125   62   64 1    
   126   62  185 1    
   127   63  186 1    
   128   63  187 1    
   129   63  188 1    
   130   64   65 am   BACKBONE|DICT|INTERRES
   131   64  189 1    
   132   65   66 2    
   133   67   68 2    
   134   67   69 am   BACKBONE|DICT|INTERRES
   135   69   70 1    
   136   69  190 1    
   137   70   71 1    
   138   70   72 1    
   139   70  191 1    
   140   71  192 1    
   141   71  193 1    
   142   71  194 1    
   143   72   73 2    
   144   72   74 am   BACKBONE|DICT|INTERRES
   145   74   75 1    
   146   74  195 1    
   147   75   76 1    
   148   75   77 1    
   149   75  196 1    
   150   76  197 1    
   151   76  198 1    
   152   76  199 1    
   153   77   78 2    
   154   77   79 am   BACKBONE|DICT|INTERRES
   155   79   80 1    
   156   79  200 1    
   157   80   81 1    
   158   80   82 1    
   159   80  201 1    
   160   81  202 1    
   161   81  203 1    
   162   81  204 1    
   163   82   83 2    
   164   82   84 am   BACKBONE|DICT|INTERRES
   165   84   85 1    
   166   84  205 1    
   167   85   86 1    
   168   85   87 1    
   169   85  206 1    
   170   86  207 1    
   171   86  208 1    
   172   86  209 1    
   173   87   88 2    
   174   87   89 am   BACKBONE|DICT|INTERRES
   175   89   90 1    
   176   89  210 1    
   177   90   91 1    
   178   90   92 1    
   179   90  211 1    
   180   91  212 1    
   181   91  213 1    
   182   91  214 1    
   183   92   93 2    
   184   92   94 am   BACKBONE|DICT|INTERRES
   185   94   95 1    
   186   94  215 1    
   187   95   96 1    
   188   95   97 1    
   189   95  216 1    
   190   96  217 1    
   191   96  218 1    
   192   96  219 1    
   193   97   98 2    
   194   97   99 am   BACKBONE|DICT|INTERRES
   195   99  100 1    
   196   99  220 1    
   197  100  101 1    
   198  100  102 1    
   199  100  221 1    
   200  101  222 1    
   201  101  223 1    
   202  101  224 1    
   203  102  103 2    
   204  102  104 am   BACKBONE|DICT|INTERRES
   205  104  105 1    
   206  104  225 1    
   207  105  106 1    
   208  105  107 1    
   209  105  226 1    
   210  106  227 1    
   211  106  228 1    
   212  106  229 1    
   213  107  108 2    
   214  107  109 am   BACKBONE|DICT|INTERRES
   215  109  110 1    
   216  109  230 1    
   217  110  111 1    
   218  110  112 1    
   219  110  231 1    
   220  111  232 1    
   221  111  233 1    
   222  111  234 1    
   223  112  113 2    
   224  112  114 am   BACKBONE|DICT|INTERRES
   225  114  115 1    
   226  114  235 1    
   227  115  116 1    
   228  115  117 1    
   229  115  236 1    
   230  116  237 1    
   231  116  238 1    
   232  116  239 1    
   233  117  118 2    
   234  117  119 am   BACKBONE|DICT|INTERRES
   235  119  120 1    
   236  119  240 1    
   237  120  121 1    
   238  120  124 1    
   239  120  241 1    
   240  121  122 am   BACKBONE|DICT|INTERRES
   241  121  123 2    
   242  122  242 1    
   243  122  243 1    
   244  124  125 1    
   245  124  244 1    
   246  124  245 1    
   247  125  126 1    
   248  126  246 1    
   249  126  247 1    
@<TRIPOS>SUBSTRUCTURE
     1 UNK         1 GROUP             0       ****    0 ROOT    
