@<TRIPOS>MOLECULE
3R540
247   249    1
SMALL
USER_CHARGES


@<TRIPOS>ATOM
      1 CA          6.7860  -14.3738  -48.7102 C.3       0 UNK        -0.1800 
      2 C           5.2696  -14.3729  -48.5829 C.2       0 UNK         0.5000 
      3 O           4.6080  -13.5181  -49.1724 O.2       0 UNK        -0.5000 
      4 N           4.7225  -15.3150  -47.8014 N.am      1 UNK        -0.5000 
      5 CA          3.2957  -15.5610  -47.5256 C.3       1 UNK         0.1400 
      6 C6          2.4224  -15.8142  -48.7854 C.3       23 UNK        -0.0398 
      7 S7          3.0856  -17.1253  -49.8697 S.3       23 UNK        -0.2404 
      8 C8          1.9533  -18.5188  -49.5454 C.3       23 UNK        -0.0205 
      9 C9          0.5149  -18.2907  -50.0056 C.ar      23 UNK        -0.0193 
     10 C10         0.2292  -17.6601  -51.2227 C.ar      23 UNK        -0.1150 
     11 C11        -1.0907  -17.4862  -51.6519 C.ar      23 UNK        -0.0193 
     12 C12        -2.1316  -17.9735  -50.8549 C.ar      23 UNK        -0.1150 
     13 C13        -1.8641  -18.6225  -49.6487 C.ar      23 UNK        -0.0193 
     14 C14        -0.5411  -18.7681  -49.2239 C.ar      23 UNK        -0.1150 
     15 C15        -3.0023  -19.1735  -48.8087 C.3       23 UNK        -0.0205 
     16 S16        -3.3274  -20.9181  -49.2010 S.3       23 UNK        -0.2404 
     17 C17        -3.7404  -21.5974  -47.5560 C.3       23 UNK        -0.0398 
     18 CA         -2.7422  -22.6980  -47.1293 C.3       11 UNK         0.1400 
     19 N          -1.3485  -22.2345  -47.1193 N.am      11 UNK        -0.5000 
     20 C          -0.2883  -23.0516  -47.1025 C.2       10 UNK         0.5000 
     21 O          -0.3827  -24.2789  -47.0750 O.2       10 UNK        -0.5000 
     22 CA          1.1088  -22.4048  -47.0739 C.3       10 UNK         0.1400 
     23 CB          1.6101  -22.1866  -48.5090 C.3       10 UNK        -0.1800 
     24 N           1.2092  -21.1412  -46.3325 N.am      10 UNK        -0.5000 
     25 C           0.7972  -20.9142  -45.0762 C.2       9 UNK         0.5000 
     26 O           0.1668  -21.7431  -44.4164 O.2       9 UNK        -0.5000 
     27 CA          1.1445  -19.5463  -44.4496 C.3       9 UNK         0.1400 
     28 CB          1.6213  -18.4957  -45.4761 C.3       9 UNK        -0.1800 
     29 N          -0.0153  -19.0327  -43.7223 N.am      9 UNK        -0.5000 
     30 C          -0.2883  -19.2848  -42.4326 C.2       8 UNK         0.5000 
     31 O           0.4870  -19.8773  -41.6804 O.2       8 UNK        -0.5000 
     32 CA         -1.6513  -18.8174  -41.8804 C.3       8 UNK         0.1400 
     33 CB         -1.5131  -18.0753  -40.5395 C.3       8 UNK        -0.1800 
     34 N          -2.3774  -17.9696  -42.8283 N.am      8 UNK        -0.5000 
     35 C          -3.4154  -18.3822  -43.5695 C.2       7 UNK         0.5000 
     36 O          -3.8997  -19.5118  -43.5034 O.2       7 UNK        -0.5000 
     37 CA         -4.0107  -17.3796  -44.5768 C.3       7 UNK         0.1400 
     38 CB         -5.1243  -16.5540  -43.9155 C.3       7 UNK        -0.1800 
     39 N          -3.0433  -16.4655  -45.1848 N.am      7 UNK        -0.5000 
     40 C          -1.9374  -16.8056  -45.8554 C.2       6 UNK         0.5000 
     41 O          -1.5445  -17.9651  -45.9647 O.2       6 UNK        -0.5000 
     42 CA         -1.1049  -15.6680  -46.4759 C.3       6 UNK         0.1400 
     43 CB         -1.7248  -15.1491  -47.7856 C.3       6 UNK        -0.1800 
     44 N          -0.8060  -14.5789  -45.5410 N.am      6 UNK        -0.5000 
     45 C          -1.6443  -13.7262  -44.9336 C.2       5 UNK         0.5000 
     46 O          -2.8461  -13.6504  -45.1959 O.2       5 UNK        -0.5000 
     47 CA         -1.0489  -12.8430  -43.8148 C.3       5 UNK         0.1400 
     48 CB         -2.0921  -12.4925  -42.7340 C.3       5 UNK        -0.1800 
     49 N           0.1578  -13.3950  -43.1836 N.am      5 UNK        -0.5000 
     50 C           0.3013  -14.5838  -42.5718 C.2       4 UNK         0.5000 
     51 O          -0.5931  -15.4294  -42.5082 O.2       4 UNK        -0.5000 
     52 CA          1.6855  -14.8728  -41.9545 C.3       4 UNK         0.1400 
     53 CB          2.0232  -16.3722  -41.9086 C.3       4 UNK        -0.1800 
     54 N           2.7305  -14.1725  -42.7012 N.am      4 UNK        -0.5000 
     55 C           3.5975  -13.2898  -42.1870 C.2       3 UNK         0.5000 
     56 O           3.6844  -13.0346  -40.9855 O.2       3 UNK        -0.5000 
     57 CA          4.5053  -12.5367  -43.1840 C.3       3 UNK         0.1400 
     58 CB          5.8868  -13.2043  -43.2605 C.3       3 UNK        -0.1800 
     59 N           3.9514  -12.4437  -44.5379 N.am      3 UNK        -0.5000 
     60 C           2.8008  -11.8418  -44.8722 C.2       2 UNK         0.5000 
     61 O           2.0930  -11.2305  -44.0717 O.2       2 UNK        -0.5000 
     62 CA          2.3201  -12.0092  -46.3264 C.3       2 UNK         0.1400 
     63 CB          2.6811  -10.7699  -47.1575 C.3       2 UNK        -0.1800 
     64 N           2.8420  -13.2014  -47.0004 N.am      2 UNK        -0.5000 
     65 C           2.6660  -14.4754  -46.6268 C.2       1 UNK         0.5000 
     66 O           2.0646  -14.8029  -45.6018 O.2       1 UNK        -0.5000 
     67 C          -3.1686  -23.3612  -45.8005 C.2       11 UNK         0.5000 
     68 O          -4.1361  -24.1223  -45.7997 O.2       11 UNK        -0.5000 
     69 N          -2.4341  -23.0970  -44.7112 N.am      12 UNK        -0.5000 
     70 CA         -2.5958  -23.7559  -43.4176 C.3       12 UNK         0.1400 
     71 CB         -2.6192  -22.6946  -42.3066 C.3       12 UNK        -0.1800 
     72 C          -1.4580  -24.7607  -43.1746 C.2       12 UNK         0.5000 
     73 O          -1.7237  -25.8871  -42.7560 O.2       12 UNK        -0.5000 
     74 N          -0.2132  -24.3357  -43.4328 N.am      13 UNK        -0.5000 
     75 CA          1.0073  -25.0763  -43.1122 C.3       13 UNK         0.1400 
     76 CB          2.2106  -24.1254  -43.2079 C.3       13 UNK        -0.1800 
     77 C           1.2337  -26.3192  -43.9898 C.2       13 UNK         0.5000 
     78 O           1.6820  -27.3446  -43.4753 O.2       13 UNK        -0.5000 
     79 N           0.9287  -26.2058  -45.2881 N.am      14 UNK        -0.5000 
     80 CA          1.0944  -27.2699  -46.2821 C.3       14 UNK         0.1400 
     81 CB          1.9912  -26.7428  -47.4164 C.3       14 UNK        -0.1800 
     82 C          -0.2564  -27.7567  -46.8389 C.2       14 UNK         0.5000 
     83 O          -0.2693  -28.6861  -47.6469 O.2       14 UNK        -0.5000 
     84 N          -1.3581  -27.1146  -46.4181 N.am      15 UNK        -0.5000 
     85 CA         -2.7321  -27.2926  -46.9001 C.3       15 UNK         0.1400 
     86 CB         -3.2755  -28.6843  -46.5144 C.3       15 UNK        -0.1800 
     87 C          -2.8778  -26.9754  -48.4057 C.2       15 UNK         0.5000 
     88 O          -3.6294  -27.6520  -49.1110 O.2       15 UNK        -0.5000 
     89 N          -2.1289  -25.9665  -48.8752 N.am      16 UNK        -0.5000 
     90 CA         -2.0901  -25.5257  -50.2693 C.3       16 UNK         0.1400 
     91 CB         -0.9679  -24.4874  -50.4325 C.3       16 UNK        -0.1800 
     92 C          -3.4281  -24.9382  -50.7588 C.2       16 UNK         0.5000 
     93 O          -4.1871  -24.3703  -49.9715 O.2       16 UNK        -0.5000 
     94 N          -3.6563  -25.0382  -52.0732 N.am      17 UNK        -0.5000 
     95 CA         -4.8127  -24.4718  -52.7750 C.3       17 UNK         0.1400 
     96 CB         -5.2078  -25.4266  -53.9144 C.3       17 UNK        -0.1800 
     97 C          -4.5402  -23.0511  -53.3144 C.2       17 UNK         0.5000 
     98 O          -5.3596  -22.5206  -54.0655 O.2       17 UNK        -0.5000 
     99 N          -3.3970  -22.4573  -52.9387 N.am      18 UNK        -0.5000 
    100 CA        -2.8832  -21.1710  -53.4200 C.3       18 UNK         0.1400 
    101 CB        -1.5117  -20.9139  -52.7793 C.3       18 UNK        -0.1800 
    102 C         -3.8308  -19.9723  -53.2115 C.2       18 UNK         0.5000 
    103 O         -3.7669  -19.0156  -53.9827 O.2       18 UNK        -0.5000 
    104 N         -4.7399  -20.0687  -52.2315 N.am      19 UNK        -0.5000 
    105 CA        -5.8256  -19.1177  -51.9766 C.3       19 UNK         0.1400 
    106 CB        -6.5887  -19.5588  -50.7176 C.3       19 UNK        -0.1800 
    107 C         -6.8060  -18.9454  -53.1560 C.2       19 UNK         0.5000 
    108 O         -7.4614  -17.9072  -53.2409 O.2       19 UNK        -0.5000 
    109 N         -6.8927  -19.9500  -54.0397 N.am      20 UNK        -0.5000 
    110 CA        -7.6624  -19.8889  -55.2815 C.3       20 UNK         0.1400 
    111 CB        -8.1583  -21.3024  -55.6264 C.3       20 UNK        -0.1800 
    112 C         -6.8480  -19.3043  -56.4535 C.2       20 UNK         0.5000 
    113 O         -7.4456  -18.9377  -57.4665 O.2       20 UNK        -0.5000 
    114 N         -5.5145  -19.2471  -56.3218 N.am      21 UNK        -0.5000 
    115 CA        -4.6026  -18.7465  -57.3476 C.3       21 UNK         0.1400 
    116 CB        -3.2649  -19.5030  -57.2775 C.3       21 UNK        -0.1800 
    117 C         -4.3977  -17.2299  -57.2149 C.2       21 UNK         0.5000 
    118 O         -4.5951  -16.5119  -58.1967 O.2       21 UNK        -0.5000 
    119 N         -4.0133  -16.7670  -56.0169 N.am      22 UNK        -0.5000 
    120 CA        -3.8707  -15.3356  -55.7020 C.3       22 UNK         0.1400 
    121 C         -5.2099  -14.6620  -55.2813 C.2       22 UNK         0.5000 
    122 N         -5.2380  -13.3399  -55.1701 N.am      22 UNK        -0.7600 
    123 O         -6.2289  -15.3123  -55.0617 O.2       22 UNK        -0.5000 
    124 C124       -2.7017  -15.0556  -54.7196 C.3       23 UNK        -0.0398 
    125 S125       -2.8648  -15.7988  -53.0586 S.3       23 UNK        -0.2404 
    126 C126       -1.3571  -16.8268  -53.0036 C.3       23 UNK        -0.0205 
    127 H127        7.2422  -15.1757  -48.1292 H         1 UNK         0.0600 
    128 H128        7.1924  -13.4253  -48.3590 H         1 UNK         0.0600 
    129 H129        7.0735  -14.5040  -49.7535 H         1 UNK         0.0600 
    130 H130        5.3470  -15.9637  -47.3429 H         1 UNK         0.3000 
    131 H131        3.2786  -16.4805  -46.9392 H         1 UNK         0.0600 
    132 H132        1.4039  -16.0755  -48.4975 H         1 UNK         0.0800 
    133 H133        2.3342  -14.9064  -49.3840 H         1 UNK         0.0800 
    134 H134        1.9861  -18.7464  -48.4805 H         1 UNK         0.0800 
    135 H135        2.3380  -19.4002  -50.0597 H         1 UNK         0.0800 
    136 H136        1.0402  -17.3118  -51.8463 H         1 UNK         0.1150 
    137 H137       -3.1541  -17.8668  -51.1818 H         1 UNK         0.1150 
    138 H138       -0.3381  -19.2709  -48.2897 H         1 UNK         0.1150 
    139 H139       -2.7538  -19.0741  -47.7571 H         1 UNK         0.0800 
    140 H140       -3.9097  -18.5885  -48.9624 H         1 UNK         0.0800 
    141 H141       -4.7489  -22.0097  -47.6218 H         1 UNK         0.0800 
    142 H142       -3.7864  -20.8065  -46.8059 H         1 UNK         0.0800 
    143 H143       -2.8060  -23.4837  -47.8820 H         1 UNK         0.0600 
    144 H144       -1.2009  -21.2369  -47.1317 H         1 UNK         0.3000 
    145 H145        1.7789  -23.1148  -46.5860 H         1 UNK         0.0600 
    146 H146        2.6302  -21.8025  -48.5201 H         1 UNK         0.0600 
    147 H147        1.6134  -23.1235  -49.0678 H         1 UNK         0.0600 
    148 H148        0.9784  -21.4840  -49.0540 H         1 UNK         0.0600 
    149 H149        1.7238  -20.4059  -46.7916 H         1 UNK         0.3000 
    150 H150        1.9650  -19.7149  -43.7496 H         1 UNK         0.0600 
    151 H151        2.6012  -18.7568  -45.8770 H         1 UNK         0.0600 
    152 H152        1.7177  -17.5106  -45.0229 H         1 UNK         0.0600 
    153 H153        0.9353  -18.3952  -46.3154 H         1 UNK         0.0600 
    154 H154       -0.7289  -18.5939  -44.2948 H         1 UNK         0.3000 
    155 H155       -2.2207  -19.7262  -41.6792 H         1 UNK         0.0600 
    156 H156       -0.9299  -17.1615  -40.6342 H         1 UNK         0.0600 
    157 H157       -1.0227  -18.7001  -39.7921 H         1 UNK         0.0600 
    158 H158       -2.4907  -17.8048  -40.1405 H         1 UNK         0.0600 
    159 H159       -2.0161  -17.0290  -42.9480 H         1 UNK         0.3000 
    160 H160       -4.4529  -17.9618  -45.3877 H         1 UNK         0.0600 
    161 H161       -4.7311  -15.9118  -43.1261 H         1 UNK         0.0600 
    162 H162       -5.8803  -17.2010  -43.4685 H         1 UNK         0.0600 
    163 H163       -5.6299  -15.9189  -44.6432 H         1 UNK         0.0600 
    164 H164       -3.2515  -15.4721  -45.1245 H         1 UNK         0.3000 
    165 H165       -0.1391  -16.1057  -46.7272 H         1 UNK         0.0600 
    166 H166       -2.7122  -14.7143  -47.6298 H         1 UNK         0.0600 
    167 H167       -1.0919  -14.3905  -48.2458 H         1 UNK         0.0600 
    168 H168       -1.8373  -15.9574  -48.5083 H         1 UNK         0.0600 
    169 H169        0.1636  -14.5609  -45.2398 H         1 UNK         0.3000 
    170 H170       -0.7436  -11.9130  -44.2960 H         1 UNK         0.0600 
    171 H171       -2.9366  -11.9505  -43.1612 H         1 UNK         0.0600 
    172 H172       -2.4871  -13.3868  -42.2508 H         1 UNK         0.0600 
    173 H173       -1.6603  -11.8567  -41.9611 H         1 UNK         0.0600 
    174 H174        0.9599  -12.7752  -43.1977 H         1 UNK         0.3000 
    175 H175        1.6397  -14.5067  -40.9273 H         1 UNK         0.0600 
    176 H176        2.0037  -16.8175  -42.9013 H         1 UNK         0.0600 
    177 H177        3.0144  -16.5393  -41.4873 H         1 UNK         0.0600 
    178 H178        1.3152  -16.9180  -41.2863 H         1 UNK         0.0600 
    179 H179        2.7166  -14.3178  -43.7056 H         1 UNK         0.3000 
    180 H180        4.6334  -11.5202  -42.8064 H         1 UNK         0.0600 
    181 H181        5.8216  -14.2184  -43.6572 H         1 UNK         0.0600 
    182 H182        6.3462  -13.2670  -42.2731 H         1 UNK         0.0600 
    183 H183        6.5656  -12.6366  -43.8972 H         1 UNK         0.0600 
    184 H184        4.4590  -12.9248  -45.2653 H         1 UNK         0.3000 
    185 H185        1.2324  -12.0993  -46.2990 H         1 UNK         0.0600 
    186 H186        3.7613  -10.6500  -47.2502 H         1 UNK         0.0600 
    187 H187        2.2637  -10.8341  -48.1625 H         1 UNK         0.0600 
    188 H188        2.2865   -9.8615  -46.7000 H         1 UNK         0.0600 
    189 H189        3.3883  -13.0451  -47.8447 H         1 UNK         0.3000 
    190 H190       -1.6363  -22.4761  -44.7981 H         1 UNK         0.3000 
    191 H191       -3.5397  -24.3034  -43.3771 H         1 UNK         0.0600 
    192 H192       -2.7293  -23.1574  -41.3252 H         1 UNK         0.0600 
    193 H193       -3.4562  -22.0092  -42.4382 H         1 UNK         0.0600 
    194 H194       -1.7022  -22.1047  -42.2912 H         1 UNK         0.0600 
    195 H195       -0.0812  -23.3822  -43.7651 H         1 UNK         0.3000 
    196 H196        0.9290  -25.4148  -42.0768 H         1 UNK         0.0600 
    197 H197        2.3394  -23.7383  -44.2190 H         1 UNK         0.0600 
    198 H198        2.0939  -23.2736  -42.5373 H         1 UNK         0.0600 
    199 H199        3.1347  -24.6341  -42.9303 H         1 UNK         0.0600 
    200 H200        0.5503  -25.3333  -45.6398 H         1 UNK         0.3000 
    201 H201        1.5851  -28.1396  -45.8409 H         1 UNK         0.0600 
    202 H202        1.5303  -25.9078  -47.9445 H         1 UNK         0.0600 
    203 H203        2.1916  -27.5228  -48.1519 H         1 UNK         0.0600 
    204 H204        2.9540  -26.4057  -47.0324 H         1 UNK         0.0600 
    205 H205       -1.2227  -26.3644  -45.7567 H         1 UNK         0.3000 
    206 H206       -3.3375  -26.5543  -46.3755 H         1 UNK         0.0600 
    207 H207       -3.1601  -28.8696  -45.4465 H         1 UNK         0.0600 
    208 H208       -4.3388  -28.7648  -46.7432 H         1 UNK         0.0600 
    209 H209       -2.7652  -29.4842  -47.0514 H         1 UNK         0.0600 
    210 H210       -1.5314  -25.4653  -48.2265 H         1 UNK         0.3000 
    211 H211       -1.8481  -26.3979  -50.8802 H         1 UNK         0.0600 
    212 H212       -0.8187  -24.2315  -51.4820 H         1 UNK         0.0600 
    213 H213       -0.0183  -24.8678  -50.0555 H         1 UNK         0.0600 
    214 H214       -1.1948  -23.5619  -49.9021 H         1 UNK         0.0600 
    215 H215       -2.9760  -25.5085  -52.6538 H         1 UNK         0.3000 
    216 H216       -5.6596  -24.3975  -52.0897 H         1 UNK         0.0600 
    217 H217       -4.4163  -25.5138  -54.6597 H         1 UNK         0.0600 
    218 H218       -6.1052  -25.0781  -54.4276 H         1 UNK         0.0600 
    219 H219       -5.4231  -26.4254  -53.5343 H         1 UNK         0.0600 
    220 H220       -2.8032  -22.9595  -52.2972 H         1 UNK         0.3000 
    221 H221       -2.7369  -21.2706  -54.4973 H         1 UNK         0.0600 
    222 H222       -0.8114  -21.7178  -53.0058 H         1 UNK         0.0600 
    223 H223       -1.5817  -20.8275  -51.6948 H         1 UNK         0.0600 
    224 H224       -1.0715  -19.9904  -53.1553 H         1 UNK         0.0600 
    225 H225       -4.7050  -20.8830  -51.6354 H         1 UNK         0.3000 
    226 H226       -5.3781  -18.1407  -51.7863 H         1 UNK         0.0600 
    227 H227       -7.0174  -20.5545  -50.8373 H         1 UNK         0.0600 
    228 H228       -5.9404  -19.5764  -49.8430 H         1 UNK         0.0600 
    229 H229       -7.4074  -18.8732  -50.4952 H         1 UNK         0.0600 
    230 H230       -6.3312  -20.7852  -53.9013 H         1 UNK         0.3000 
    231 H231       -8.5384  -19.2527  -55.1384 H         1 UNK         0.0600 
    232 H232       -7.3302  -21.9810  -55.8335 H         1 UNK         0.0600 
    233 H233       -8.7967  -21.2869  -56.5106 H         1 UNK         0.0600 
    234 H234       -8.7438  -21.7262  -54.8104 H         1 UNK         0.0600 
    235 H235       -5.0994  -19.4753  -55.4268 H         1 UNK         0.3000 
    236 H236       -5.0310  -18.9420  -58.3332 H         1 UNK         0.0600 
    237 H237       -3.4157  -20.5789  -57.3668 H         1 UNK         0.0600 
    238 H238       -2.6076  -19.1984  -58.0927 H         1 UNK         0.0600 
    239 H239       -2.7308  -19.3162  -56.3464 H         1 UNK         0.0600 
    240 H240       -3.9134  -17.4134  -55.2403 H         1 UNK         0.3000 
    241 H241       -3.5912  -14.8305  -56.6287 H         1 UNK         0.0600 
    242 H242       -6.1007  -12.8934  -54.9000 H         1 UNK         0.3800 
    243 H243       -4.4267  -12.7710  -55.3557 H         1 UNK         0.3800 
    244 H244       -1.7745  -15.4014  -55.1781 H         1 UNK         0.0800 
    245 H245       -2.5654  -13.9814  -54.5890 H         1 UNK         0.0800 
    246 H246       -0.5065  -16.1997  -53.2753 H         1 UNK         0.0800 
    247 H247       -1.4290  -17.6034  -53.7655 H         1 UNK         0.0800 
@<TRIPOS>BOND
     1    1    2 1    
     2    1  127 1    
     3    1  128 1    
     4    1  129 1    
     5    2    3 2    
     6    2    4 am   BACKBONE|DICT|INTERRES
     7    4    5 1    
     8    4  130 1    
     9    5    6 1    
    10    5   65 1    
    11    5  131 1    
    12    6    7 1    
    13    6  132 1    
    14    6  133 1    
    15    7    8 1    
    16    8    9 1    
    17    8  134 1    
    18    8  135 1    
    19    9   10 ar   
    20    9   14 ar   
    21   10   11 ar   
    22   10  136 1    
    23   11   12 ar   
    24   11  126 1    
    25   12   13 ar   
    26   12  137 1    
    27   13   14 ar   
    28   13   15 1    
    29   14  138 1    
    30   15   16 1    
    31   15  139 1    
    32   15  140 1    
    33   16   17 1    
    34   17   18 1    
    35   17  141 1    
    36   17  142 1    
    37   18   19 1    
    38   18   67 1    
    39   18  143 1    
    40   19   20 am   BACKBONE|DICT|INTERRES
    41   19  144 1    
    42   20   21 2    
    43   20   22 1    
    44   22   23 1    
    45   22   24 1    
    46   22  145 1    
    47   23  146 1    
    48   23  147 1    
    49   23  148 1    
    50   24   25 am   BACKBONE|DICT|INTERRES
    51   24  149 1    
    52   25   26 2    
    53   25   27 1    
    54   27   28 1    
    55   27   29 1    
    56   27  150 1    
    57   28  151 1    
    58   28  152 1    
    59   28  153 1    
    60   29   30 am   BACKBONE|DICT|INTERRES
    61   29  154 1    
    62   30   31 2    
    63   30   32 1    
    64   32   33 1    
    65   32   34 1    
    66   32  155 1    
    67   33  156 1    
    68   33  157 1    
    69   33  158 1    
    70   34   35 am   BACKBONE|DICT|INTERRES
    71   34  159 1    
    72   35   36 2    
    73   35   37 1    
    74   37   38 1    
    75   37   39 1    
    76   37  160 1    
    77   38  161 1    
    78   38  162 1    
    79   38  163 1    
    80   39   40 am   BACKBONE|DICT|INTERRES
    81   39  164 1    
    82   40   41 2    
    83   40   42 1    
    84   42   43 1    
    85   42   44 1    
    86   42  165 1    
    87   43  166 1    
    88   43  167 1    
    89   43  168 1    
    90   44   45 am   BACKBONE|DICT|INTERRES
    91   44  169 1    
    92   45   46 2    
    93   45   47 1    
    94   47   48 1    
    95   47   49 1    
    96   47  170 1    
    97   48  171 1    
    98   48  172 1    
    99   48  173 1    
   100   49   50 am   BACKBONE|DICT|INTERRES
   101   49  174 1    
   102   50   51 2    
   103   50   52 1    
   104   52   53 1    
   105   52   54 1    
   106   52  175 1    
   107   53  176 1    
   108   53  177 1    
   109   53  178 1    
   110   54   55 am   BACKBONE|DICT|INTERRES
   111   54  179 1    
   112   55   56 2    
   113   55   57 1    
   114   57   58 1    
   115   57   59 1    
   116   57  180 1    
   117   58  181 1    
   118   58  182 1    
   119   58  183 1    
   120   59   60 am   BACKBONE|DICT|INTERRES
   121   59  184 1    
   122   60   61 2    
   123   60   62 1    
   124   62   63 1    
   125   62   64 1    
   126   62  185 1    
   127   63  186 1    
   128   63  187 1    
   129   63  188 1    
   130   64   65 am   BACKBONE|DICT|INTERRES
   131   64  189 1    
   132   65   66 2    
   133   67   68 2    
   134   67   69 am   BACKBONE|DICT|INTERRES
   135   69   70 1    
   136   69  190 1    
   137   70   71 1    
   138   70   72 1    
   139   70  191 1    
   140   71  192 1    
   141   71  193 1    
   142   71  194 1    
   143   72   73 2    
   144   72   74 am   BACKBONE|DICT|INTERRES
   145   74   75 1    
   146   74  195 1    
   147   75   76 1    
   148   75   77 1    
   149   75  196 1    
   150   76  197 1    
   151   76  198 1    
   152   76  199 1    
   153   77   78 2    
   154   77   79 am   BACKBONE|DICT|INTERRES
   155   79   80 1    
   156   79  200 1    
   157   80   81 1    
   158   80   82 1    
   159   80  201 1    
   160   81  202 1    
   161   81  203 1    
   162   81  204 1    
   163   82   83 2    
   164   82   84 am   BACKBONE|DICT|INTERRES
   165   84   85 1    
   166   84  205 1    
   167   85   86 1    
   168   85   87 1    
   169   85  206 1    
   170   86  207 1    
   171   86  208 1    
   172   86  209 1    
   173   87   88 2    
   174   87   89 am   BACKBONE|DICT|INTERRES
   175   89   90 1    
   176   89  210 1    
   177   90   91 1    
   178   90   92 1    
   179   90  211 1    
   180   91  212 1    
   181   91  213 1    
   182   91  214 1    
   183   92   93 2    
   184   92   94 am   BACKBONE|DICT|INTERRES
   185   94   95 1    
   186   94  215 1    
   187   95   96 1    
   188   95   97 1    
   189   95  216 1    
   190   96  217 1    
   191   96  218 1    
   192   96  219 1    
   193   97   98 2    
   194   97   99 am   BACKBONE|DICT|INTERRES
   195   99  100 1    
   196   99  220 1    
   197  100  101 1    
   198  100  102 1    
   199  100  221 1    
   200  101  222 1    
   201  101  223 1    
   202  101  224 1    
   203  102  103 2    
   204  102  104 am   BACKBONE|DICT|INTERRES
   205  104  105 1    
   206  104  225 1    
   207  105  106 1    
   208  105  107 1    
   209  105  226 1    
   210  106  227 1    
   211  106  228 1    
   212  106  229 1    
   213  107  108 2    
   214  107  109 am   BACKBONE|DICT|INTERRES
   215  109  110 1    
   216  109  230 1    
   217  110  111 1    
   218  110  112 1    
   219  110  231 1    
   220  111  232 1    
   221  111  233 1    
   222  111  234 1    
   223  112  113 2    
   224  112  114 am   BACKBONE|DICT|INTERRES
   225  114  115 1    
   226  114  235 1    
   227  115  116 1    
   228  115  117 1    
   229  115  236 1    
   230  116  237 1    
   231  116  238 1    
   232  116  239 1    
   233  117  118 2    
   234  117  119 am   BACKBONE|DICT|INTERRES
   235  119  120 1    
   236  119  240 1    
   237  120  121 1    
   238  120  124 1    
   239  120  241 1    
   240  121  122 am   BACKBONE|DICT|INTERRES
   241  121  123 2    
   242  122  242 1    
   243  122  243 1    
   244  124  125 1    
   245  124  244 1    
   246  124  245 1    
   247  125  126 1    
   248  126  246 1    
   249  126  247 1    
@<TRIPOS>SUBSTRUCTURE
     1 UNK         1 GROUP             0       ****    0 ROOT    
