@<TRIPOS>MOLECULE
3R540
247   249    1
SMALL
USER_CHARGES


@<TRIPOS>ATOM
      1 CA         -1.2533  -12.4227  -41.5609 C.3       0 UNK        -0.1800 
      2 C          -0.2397  -12.1778  -42.6695 C.2       0 UNK         0.5000 
      3 O           0.5148  -11.2065  -42.6083 O.2       0 UNK        -0.5000 
      4 N          -0.2056  -13.0592  -43.6772 N.am      1 UNK        -0.5000 
      5 CA          0.6753  -12.9976  -44.8517 C.3       1 UNK         0.1400 
      6 C6          0.0649  -13.7408  -46.0702 C.3       23 UNK        -0.0398 
      7 S7         -1.5773  -13.0657  -46.5076 S.3       23 UNK        -0.2404 
      8 C8         -1.6276  -13.2557  -48.3157 C.3       23 UNK        -0.0205 
      9 C9         -1.9964  -14.6741  -48.7197 C.ar      23 UNK        -0.0193 
     10 C10        -3.3358  -15.0782  -48.7252 C.ar      23 UNK        -0.1150 
     11 C11        -3.6852  -16.3756  -49.1121 C.ar      23 UNK        -0.0193 
     12 C12        -2.6802  -17.2768  -49.4727 C.ar      23 UNK        -0.1150 
     13 C13        -1.3387  -16.8875  -49.4630 C.ar      23 UNK        -0.0193 
     14 C14        -1.0031  -15.5800  -49.0985 C.ar      23 UNK        -0.1150 
     15 C15        -0.2563  -17.8957  -49.8196 C.3       23 UNK        -0.0205 
     16 S16         0.9816  -18.1109  -48.4974 S.3       23 UNK        -0.2404 
     17 C17        -0.0342  -18.3293  -46.9966 C.3       23 UNK        -0.0398 
     18 CA         -0.2544  -19.8191  -46.6529 C.3       11 UNK         0.1400 
     19 N          -0.4293  -20.0306  -45.2166 N.am      11 UNK        -0.5000 
     20 C          -0.4702  -21.2320  -44.6238 C.2       10 UNK         0.5000 
     21 O          -0.3193  -22.2989  -45.2186 O.2       10 UNK        -0.5000 
     22 CA         -0.7890  -21.2387  -43.1199 C.3       10 UNK         0.1400 
     23 CB          0.4593  -20.8940  -42.2925 C.3       10 UNK        -0.1800 
     24 N          -1.8733  -20.3117  -42.7928 N.am      10 UNK        -0.5000 
     25 C          -3.1443  -20.4658  -43.1927 C.2       9 UNK         0.5000 
     26 O          -3.5451  -21.4282  -43.8460 O.2       9 UNK        -0.5000 
     27 CA         -4.1218  -19.3316  -42.8377 C.3       9 UNK         0.1400 
     28 CB         -4.6604  -19.5081  -41.4103 C.3       9 UNK        -0.1800 
     29 N          -3.5186  -18.0046  -42.9683 N.am      9 UNK        -0.5000 
     30 C          -3.1105  -17.4651  -44.1262 C.2       8 UNK         0.5000 
     31 O          -3.2016  -18.0254  -45.2164 O.2       8 UNK        -0.5000 
     32 CA         -2.4274  -16.0906  -44.0359 C.3       8 UNK         0.1400 
     33 CB         -3.4777  -14.9739  -43.9351 C.3       8 UNK        -0.1800 
     34 N          -1.4940  -16.0017  -42.9065 N.am      8 UNK        -0.5000 
     35 C          -0.3975  -16.7624  -42.7793 C.2       7 UNK         0.5000 
     36 O          -0.0404  -17.5929  -43.6205 O.2       7 UNK        -0.5000 
     37 CA          0.3987  -16.6089  -41.4761 C.3       7 UNK         0.1400 
     38 CB         -0.3978  -17.1804  -40.2859 C.3       7 UNK        -0.1800 
     39 N           1.6574  -17.3269  -41.6316 N.am      7 UNK        -0.5000 
     40 C           2.7261  -17.2660  -40.8302 C.2       6 UNK         0.5000 
     41 O           2.7934  -16.5506  -39.8303 O.2       6 UNK        -0.5000 
     42 CA          3.9250  -18.1622  -41.2065 C.3       6 UNK         0.1400 
     43 CB          3.8700  -19.4818  -40.4210 C.3       6 UNK        -0.1800 
     44 N           4.0037  -18.4664  -42.6394 N.am      6 UNK        -0.5000 
     45 C           4.3008  -17.5641  -43.5837 C.2       5 UNK         0.5000 
     46 O           4.5816  -16.3944  -43.3278 O.2       5 UNK        -0.5000 
     47 CA          4.2804  -18.0397  -45.0457 C.3       5 UNK         0.1400 
     48 CB          3.1379  -19.0368  -45.3288 C.3       5 UNK        -0.1800 
     49 N           4.1761  -16.8737  -45.9226 N.am      5 UNK        -0.5000 
     50 C           4.6070  -16.8141  -47.1880 C.2       4 UNK         0.5000 
     51 O           5.1095  -17.7692  -47.7820 O.2       4 UNK        -0.5000 
     52 CA          4.4902  -15.4605  -47.9101 C.3       4 UNK         0.1400 
     53 CB          3.0815  -15.2648  -48.4900 C.3       4 UNK        -0.1800 
     54 N           4.7916  -14.3381  -47.0221 N.am      4 UNK        -0.5000 
     55 C           5.9402  -13.6466  -47.0319 C.2       3 UNK         0.5000 
     56 O           6.9018  -13.9318  -47.7471 O.2       3 UNK        -0.5000 
     57 CA          6.0337  -12.4059  -46.1205 C.3       3 UNK         0.1400 
     58 CB          5.8238  -11.1244  -46.9426 C.3       3 UNK        -0.1800 
     59 N           5.0586  -12.4259  -45.0318 N.am      3 UNK        -0.5000 
     60 C           5.2150  -13.1016  -43.8868 C.2       2 UNK         0.5000 
     61 O           6.2539  -13.6890  -43.5832 O.2       2 UNK        -0.5000 
     62 CA          4.0180  -13.1141  -42.9133 C.3       2 UNK         0.1400 
     63 CB          4.2575  -12.1276  -41.7601 C.3       2 UNK        -0.1800 
     64 N           2.7201  -12.8080  -43.5237 N.am      2 UNK        -0.5000 
     65 C           2.0963  -13.4905  -44.4936 C.2       1 UNK         0.5000 
     66 O           2.5921  -14.4550  -45.0787 O.2       1 UNK        -0.5000 
     67 C          -1.4241  -20.4144  -47.4603 C.2       11 UNK         0.5000 
     68 O          -1.1860  -21.1459  -48.4197 O.2       11 UNK        -0.5000 
     69 N          -2.6625  -20.1331  -47.0295 N.am      12 UNK        -0.5000 
     70 CA         -3.8927  -20.6588  -47.6192 C.3       12 UNK         0.1400 
     71 CB         -5.1091  -20.0353  -46.9194 C.3       12 UNK        -0.1800 
     72 C          -3.9723  -22.1938  -47.5787 C.2       12 UNK         0.5000 
     73 O          -4.3838  -22.7948  -48.5680 O.2       12 UNK        -0.5000 
     74 N          -3.5487  -22.7978  -46.4593 N.am      13 UNK        -0.5000 
     75 CA         -3.4580  -24.2474  -46.2872 C.3       13 UNK         0.1400 
     76 CB         -3.2018  -24.5769  -44.8090 C.3       13 UNK        -0.1800 
     77 C          -2.3833  -24.8899  -47.1832 C.2       13 UNK         0.5000 
     78 O          -2.6272  -25.9570  -47.7452 O.2       13 UNK        -0.5000 
     79 N          -1.2239  -24.2311  -47.3173 N.am      14 UNK        -0.5000 
     80 CA         -0.1204  -24.6718  -48.1732 C.3       14 UNK         0.1400 
     81 CB          1.1407  -23.8592  -47.8403 C.3       14 UNK        -0.1800 
     82 C          -0.4537  -24.5723  -49.6739 C.2       14 UNK         0.5000 
     83 O          -0.1160  -25.4780  -50.4363 O.2       14 UNK        -0.5000 
     84 N          -1.1184  -23.4786  -50.0647 N.am      15 UNK        -0.5000 
     85 CA         -1.5173  -23.1770  -51.4393 C.3       15 UNK         0.1400 
     86 CB         -1.5422  -21.6503  -51.6081 C.3       15 UNK        -0.1800 
     87 C          -2.8627  -23.8088  -51.8522 C.2       15 UNK         0.5000 
     88 O          -3.2896  -23.6152  -52.9944 O.2       15 UNK        -0.5000 
     89 N          -3.5281  -24.5311  -50.9391 N.am      16 UNK        -0.5000 
     90 CA         -4.7876  -25.2406  -51.1742 C.3       16 UNK         0.1400 
     91 CB         -5.2546  -25.9177  -49.8776 C.3       16 UNK        -0.1800 
     92 C          -4.6438  -26.2804  -52.2987 C.2       16 UNK         0.5000 
     93 O          -3.6764  -27.0449  -52.2980 O.2       16 UNK        -0.5000 
     94 N          -5.5787  -26.2508  -53.2582 N.am      17 UNK        -0.5000 
     95 CA         -5.6401  -27.0294  -54.5063 C.3       17 UNK         0.1400 
     96 CB         -5.7208  -28.5420  -54.2254 C.3       17 UNK        -0.1800 
     97 C          -4.5226  -26.7119  -55.5255 C.2       17 UNK         0.5000 
     98 O          -4.7997  -26.6811  -56.7244 O.2       17 UNK        -0.5000 
     99 N          -3.2987  -26.4601  -55.0444 N.am      18 UNK        -0.5000 
    100 CA        -2.1150  -26.1100  -55.8298 C.3       18 UNK         0.1400 
    101 CB        -0.8843  -26.1084  -54.9095 C.3       18 UNK        -0.1800 
    102 C         -2.2534  -24.7592  -56.5540 C.2       18 UNK         0.5000 
    103 O         -1.9071  -24.6636  -57.7322 O.2       18 UNK        -0.5000 
    104 N         -2.7759  -23.7535  -55.8422 N.am      19 UNK        -0.5000 
    105 CA        -3.0600  -22.4139  -56.3606 C.3       19 UNK         0.1400 
    106 CB        -1.9230  -21.4603  -55.9540 C.3       19 UNK        -0.1800 
    107 C         -4.4409  -21.9116  -55.8959 C.2       19 UNK         0.5000 
    108 O         -4.7185  -20.7167  -56.0042 O.2       19 UNK        -0.5000 
    109 N         -5.2797  -22.8323  -55.3916 N.am      20 UNK        -0.5000 
    110 CA        -6.6278  -22.6128  -54.8542 C.3       20 UNK         0.1400 
    111 CB        -7.6035  -22.2098  -55.9792 C.3       20 UNK        -0.1800 
    112 C         -6.6432  -21.6353  -53.6596 C.2       20 UNK         0.5000 
    113 O         -7.5185  -20.7688  -53.5801 O.2       20 UNK        -0.5000 
    114 N         -5.6551  -21.7932  -52.7634 N.am      21 UNK        -0.5000 
    115 CA        -5.3518  -20.9398  -51.6105 C.3       21 UNK         0.1400 
    116 CB        -6.4912  -20.9601  -50.5678 C.3       21 UNK        -0.1800 
    117 C         -4.9594  -19.5262  -52.0765 C.2       21 UNK         0.5000 
    118 O         -3.7873  -19.2822  -52.3593 O.2       21 UNK        -0.5000 
    119 N         -5.9534  -18.6456  -52.1933 N.am      22 UNK        -0.5000 
    120 CA        -5.8600  -17.3383  -52.8498 C.3       22 UNK         0.1400 
    121 C         -7.1884  -16.9335  -53.5531 C.2       22 UNK         0.5000 
    122 N         -8.0793  -17.8701  -53.8668 N.am      22 UNK        -0.7600 
    123 O         -7.4143  -15.7617  -53.8430 O.2       22 UNK        -0.5000 
    124 C124       -5.2315  -16.2440  -51.9457 C.3       23 UNK        -0.0398 
    125 S125       -6.1332  -15.9135  -50.3874 S.3       23 UNK        -0.2404 
    126 C126       -5.1441  -16.8122  -49.1447 C.3       23 UNK        -0.0205 
    127 H127       -0.7429  -12.7285  -40.6477 H         1 UNK         0.0600 
    128 H128       -1.8074  -11.5075  -41.3521 H         1 UNK         0.0600 
    129 H129       -1.9725  -13.1955  -41.8284 H         1 UNK         0.0600 
    130 H130       -0.8484  -13.8359  -43.6753 H         1 UNK         0.3000 
    131 H131        0.7807  -11.9496  -45.1414 H         1 UNK         0.0600 
    132 H132        0.7248  -13.6437  -46.9334 H         1 UNK         0.0800 
    133 H133       -0.0280  -14.8102  -45.8754 H         1 UNK         0.0800 
    134 H134       -0.6731  -12.9593  -48.7532 H         1 UNK         0.0800 
    135 H135       -2.3701  -12.5648  -48.7176 H         1 UNK         0.0800 
    136 H136       -4.1089  -14.3792  -48.4383 H         1 UNK         0.1150 
    137 H137       -2.9422  -18.2843  -49.7634 H         1 UNK         0.1150 
    138 H138        0.0343  -15.2768  -49.0909 H         1 UNK         0.1150 
    139 H139       -0.6931  -18.8685  -50.0508 H         1 UNK         0.0800 
    140 H140        0.2506  -17.5654  -50.7269 H         1 UNK         0.0800 
    141 H141       -0.9760  -17.7828  -47.0514 H         1 UNK         0.0800 
    142 H142        0.5170  -17.8340  -46.1989 H         1 UNK         0.0800 
    143 H143        0.6461  -20.3723  -46.9296 H         1 UNK         0.0600 
    144 H144       -0.5334  -19.1981  -44.6451 H         1 UNK         0.3000 
    145 H145       -1.1107  -22.2465  -42.8488 H         1 UNK         0.0600 
    146 H146        0.2452  -20.9162  -41.2238 H         1 UNK         0.0600 
    147 H147        1.2582  -21.6128  -42.4787 H         1 UNK         0.0600 
    148 H148        0.8477  -19.9065  -42.5366 H         1 UNK         0.0600 
    149 H149       -1.6245  -19.4764  -42.2870 H         1 UNK         0.3000 
    150 H150       -4.9644  -19.3891  -43.5298 H         1 UNK         0.0600 
    151 H151       -5.1304  -20.4850  -41.2891 H         1 UNK         0.0600 
    152 H152       -5.4141  -18.7556  -41.1776 H         1 UNK         0.0600 
    153 H153       -3.8670  -19.4308  -40.6658 H         1 UNK         0.0600 
    154 H154       -3.4040  -17.4724  -42.1191 H         1 UNK         0.3000 
    155 H155       -1.8641  -15.9480  -44.9597 H         1 UNK         0.0600 
    156 H156       -4.0637  -15.0483  -43.0184 H         1 UNK         0.0600 
    157 H157       -3.0180  -13.9868  -43.9591 H         1 UNK         0.0600 
    158 H158       -4.1735  -15.0206  -44.7742 H         1 UNK         0.0600 
    159 H159       -1.7670  -15.4069  -42.1379 H         1 UNK         0.3000 
    160 H160        0.6081  -15.5490  -41.3180 H         1 UNK         0.0600 
    161 H161       -0.6002  -18.2447  -40.4125 H         1 UNK         0.0600 
    162 H162       -1.3560  -16.6742  -40.1656 H         1 UNK         0.0600 
    163 H163        0.1430  -17.0567  -39.3478 H         1 UNK         0.0600 
    164 H164        1.6973  -17.8917  -42.4702 H         1 UNK         0.3000 
    165 H165        4.8352  -17.6314  -40.9190 H         1 UNK         0.0600 
    166 H166        4.7489  -20.0959  -40.6180 H         1 UNK         0.0600 
    167 H167        3.8398  -19.2957  -39.3466 H         1 UNK         0.0600 
    168 H168        2.9859  -20.0669  -40.6769 H         1 UNK         0.0600 
    169 H169        3.8021  -19.4167  -42.9130 H         1 UNK         0.3000 
    170 H170        5.2362  -18.5329  -45.2326 H         1 UNK         0.0600 
    171 H171        3.3227  -19.9988  -44.8505 H         1 UNK         0.0600 
    172 H172        2.1864  -18.6634  -44.9536 H         1 UNK         0.0600 
    173 H173        3.0279  -19.2315  -46.3954 H         1 UNK         0.0600 
    174 H174        3.8007  -16.0393  -45.4799 H         1 UNK         0.3000 
    175 H175        5.1889  -15.4715  -48.7492 H         1 UNK         0.0600 
    176 H176        2.3111  -15.3665  -47.7250 H         1 UNK         0.0600 
    177 H177        2.9729  -14.2820  -48.9487 H         1 UNK         0.0600 
    178 H178        2.8796  -16.0047  -49.2646 H         1 UNK         0.0600 
    179 H179        4.0718  -14.0941  -46.3512 H         1 UNK         0.3000 
    180 H180        7.0415  -12.3778  -45.7005 H         1 UNK         0.0600 
    181 H181        4.8312  -11.0928  -47.3938 H         1 UNK         0.0600 
    182 H182        6.5537  -11.0541  -47.7503 H         1 UNK         0.0600 
    183 H183        5.9406  -10.2349  -46.3233 H         1 UNK         0.0600 
    184 H184        4.1865  -11.9432  -45.1880 H         1 UNK         0.3000 
    185 H185        3.9470  -14.1134  -42.4846 H         1 UNK         0.0600 
    186 H186        5.1969  -12.3425  -41.2488 H         1 UNK         0.0600 
    187 H187        4.3043  -11.0978  -42.1163 H         1 UNK         0.0600 
    188 H188        3.4631  -12.1901  -41.0160 H         1 UNK         0.0600 
    189 H189        2.1983  -12.0450  -43.1015 H         1 UNK         0.3000 
    190 H190       -2.7802  -19.4837  -46.2544 H         1 UNK         0.3000 
    191 H191       -3.9080  -20.3555  -48.6677 H         1 UNK         0.0600 
    192 H192       -5.1221  -20.2704  -45.8553 H         1 UNK         0.0600 
    193 H193       -6.0424  -20.4045  -47.3452 H         1 UNK         0.0600 
    194 H194       -5.1098  -18.9504  -47.0196 H         1 UNK         0.0600 
    195 H195       -3.2822  -22.2274  -45.6630 H         1 UNK         0.3000 
    196 H196       -4.4217  -24.6785  -46.5667 H         1 UNK         0.0600 
    197 H197       -3.1378  -25.6546  -44.6536 H         1 UNK         0.0600 
    198 H198       -4.0088  -24.2048  -44.1777 H         1 UNK         0.0600 
    199 H199       -2.2698  -24.1367  -44.4535 H         1 UNK         0.0600 
    200 H200       -1.0765  -23.3800  -46.7845 H         1 UNK         0.3000 
    201 H201        0.0849  -25.7203  -47.9472 H         1 UNK         0.0600 
    202 H202        1.4268  -23.9869  -46.7962 H         1 UNK         0.0600 
    203 H203        0.9929  -22.7934  -48.0170 H         1 UNK         0.0600 
    204 H204        1.9852  -24.1801  -48.4513 H         1 UNK         0.0600 
    205 H205       -1.3059  -22.7533  -49.3753 H         1 UNK         0.3000 
    206 H206       -0.7653  -23.5733  -52.1244 H         1 UNK         0.0600 
    207 H207       -1.8829  -21.3599  -52.6007 H         1 UNK         0.0600 
    208 H208       -2.2040  -21.1752  -50.8849 H         1 UNK         0.0600 
    209 H209       -0.5479  -21.2254  -51.4700 H         1 UNK         0.0600 
    210 H210       -3.1242  -24.6252  -50.0182 H         1 UNK         0.3000 
    211 H211       -5.5341  -24.4977  -51.4614 H         1 UNK         0.0600 
    212 H212       -4.5400  -26.6680  -49.5377 H         1 UNK         0.0600 
    213 H213       -6.2118  -26.4199  -50.0228 H         1 UNK         0.0600 
    214 H214       -5.3885  -25.1937  -49.0747 H         1 UNK         0.0600 
    215 H215       -6.3329  -25.5888  -53.1469 H         1 UNK         0.3000 
    216 H216       -6.5785  -26.7399  -54.9822 H         1 UNK         0.0600 
    217 H217       -5.8911  -29.0986  -55.1478 H         1 UNK         0.0600 
    218 H218       -6.5437  -28.7742  -53.5495 H         1 UNK         0.0600 
    219 H219       -4.8024  -28.9265  -53.7813 H         1 UNK         0.0600 
    220 H220       -3.1730  -26.5536  -54.0401 H         1 UNK         0.3000 
    221 H221       -1.9755  -26.8833  -56.5881 H         1 UNK         0.0600 
    222 H222       -0.9850  -25.3824  -54.1017 H         1 UNK         0.0600 
    223 H223       -0.7289  -27.0887  -54.4585 H         1 UNK         0.0600 
    224 H224        0.0203  -25.8593  -55.4657 H         1 UNK         0.0600 
    225 H225       -2.9819  -23.8960  -54.8560 H         1 UNK         0.3000 
    226 H226       -3.1084  -22.4406  -57.4509 H         1 UNK         0.0600 
    227 H227       -0.9595  -21.8187  -56.3164 H         1 UNK         0.0600 
    228 H228       -2.0745  -20.4637  -56.3700 H         1 UNK         0.0600 
    229 H229       -1.8572  -21.3587  -54.8720 H         1 UNK         0.0600 
    230 H230       -4.9468  -23.7844  -55.3692 H         1 UNK         0.3000 
    231 H231       -6.9628  -23.5735  -54.4616 H         1 UNK         0.0600 
    232 H232       -8.6292  -22.1691  -55.6109 H         1 UNK         0.0600 
    233 H233       -7.5818  -22.9303  -56.7967 H         1 UNK         0.0600 
    234 H234       -7.3657  -21.2283  -56.3905 H         1 UNK         0.0600 
    235 H235       -4.9434  -22.4858  -52.9732 H         1 UNK         0.3000 
    236 H236       -4.4747  -21.3675  -51.1270 H         1 UNK         0.0600 
    237 H237       -6.6162  -21.9608  -50.1539 H         1 UNK         0.0600 
    238 H238       -6.2660  -20.2931  -49.7362 H         1 UNK         0.0600 
    239 H239       -7.4524  -20.6524  -50.9782 H         1 UNK         0.0600 
    240 H240       -6.8910  -18.9414  -51.9616 H         1 UNK         0.3000 
    241 H241       -5.1753  -17.4613  -53.6913 H         1 UNK         0.0600 
    242 H242       -8.9331  -17.5960  -54.3266 H         1 UNK         0.3800 
    243 H243       -7.8837  -18.8586  -53.7342 H         1 UNK         0.3800 
    244 H244       -4.2005  -16.5172  -51.7260 H         1 UNK         0.0800 
    245 H245       -5.1570  -15.3034  -52.4932 H         1 UNK         0.0800 
    246 H246       -5.5836  -16.6501  -48.1597 H         1 UNK         0.0800 
    247 H247       -5.2236  -17.8817  -49.3424 H         1 UNK         0.0800 
@<TRIPOS>BOND
     1    1    2 1    
     2    1  127 1    
     3    1  128 1    
     4    1  129 1    
     5    2    3 2    
     6    2    4 am   BACKBONE|DICT|INTERRES
     7    4    5 1    
     8    4  130 1    
     9    5    6 1    
    10    5   65 1    
    11    5  131 1    
    12    6    7 1    
    13    6  132 1    
    14    6  133 1    
    15    7    8 1    
    16    8    9 1    
    17    8  134 1    
    18    8  135 1    
    19    9   10 ar   
    20    9   14 ar   
    21   10   11 ar   
    22   10  136 1    
    23   11   12 ar   
    24   11  126 1    
    25   12   13 ar   
    26   12  137 1    
    27   13   14 ar   
    28   13   15 1    
    29   14  138 1    
    30   15   16 1    
    31   15  139 1    
    32   15  140 1    
    33   16   17 1    
    34   17   18 1    
    35   17  141 1    
    36   17  142 1    
    37   18   19 1    
    38   18   67 1    
    39   18  143 1    
    40   19   20 am   BACKBONE|DICT|INTERRES
    41   19  144 1    
    42   20   21 2    
    43   20   22 1    
    44   22   23 1    
    45   22   24 1    
    46   22  145 1    
    47   23  146 1    
    48   23  147 1    
    49   23  148 1    
    50   24   25 am   BACKBONE|DICT|INTERRES
    51   24  149 1    
    52   25   26 2    
    53   25   27 1    
    54   27   28 1    
    55   27   29 1    
    56   27  150 1    
    57   28  151 1    
    58   28  152 1    
    59   28  153 1    
    60   29   30 am   BACKBONE|DICT|INTERRES
    61   29  154 1    
    62   30   31 2    
    63   30   32 1    
    64   32   33 1    
    65   32   34 1    
    66   32  155 1    
    67   33  156 1    
    68   33  157 1    
    69   33  158 1    
    70   34   35 am   BACKBONE|DICT|INTERRES
    71   34  159 1    
    72   35   36 2    
    73   35   37 1    
    74   37   38 1    
    75   37   39 1    
    76   37  160 1    
    77   38  161 1    
    78   38  162 1    
    79   38  163 1    
    80   39   40 am   BACKBONE|DICT|INTERRES
    81   39  164 1    
    82   40   41 2    
    83   40   42 1    
    84   42   43 1    
    85   42   44 1    
    86   42  165 1    
    87   43  166 1    
    88   43  167 1    
    89   43  168 1    
    90   44   45 am   BACKBONE|DICT|INTERRES
    91   44  169 1    
    92   45   46 2    
    93   45   47 1    
    94   47   48 1    
    95   47   49 1    
    96   47  170 1    
    97   48  171 1    
    98   48  172 1    
    99   48  173 1    
   100   49   50 am   BACKBONE|DICT|INTERRES
   101   49  174 1    
   102   50   51 2    
   103   50   52 1    
   104   52   53 1    
   105   52   54 1    
   106   52  175 1    
   107   53  176 1    
   108   53  177 1    
   109   53  178 1    
   110   54   55 am   BACKBONE|DICT|INTERRES
   111   54  179 1    
   112   55   56 2    
   113   55   57 1    
   114   57   58 1    
   115   57   59 1    
   116   57  180 1    
   117   58  181 1    
   118   58  182 1    
   119   58  183 1    
   120   59   60 am   BACKBONE|DICT|INTERRES
   121   59  184 1    
   122   60   61 2    
   123   60   62 1    
   124   62   63 1    
   125   62   64 1    
   126   62  185 1    
   127   63  186 1    
   128   63  187 1    
   129   63  188 1    
   130   64   65 am   BACKBONE|DICT|INTERRES
   131   64  189 1    
   132   65   66 2    
   133   67   68 2    
   134   67   69 am   BACKBONE|DICT|INTERRES
   135   69   70 1    
   136   69  190 1    
   137   70   71 1    
   138   70   72 1    
   139   70  191 1    
   140   71  192 1    
   141   71  193 1    
   142   71  194 1    
   143   72   73 2    
   144   72   74 am   BACKBONE|DICT|INTERRES
   145   74   75 1    
   146   74  195 1    
   147   75   76 1    
   148   75   77 1    
   149   75  196 1    
   150   76  197 1    
   151   76  198 1    
   152   76  199 1    
   153   77   78 2    
   154   77   79 am   BACKBONE|DICT|INTERRES
   155   79   80 1    
   156   79  200 1    
   157   80   81 1    
   158   80   82 1    
   159   80  201 1    
   160   81  202 1    
   161   81  203 1    
   162   81  204 1    
   163   82   83 2    
   164   82   84 am   BACKBONE|DICT|INTERRES
   165   84   85 1    
   166   84  205 1    
   167   85   86 1    
   168   85   87 1    
   169   85  206 1    
   170   86  207 1    
   171   86  208 1    
   172   86  209 1    
   173   87   88 2    
   174   87   89 am   BACKBONE|DICT|INTERRES
   175   89   90 1    
   176   89  210 1    
   177   90   91 1    
   178   90   92 1    
   179   90  211 1    
   180   91  212 1    
   181   91  213 1    
   182   91  214 1    
   183   92   93 2    
   184   92   94 am   BACKBONE|DICT|INTERRES
   185   94   95 1    
   186   94  215 1    
   187   95   96 1    
   188   95   97 1    
   189   95  216 1    
   190   96  217 1    
   191   96  218 1    
   192   96  219 1    
   193   97   98 2    
   194   97   99 am   BACKBONE|DICT|INTERRES
   195   99  100 1    
   196   99  220 1    
   197  100  101 1    
   198  100  102 1    
   199  100  221 1    
   200  101  222 1    
   201  101  223 1    
   202  101  224 1    
   203  102  103 2    
   204  102  104 am   BACKBONE|DICT|INTERRES
   205  104  105 1    
   206  104  225 1    
   207  105  106 1    
   208  105  107 1    
   209  105  226 1    
   210  106  227 1    
   211  106  228 1    
   212  106  229 1    
   213  107  108 2    
   214  107  109 am   BACKBONE|DICT|INTERRES
   215  109  110 1    
   216  109  230 1    
   217  110  111 1    
   218  110  112 1    
   219  110  231 1    
   220  111  232 1    
   221  111  233 1    
   222  111  234 1    
   223  112  113 2    
   224  112  114 am   BACKBONE|DICT|INTERRES
   225  114  115 1    
   226  114  235 1    
   227  115  116 1    
   228  115  117 1    
   229  115  236 1    
   230  116  237 1    
   231  116  238 1    
   232  116  239 1    
   233  117  118 2    
   234  117  119 am   BACKBONE|DICT|INTERRES
   235  119  120 1    
   236  119  240 1    
   237  120  121 1    
   238  120  124 1    
   239  120  241 1    
   240  121  122 am   BACKBONE|DICT|INTERRES
   241  121  123 2    
   242  122  242 1    
   243  122  243 1    
   244  124  125 1    
   245  124  244 1    
   246  124  245 1    
   247  125  126 1    
   248  126  246 1    
   249  126  247 1    
@<TRIPOS>SUBSTRUCTURE
     1 UNK         1 GROUP             0       ****    0 ROOT    
