@<TRIPOS>MOLECULE
3R540
247   249    1
SMALL
USER_CHARGES


@<TRIPOS>ATOM
      1 CA         -0.5711  -13.3629  -54.3533 C.3       0 UNK        -0.1800 
      2 C          -0.0732  -13.7074  -52.9565 C.2       0 UNK         0.5000 
      3 O           0.7863  -13.0056  -52.4226 O.2       0 UNK        -0.5000 
      4 N          -0.6016  -14.7881  -52.3696 N.am      1 UNK        -0.5000 
      5 CA         -0.2871  -15.2529  -51.0149 C.3       1 UNK         0.1400 
      6 C6         -0.8208  -16.6811  -50.7489 C.3       23 UNK        -0.0398 
      7 S7         -0.1614  -17.9027  -51.9343 S.3       23 UNK        -0.2404 
      8 C8          1.3783  -18.3932  -51.0867 C.3       23 UNK        -0.0205 
      9 C9          2.2067  -19.4844  -51.7680 C.ar      23 UNK        -0.0193 
     10 C10         2.0376  -19.8559  -53.1113 C.ar      23 UNK        -0.1150 
     11 C11         2.8683  -20.8190  -53.6961 C.ar      23 UNK        -0.0193 
     12 C12         3.8716  -21.4136  -52.9276 C.ar      23 UNK        -0.1150 
     13 C13         4.0490  -21.0618  -51.5895 C.ar      23 UNK        -0.0193 
     14 C14         3.2147  -20.0993  -51.0174 C.ar      23 UNK        -0.1150 
     15 C15         5.1673  -21.7029  -50.7847 C.3       23 UNK        -0.0205 
     16 S16         4.5989  -23.1968  -49.9172 S.3       23 UNK        -0.2404 
     17 C17         4.1509  -22.5314  -48.2798 C.3       23 UNK        -0.0398 
     18 CA          2.8017  -23.0870  -47.7582 C.3       11 UNK         0.1400 
     19 N           2.8427  -23.3138  -46.3111 N.am      11 UNK        -0.5000 
     20 C           1.9349  -24.0178  -45.6217 C.2       10 UNK         0.5000 
     21 O           0.9780  -24.5865  -46.1440 O.2       10 UNK        -0.5000 
     22 CA          2.0983  -24.0553  -44.0892 C.3       10 UNK         0.1400 
     23 CB          2.8907  -25.3000  -43.6642 C.3       10 UNK        -0.1800 
     24 N           2.7445  -22.8593  -43.5396 N.am      10 UNK        -0.5000 
     25 C           2.2511  -21.6178  -43.6290 C.2       9 UNK         0.5000 
     26 O           1.1881  -21.3446  -44.1904 O.2       9 UNK        -0.5000 
     27 CA          3.1147  -20.4944  -43.0388 C.3       9 UNK         0.1400 
     28 CB          3.3488  -19.3757  -44.0678 C.3       9 UNK        -0.1800 
     29 N           2.4795  -19.9303  -41.8541 N.am      9 UNK        -0.5000 
     30 C           2.6054  -20.4230  -40.6159 C.2       8 UNK         0.5000 
     31 O           3.2510  -21.4383  -40.3512 O.2       8 UNK        -0.5000 
     32 CA          1.9147  -19.6520  -39.4799 C.3       8 UNK         0.1400 
     33 CB          2.7011  -18.3768  -39.1349 C.3       8 UNK        -0.1800 
     34 N           0.5421  -19.2874  -39.8286 N.am      8 UNK        -0.5000 
     35 C          -0.5444  -19.6221  -39.1174 C.2       7 UNK         0.5000 
     36 O          -0.5037  -20.2830  -38.0784 O.2       7 UNK        -0.5000 
     37 CA         -1.9161  -19.1361  -39.6343 C.3       7 UNK         0.1400 
     38 CB         -2.3891  -17.9168  -38.8284 C.3       7 UNK        -0.1800 
     39 N          -1.9181  -18.7947  -41.0572 N.am      7 UNK        -0.5000 
     40 C          -1.7739  -19.6868  -42.0480 C.2       6 UNK         0.5000 
     41 O          -1.7387  -20.9019  -41.8575 O.2       6 UNK        -0.5000 
     42 CA         -1.6204  -19.1468  -43.4853 C.3       6 UNK         0.1400 
     43 CB         -2.9371  -19.3140  -44.2534 C.3       6 UNK        -0.1800 
     44 N          -1.2019  -17.7449  -43.5858 N.am      6 UNK        -0.5000 
     45 C          -0.1066  -17.1972  -43.0354 C.2       5 UNK         0.5000 
     46 O           0.7428  -17.8415  -42.4211 O.2       5 UNK        -0.5000 
     47 CA          0.0278  -15.6625  -43.1087 C.3       5 UNK         0.1400 
     48 CB          0.9321  -15.2706  -44.2847 C.3       5 UNK        -0.1800 
     49 N          -1.2533  -14.9572  -43.2244 N.am      5 UNK        -0.5000 
     50 C          -2.2934  -15.0887  -42.3850 C.2       4 UNK         0.5000 
     51 O          -2.2424  -15.7429  -41.3427 O.2       4 UNK        -0.5000 
     52 CA         -3.6340  -14.4447  -42.7924 C.3       4 UNK         0.1400 
     53 CB         -3.9093  -13.1969  -41.9397 C.3       4 UNK        -0.1800 
     54 N          -3.7481  -14.0814  -44.2074 N.am      4 UNK        -0.5000 
     55 C          -3.6221  -14.8946  -45.2667 C.2       3 UNK         0.5000 
     56 O          -3.3624  -16.0963  -45.1879 O.2       3 UNK        -0.5000 
     57 CA         -3.7796  -14.2402  -46.6551 C.3       3 UNK         0.1400 
     58 CB         -4.6529  -12.9681  -46.6393 C.3       3 UNK        -0.1800 
     59 N          -2.5098  -13.9512  -47.3297 N.am      3 UNK        -0.5000 
     60 C          -1.3991  -13.3886  -46.8318 C.2       2 UNK         0.5000 
     61 O          -1.2421  -13.1211  -45.6391 O.2       2 UNK        -0.5000 
     62 CA         -0.2807  -13.0452  -47.8449 C.3       2 UNK         0.1400 
     63 CB          1.0671  -12.7432  -47.1643 C.3       2 UNK        -0.1800 
     64 N          -0.0553  -14.0553  -48.8854 N.am      2 UNK        -0.5000 
     65 C          -0.8258  -14.2646  -49.9603 C.2       1 UNK         0.5000 
     66 O          -1.9235  -13.7274  -50.1261 O.2       1 UNK        -0.5000 
     67 C           1.6085  -22.1935  -48.1640 C.2       11 UNK         0.5000 
     68 O           0.9474  -22.4742  -49.1627 O.2       11 UNK        -0.5000 
     69 N           1.3151  -21.1670  -47.3498 N.am      12 UNK        -0.5000 
     70 CA          0.1486  -20.2998  -47.5211 C.3       12 UNK         0.1400 
     71 CB          0.3449  -18.9883  -46.7470 C.3       12 UNK        -0.1800 
     72 C          -1.1628  -21.0001  -47.1267 C.2       12 UNK         0.5000 
     73 O          -2.1929  -20.7373  -47.7463 O.2       12 UNK        -0.5000 
     74 N          -1.1040  -21.9079  -46.1413 N.am      13 UNK        -0.5000 
     75 CA         -2.2173  -22.7851  -45.7728 C.3       13 UNK         0.1400 
     76 CB         -1.9017  -23.5196  -44.4623 C.3       13 UNK        -0.1800 
     77 C          -2.5665  -23.7760  -46.8987 C.2       13 UNK         0.5000 
     78 O          -3.7430  -23.9249  -47.2280 O.2       13 UNK        -0.5000 
     79 N          -1.5402  -24.3826  -47.5144 N.am      14 UNK        -0.5000 
     80 CA         -1.6600  -25.2413  -48.6970 C.3       14 UNK         0.1400 
     81 CB         -0.2979  -25.8780  -49.0114 C.3       14 UNK        -0.1800 
     82 C          -2.2103  -24.4917  -49.9261 C.2       14 UNK         0.5000 
     83 O          -2.9976  -25.0591  -50.6831 O.2       14 UNK        -0.5000 
     84 N          -1.8362  -23.2123  -50.0619 N.am      15 UNK        -0.5000 
     85 CA         -2.3540  -22.2796  -51.0631 C.3       15 UNK         0.1400 
     86 CB         -1.3581  -21.1245  -51.2303 C.3       15 UNK        -0.1800 
     87 C          -3.7691  -21.7416  -50.7574 C.2       15 UNK         0.5000 
     88 O          -4.2744  -20.9295  -51.5341 O.2       15 UNK        -0.5000 
     89 N          -4.3825  -22.1928  -49.6534 N.am      16 UNK        -0.5000 
     90 CA         -5.7285  -21.8605  -49.1846 C.3       16 UNK         0.1400 
     91 CB         -6.7999  -22.4019  -50.1544 C.3       16 UNK        -0.1800 
     92 C          -5.8997  -20.3720  -48.8197 C.2       16 UNK         0.5000 
     93 O          -6.9604  -19.7899  -49.0582 O.2       16 UNK        -0.5000 
     94 N          -4.8539  -19.7939  -48.2102 N.am      17 UNK        -0.5000 
     95 CA         -4.7973  -18.4454  -47.6480 C.3       17 UNK         0.1400 
     96 CB         -5.6999  -18.3639  -46.3938 C.3       17 UNK        -0.1800 
     97 C          -5.0929  -17.3680  -48.7095 C.2       17 UNK         0.5000 
     98 O          -4.3478  -17.2566  -49.6840 O.2       17 UNK        -0.5000 
     99 N          -6.1738  -16.6024  -48.5092 N.am      18 UNK        -0.5000 
    100 CA        -6.6199  -15.5048  -49.3677 C.3       18 UNK         0.1400 
    101 CB        -7.7336  -14.7351  -48.6413 C.3       18 UNK        -0.1800 
    102 C         -7.0806  -15.9371  -50.7745 C.2       18 UNK         0.5000 
    103 O         -7.1843  -15.0797  -51.6525 O.2       18 UNK        -0.5000 
    104 N         -7.3327  -17.2396  -50.9829 N.am      19 UNK        -0.5000 
    105 CA        -7.6062  -17.8161  -52.3025 C.3       19 UNK         0.1400 
    106 CB        -8.1117  -19.2550  -52.1396 C.3       19 UNK        -0.1800 
    107 C         -6.3742  -17.7821  -53.2297 C.2       19 UNK         0.5000 
    108 O         -6.5444  -17.6824  -54.4452 O.2       19 UNK        -0.5000 
    109 N         -5.1731  -17.8315  -52.6306 N.am      20 UNK        -0.5000 
    110 CA        -3.8558  -17.6837  -53.2497 C.3       20 UNK         0.1400 
    111 CB        -3.6107  -16.2063  -53.6171 C.3       20 UNK        -0.1800 
    112 C         -3.6063  -18.6495  -54.4253 C.2       20 UNK         0.5000 
    113 O         -3.2964  -18.2119  -55.5360 O.2       20 UNK        -0.5000 
    114 N         -3.7549  -19.9512  -54.1510 N.am      21 UNK        -0.5000 
    115 CA        -3.3737  -21.0410  -55.0468 C.3       21 UNK         0.1400 
    116 CB        -4.2729  -22.2610  -54.7609 C.3       21 UNK        -0.1800 
    117 C         -1.8593  -21.3167  -54.9091 C.2       21 UNK         0.5000 
    118 O         -1.0558  -20.4026  -55.1000 O.2       21 UNK        -0.5000 
    119 N         -1.4773  -22.5532  -54.5748 N.am      22 UNK        -0.5000 
    120 CA        -0.0901  -22.9528  -54.3218 C.3       22 UNK         0.1400 
    121 C         -0.0526  -24.2361  -53.4553 C.2       22 UNK         0.5000 
    122 N          0.8146  -24.2988  -52.4545 N.am      22 UNK        -0.7600 
    123 O         -0.7960  -25.1837  -53.6985 O.2       22 UNK        -0.5000 
    124 C124        0.7057  -23.1049  -55.6448 C.3       23 UNK        -0.0398 
    125 S125        2.5096  -22.9766  -55.4297 S.3       23 UNK        -0.2404 
    126 C126        2.7307  -21.1828  -55.1702 C.3       23 UNK        -0.0205 
    127 H127       -1.0518  -12.3847  -54.3487 H         1 UNK         0.0600 
    128 H128       -1.2913  -14.0936  -54.7212 H         1 UNK         0.0600 
    129 H129        0.2648  -13.3299  -55.0521 H         1 UNK         0.0600 
    130 H130       -1.3046  -15.3218  -52.8568 H         1 UNK         0.3000 
    131 H131        0.8012  -15.2773  -50.9262 H         1 UNK         0.0600 
    132 H132       -0.5799  -17.0060  -49.7350 H         1 UNK         0.0800 
    133 H133       -1.9098  -16.6975  -50.8150 H         1 UNK         0.0800 
    134 H134        1.1267  -18.7203  -50.0789 H         1 UNK         0.0800 
    135 H135        2.0090  -17.5103  -50.9774 H         1 UNK         0.0800 
    136 H136        1.2757  -19.3864  -53.7166 H         1 UNK         0.1150 
    137 H137        4.5242  -22.1486  -53.3780 H         1 UNK         0.1150 
    138 H138        3.3613  -19.8146  -49.9851 H         1 UNK         0.1150 
    139 H139        5.9835  -21.9835  -51.4524 H         1 UNK         0.0800 
    140 H140        5.5953  -20.9865  -50.0821 H         1 UNK         0.0800 
    141 H141        4.1623  -21.4402  -48.2831 H         1 UNK         0.0800 
    142 H142        4.9634  -22.8243  -47.6132 H         1 UNK         0.0800 
    143 H143        2.6325  -24.0663  -48.2122 H         1 UNK         0.0600 
    144 H144        3.6025  -22.8881  -45.8016 H         1 UNK         0.3000 
    145 H145        1.1001  -24.1211  -43.6528 H         1 UNK         0.0600 
    146 H146        2.9404  -25.3844  -42.5784 H         1 UNK         0.0600 
    147 H147        2.4185  -26.2097  -44.0379 H         1 UNK         0.0600 
    148 H148        3.9116  -25.2785  -44.0475 H         1 UNK         0.0600 
    149 H149        3.6133  -23.0046  -43.0450 H         1 UNK         0.3000 
    150 H150        4.0922  -20.8996  -42.7680 H         1 UNK         0.0600 
    151 H151        3.8009  -19.7677  -44.9796 H         1 UNK         0.0600 
    152 H152        4.0220  -18.6153  -43.6718 H         1 UNK         0.0600 
    153 H153        2.4200  -18.8791  -44.3473 H         1 UNK         0.0600 
    154 H154        1.8904  -19.1157  -42.0162 H         1 UNK         0.3000 
    155 H155        1.9289  -20.3011  -38.6020 H         1 UNK         0.0600 
    156 H156        2.7124  -17.6717  -39.9672 H         1 UNK         0.0600 
    157 H157        3.7370  -18.6105  -38.8859 H         1 UNK         0.0600 
    158 H158        2.2662  -17.8693  -38.2738 H         1 UNK         0.0600 
    159 H159        0.4198  -18.7622  -40.6879 H         1 UNK         0.3000 
    160 H160       -2.6319  -19.9459  -39.4784 H         1 UNK         0.0600 
    161 H161       -1.7039  -17.0750  -38.9364 H         1 UNK         0.0600 
    162 H162       -2.4558  -18.1517  -37.7653 H         1 UNK         0.0600 
    163 H163       -3.3770  -17.5880  -39.1515 H         1 UNK         0.0600 
    164 H164       -1.9583  -17.8064  -41.2833 H         1 UNK         0.3000 
    165 H165       -0.8606  -19.7594  -43.9683 H         1 UNK         0.0600 
    166 H166       -2.8011  -19.0960  -45.3117 H         1 UNK         0.0600 
    167 H167       -3.3158  -20.3328  -44.1751 H         1 UNK         0.0600 
    168 H168       -3.7100  -18.6476  -43.8688 H         1 UNK         0.0600 
    169 H169       -1.8489  -17.1273  -44.0643 H         1 UNK         0.3000 
    170 H170        0.5019  -15.3325  -42.1825 H         1 UNK         0.0600 
    171 H171        1.9019  -15.7657  -44.2170 H         1 UNK         0.0600 
    172 H172        0.4871  -15.5474  -45.2413 H         1 UNK         0.0600 
    173 H173        1.1160  -14.1962  -44.2954 H         1 UNK         0.0600 
    174 H174       -1.3752  -14.3778  -44.0497 H         1 UNK         0.3000 
    175 H175       -4.4134  -15.1803  -42.5847 H         1 UNK         0.0600 
    176 H176       -3.1771  -12.4115  -42.1313 H         1 UNK         0.0600 
    177 H177       -4.9005  -12.7905  -42.1417 H         1 UNK         0.0600 
    178 H178       -3.8680  -13.4320  -40.8752 H         1 UNK         0.0600 
    179 H179       -3.9086  -13.1025  -44.3941 H         1 UNK         0.3000 
    180 H180       -4.2910  -14.9750  -47.2735 H         1 UNK         0.0600 
    181 H181       -4.1563  -12.1343  -46.1417 H         1 UNK         0.0600 
    182 H182       -5.6030  -13.1448  -46.1331 H         1 UNK         0.0600 
    183 H183       -4.8880  -12.6490  -47.6549 H         1 UNK         0.0600 
    184 H184       -2.5124  -14.0946  -48.3352 H         1 UNK         0.3000 
    185 H185       -0.6019  -12.1257  -48.3388 H         1 UNK         0.0600 
    186 H186        1.4769  -13.6265  -46.6749 H         1 UNK         0.0600 
    187 H187        1.8025  -12.3928  -47.8888 H         1 UNK         0.0600 
    188 H188        0.9676  -11.9618  -46.4096 H         1 UNK         0.0600 
    189 H189        0.8128  -14.5651  -48.8082 H         1 UNK         0.3000 
    190 H190        1.8529  -21.0382  -46.5052 H         1 UNK         0.3000 
    191 H191        0.0654  -20.0466  -48.5775 H         1 UNK         0.0600 
    192 H192       -0.5313  -18.3441  -46.8347 H         1 UNK         0.0600 
    193 H193        1.1990  -18.4300  -47.1305 H         1 UNK         0.0600 
    194 H194        0.5151  -19.1676  -45.6875 H         1 UNK         0.0600 
    195 H195       -0.2350  -22.0211  -45.6330 H         1 UNK         0.3000 
    196 H196       -3.0940  -22.1574  -45.6045 H         1 UNK         0.0600 
    197 H197       -2.7846  -24.0407  -44.0908 H         1 UNK         0.0600 
    198 H198       -1.5811  -22.8260  -43.6859 H         1 UNK         0.0600 
    199 H199       -1.1176  -24.2642  -44.5899 H         1 UNK         0.0600 
    200 H200       -0.6037  -24.2591  -47.1383 H         1 UNK         0.3000 
    201 H201       -2.3623  -26.0417  -48.4554 H         1 UNK         0.0600 
    202 H202        0.0662  -26.4658  -48.1687 H         1 UNK         0.0600 
    203 H203        0.4554  -25.1252  -49.2434 H         1 UNK         0.0600 
    204 H204       -0.3692  -26.5473  -49.8695 H         1 UNK         0.0600 
    205 H205       -1.1266  -22.8498  -49.4358 H         1 UNK         0.3000 
    206 H206       -2.4173  -22.8132  -52.0109 H         1 UNK         0.0600 
    207 H207       -0.3475  -21.4860  -51.4196 H         1 UNK         0.0600 
    208 H208       -1.6361  -20.4898  -52.0709 H         1 UNK         0.0600 
    209 H209       -1.3297  -20.4898  -50.3462 H         1 UNK         0.0600 
    210 H210       -3.8728  -22.8331  -49.0567 H         1 UNK         0.3000 
    211 H211       -5.8556  -22.3972  -48.2438 H         1 UNK         0.0600 
    212 H212       -6.6991  -21.9835  -51.1544 H         1 UNK         0.0600 
    213 H213       -7.8068  -22.1767  -49.8012 H         1 UNK         0.0600 
    214 H214       -6.7265  -23.4856  -50.2450 H         1 UNK         0.0600 
    215 H215       -3.9903  -20.3254  -48.1226 H         1 UNK         0.3000 
    216 H216       -3.7665  -18.2821  -47.3316 H         1 UNK         0.0600 
    217 H217       -5.6038  -17.3992  -45.8954 H         1 UNK         0.0600 
    218 H218       -5.4229  -19.1268  -45.6672 H         1 UNK         0.0600 
    219 H219       -6.7539  -18.5145  -46.6293 H         1 UNK         0.0600 
    220 H220       -6.7510  -16.8013  -47.7049 H         1 UNK         0.3000 
    221 H221       -5.7732  -14.8287  -49.5052 H         1 UNK         0.0600 
    222 H222       -8.6044  -15.3661  -48.4593 H         1 UNK         0.0600 
    223 H223       -7.3885  -14.3517  -47.6810 H         1 UNK         0.0600 
    224 H224       -8.0661  -13.8786  -49.2295 H         1 UNK         0.0600 
    225 H225       -7.2321  -17.8914  -50.2132 H         1 UNK         0.3000 
    226 H226       -8.3974  -17.2284  -52.7727 H         1 UNK         0.0600 
    227 H227       -7.3333  -19.8976  -51.7321 H         1 UNK         0.0600 
    228 H228       -8.9741  -19.3039  -51.4747 H         1 UNK         0.0600 
    229 H229       -8.4123  -19.6746  -53.1004 H         1 UNK         0.0600 
    230 H230       -5.1553  -17.9137  -51.6209 H         1 UNK         0.3000 
    231 H231       -3.1333  -17.9575  -52.4809 H         1 UNK         0.0600 
    232 H232       -2.6183  -16.0729  -54.0470 H         1 UNK         0.0600 
    233 H233       -3.6789  -15.5659  -52.7371 H         1 UNK         0.0600 
    234 H234       -4.3345  -15.8476  -54.3496 H         1 UNK         0.0600 
    235 H235       -4.0164  -20.2201  -53.2039 H         1 UNK         0.3000 
    236 H236       -3.5501  -20.7376  -56.0806 H         1 UNK         0.0600 
    237 H237       -5.3246  -22.0036  -54.8886 H         1 UNK         0.0600 
    238 H238       -4.0610  -23.0793  -55.4502 H         1 UNK         0.0600 
    239 H239       -4.1514  -22.6362  -53.7449 H         1 UNK         0.0600 
    240 H240       -2.1649  -23.2808  -54.4331 H         1 UNK         0.3000 
    241 H241        0.3593  -22.1533  -53.7310 H         1 UNK         0.0600 
    242 H242        0.8563  -25.1368  -51.8987 H         1 UNK         0.3800 
    243 H243        1.4351  -23.5326  -52.2427 H         1 UNK         0.3800 
    244 H244        0.4752  -24.0562  -56.1274 H         1 UNK         0.0800 
    245 H245        0.4130  -22.3403  -56.3650 H         1 UNK         0.0800 
    246 H246        3.6384  -20.8680  -55.6865 H         1 UNK         0.0800 
    247 H247        1.9109  -20.6317  -55.6340 H         1 UNK         0.0800 
@<TRIPOS>BOND
     1    1    2 1    
     2    1  127 1    
     3    1  128 1    
     4    1  129 1    
     5    2    3 2    
     6    2    4 am   BACKBONE|DICT|INTERRES
     7    4    5 1    
     8    4  130 1    
     9    5    6 1    
    10    5   65 1    
    11    5  131 1    
    12    6    7 1    
    13    6  132 1    
    14    6  133 1    
    15    7    8 1    
    16    8    9 1    
    17    8  134 1    
    18    8  135 1    
    19    9   10 ar   
    20    9   14 ar   
    21   10   11 ar   
    22   10  136 1    
    23   11   12 ar   
    24   11  126 1    
    25   12   13 ar   
    26   12  137 1    
    27   13   14 ar   
    28   13   15 1    
    29   14  138 1    
    30   15   16 1    
    31   15  139 1    
    32   15  140 1    
    33   16   17 1    
    34   17   18 1    
    35   17  141 1    
    36   17  142 1    
    37   18   19 1    
    38   18   67 1    
    39   18  143 1    
    40   19   20 am   BACKBONE|DICT|INTERRES
    41   19  144 1    
    42   20   21 2    
    43   20   22 1    
    44   22   23 1    
    45   22   24 1    
    46   22  145 1    
    47   23  146 1    
    48   23  147 1    
    49   23  148 1    
    50   24   25 am   BACKBONE|DICT|INTERRES
    51   24  149 1    
    52   25   26 2    
    53   25   27 1    
    54   27   28 1    
    55   27   29 1    
    56   27  150 1    
    57   28  151 1    
    58   28  152 1    
    59   28  153 1    
    60   29   30 am   BACKBONE|DICT|INTERRES
    61   29  154 1    
    62   30   31 2    
    63   30   32 1    
    64   32   33 1    
    65   32   34 1    
    66   32  155 1    
    67   33  156 1    
    68   33  157 1    
    69   33  158 1    
    70   34   35 am   BACKBONE|DICT|INTERRES
    71   34  159 1    
    72   35   36 2    
    73   35   37 1    
    74   37   38 1    
    75   37   39 1    
    76   37  160 1    
    77   38  161 1    
    78   38  162 1    
    79   38  163 1    
    80   39   40 am   BACKBONE|DICT|INTERRES
    81   39  164 1    
    82   40   41 2    
    83   40   42 1    
    84   42   43 1    
    85   42   44 1    
    86   42  165 1    
    87   43  166 1    
    88   43  167 1    
    89   43  168 1    
    90   44   45 am   BACKBONE|DICT|INTERRES
    91   44  169 1    
    92   45   46 2    
    93   45   47 1    
    94   47   48 1    
    95   47   49 1    
    96   47  170 1    
    97   48  171 1    
    98   48  172 1    
    99   48  173 1    
   100   49   50 am   BACKBONE|DICT|INTERRES
   101   49  174 1    
   102   50   51 2    
   103   50   52 1    
   104   52   53 1    
   105   52   54 1    
   106   52  175 1    
   107   53  176 1    
   108   53  177 1    
   109   53  178 1    
   110   54   55 am   BACKBONE|DICT|INTERRES
   111   54  179 1    
   112   55   56 2    
   113   55   57 1    
   114   57   58 1    
   115   57   59 1    
   116   57  180 1    
   117   58  181 1    
   118   58  182 1    
   119   58  183 1    
   120   59   60 am   BACKBONE|DICT|INTERRES
   121   59  184 1    
   122   60   61 2    
   123   60   62 1    
   124   62   63 1    
   125   62   64 1    
   126   62  185 1    
   127   63  186 1    
   128   63  187 1    
   129   63  188 1    
   130   64   65 am   BACKBONE|DICT|INTERRES
   131   64  189 1    
   132   65   66 2    
   133   67   68 2    
   134   67   69 am   BACKBONE|DICT|INTERRES
   135   69   70 1    
   136   69  190 1    
   137   70   71 1    
   138   70   72 1    
   139   70  191 1    
   140   71  192 1    
   141   71  193 1    
   142   71  194 1    
   143   72   73 2    
   144   72   74 am   BACKBONE|DICT|INTERRES
   145   74   75 1    
   146   74  195 1    
   147   75   76 1    
   148   75   77 1    
   149   75  196 1    
   150   76  197 1    
   151   76  198 1    
   152   76  199 1    
   153   77   78 2    
   154   77   79 am   BACKBONE|DICT|INTERRES
   155   79   80 1    
   156   79  200 1    
   157   80   81 1    
   158   80   82 1    
   159   80  201 1    
   160   81  202 1    
   161   81  203 1    
   162   81  204 1    
   163   82   83 2    
   164   82   84 am   BACKBONE|DICT|INTERRES
   165   84   85 1    
   166   84  205 1    
   167   85   86 1    
   168   85   87 1    
   169   85  206 1    
   170   86  207 1    
   171   86  208 1    
   172   86  209 1    
   173   87   88 2    
   174   87   89 am   BACKBONE|DICT|INTERRES
   175   89   90 1    
   176   89  210 1    
   177   90   91 1    
   178   90   92 1    
   179   90  211 1    
   180   91  212 1    
   181   91  213 1    
   182   91  214 1    
   183   92   93 2    
   184   92   94 am   BACKBONE|DICT|INTERRES
   185   94   95 1    
   186   94  215 1    
   187   95   96 1    
   188   95   97 1    
   189   95  216 1    
   190   96  217 1    
   191   96  218 1    
   192   96  219 1    
   193   97   98 2    
   194   97   99 am   BACKBONE|DICT|INTERRES
   195   99  100 1    
   196   99  220 1    
   197  100  101 1    
   198  100  102 1    
   199  100  221 1    
   200  101  222 1    
   201  101  223 1    
   202  101  224 1    
   203  102  103 2    
   204  102  104 am   BACKBONE|DICT|INTERRES
   205  104  105 1    
   206  104  225 1    
   207  105  106 1    
   208  105  107 1    
   209  105  226 1    
   210  106  227 1    
   211  106  228 1    
   212  106  229 1    
   213  107  108 2    
   214  107  109 am   BACKBONE|DICT|INTERRES
   215  109  110 1    
   216  109  230 1    
   217  110  111 1    
   218  110  112 1    
   219  110  231 1    
   220  111  232 1    
   221  111  233 1    
   222  111  234 1    
   223  112  113 2    
   224  112  114 am   BACKBONE|DICT|INTERRES
   225  114  115 1    
   226  114  235 1    
   227  115  116 1    
   228  115  117 1    
   229  115  236 1    
   230  116  237 1    
   231  116  238 1    
   232  116  239 1    
   233  117  118 2    
   234  117  119 am   BACKBONE|DICT|INTERRES
   235  119  120 1    
   236  119  240 1    
   237  120  121 1    
   238  120  124 1    
   239  120  241 1    
   240  121  122 am   BACKBONE|DICT|INTERRES
   241  121  123 2    
   242  122  242 1    
   243  122  243 1    
   244  124  125 1    
   245  124  244 1    
   246  124  245 1    
   247  125  126 1    
   248  126  246 1    
   249  126  247 1    
@<TRIPOS>SUBSTRUCTURE
     1 UNK         1 GROUP             0       ****    0 ROOT    
