@<TRIPOS>MOLECULE
3R540
247   249    1
SMALL
USER_CHARGES


@<TRIPOS>ATOM
      1 CA         -3.7392  -14.1301  -49.9481 C.3       0 UNK        -0.1800 
      2 C          -3.8330  -14.7962  -48.5782 C.2       0 UNK         0.5000 
      3 O          -4.9373  -14.9950  -48.0793 O.2       0 UNK        -0.5000 
      4 N          -2.7230  -15.1540  -47.9219 N.am      1 UNK        -0.5000 
      5 CA         -1.3276  -14.9453  -48.3271 C.3       1 UNK         0.1400 
      6 C6         -0.6234  -16.2608  -48.7533 C.3       23 UNK        -0.0398 
      7 S7         -1.3657  -17.0252  -50.2370 S.3       23 UNK        -0.2404 
      8 C8         -0.1102  -16.6618  -51.5071 C.3       23 UNK        -0.0205 
      9 C9          0.8930  -17.7964  -51.6674 C.ar      23 UNK        -0.0193 
     10 C10         0.8941  -18.5705  -52.8311 C.ar      23 UNK        -0.1150 
     11 C11         1.8255  -19.5992  -53.0036 C.ar      23 UNK        -0.0193 
     12 C12         2.7479  -19.8682  -51.9869 C.ar      23 UNK        -0.1150 
     13 C13         2.7633  -19.0969  -50.8207 C.ar      23 UNK        -0.0193 
     14 C14         1.8439  -18.0549  -50.6763 C.ar      23 UNK        -0.1150 
     15 C15         3.8036  -19.3544  -49.7384 C.3       23 UNK        -0.0205 
     16 S16         3.3377  -20.7163  -48.6216 S.3       23 UNK        -0.2404 
     17 C17         1.9888  -19.9769  -47.6393 C.3       23 UNK        -0.0398 
     18 CA          0.8918  -21.0216  -47.2932 C.3       11 UNK         0.1400 
     19 N           0.9106  -21.4116  -45.8799 N.am      11 UNK        -0.5000 
     20 C           0.1868  -22.4122  -45.3563 C.2       10 UNK         0.5000 
     21 O          -0.5360  -23.1556  -46.0194 O.2       10 UNK        -0.5000 
     22 CA          0.2311  -22.5759  -43.8270 C.3       10 UNK         0.1400 
     23 CB          1.5056  -23.3126  -43.3891 C.3       10 UNK        -0.1800 
     24 N           0.1265  -21.2950  -43.1266 N.am      10 UNK        -0.5000 
     25 C          -0.9424  -20.4877  -43.1872 C.2       9 UNK         0.5000 
     26 O          -1.9772  -20.7711  -43.7900 O.2       9 UNK        -0.5000 
     27 CA         -0.8213  -19.1111  -42.5104 C.3       9 UNK         0.1400 
     28 CB         -1.0785  -19.2077  -41.0001 C.3       9 UNK        -0.1800 
     29 N           0.4727  -18.4731  -42.7476 N.am      9 UNK        -0.5000 
     30 C           0.9337  -18.1021  -43.9506 C.2       8 UNK         0.5000 
     31 O           0.2944  -18.2124  -44.9953 O.2       8 UNK        -0.5000 
     32 CA          2.3738  -17.5682  -43.9990 C.3       8 UNK         0.1400 
     33 CB          2.4290  -16.0919  -43.5807 C.3       8 UNK        -0.1800 
     34 N           3.2748  -18.3580  -43.1593 N.am      8 UNK        -0.5000 
     35 C           3.6225  -19.6282  -43.4117 C.2       7 UNK         0.5000 
     36 O           3.2387  -20.2606  -44.3953 O.2       7 UNK        -0.5000 
     37 CA          4.5140  -20.3189  -42.3644 C.3       7 UNK         0.1400 
     38 CB          5.9869  -19.9313  -42.5633 C.3       7 UNK        -0.1800 
     39 N           4.1087  -20.0074  -40.9930 N.am      7 UNK        -0.5000 
     40 C           2.9524  -20.4001  -40.4402 C.2       6 UNK         0.5000 
     41 O           2.1158  -21.0896  -41.0214 O.2       6 UNK        -0.5000 
     42 CA          2.6601  -19.8954  -39.0155 C.3       6 UNK         0.1400 
     43 CB          3.3109  -20.8151  -37.9716 C.3       6 UNK        -0.1800 
     44 N           3.0918  -18.5133  -38.7859 N.am      6 UNK        -0.5000 
     45 C           2.6282  -17.4530  -39.4589 C.2       5 UNK         0.5000 
     46 O           1.8231  -17.5291  -40.3922 O.2       5 UNK        -0.5000 
     47 CA          3.1879  -16.0788  -39.0542 C.3       5 UNK         0.1400 
     48 CB          4.4667  -15.7723  -39.8489 C.3       5 UNK        -0.1800 
     49 N           2.2004  -15.0381  -39.3282 N.am      5 UNK        -0.5000 
     50 C           1.0962  -14.8302  -38.5975 C.2       4 UNK         0.5000 
     51 O           0.8792  -15.3549  -37.5048 O.2       4 UNK        -0.5000 
     52 CA          0.0283  -13.9469  -39.2494 C.3       4 UNK         0.1400 
     53 CB          0.5084  -12.4861  -39.3726 C.3       4 UNK        -0.1800 
     54 N          -0.2862  -14.5279  -40.5531 N.am      4 UNK        -0.5000 
     55 C          -1.2803  -14.1605  -41.3652 C.2       3 UNK         0.5000 
     56 O          -2.0890  -13.2641  -41.1138 O.2       3 UNK        -0.5000 
     57 CA         -1.3964  -14.9435  -42.6867 C.3       3 UNK         0.1400 
     58 CB         -2.6534  -15.8267  -42.6862 C.3       3 UNK        -0.1800 
     59 N          -1.4385  -14.0603  -43.8511 N.am      3 UNK        -0.5000 
     60 C          -0.4787  -13.1948  -44.2078 C.2       2 UNK         0.5000 
     61 O           0.5830  -13.0550  -43.5975 O.2       2 UNK        -0.5000 
     62 CA         -0.7633  -12.3743  -45.4837 C.3       2 UNK         0.1400 
     63 CB          0.4323  -11.5036  -45.9253 C.3       2 UNK        -0.1800 
     64 N          -1.2388  -13.2100  -46.5953 N.am      2 UNK        -0.5000 
     65 C          -0.5847  -14.2284  -47.1792 C.2       1 UNK         0.5000 
     66 O           0.5364  -14.6068  -46.8379 O.2       1 UNK        -0.5000 
     67 C          -0.5077  -20.5495  -47.7352 C.2       11 UNK         0.5000 
     68 O          -0.9960  -21.0109  -48.7644 O.2       11 UNK        -0.5000 
     69 N          -1.1458  -19.6859  -46.9311 N.am      12 UNK        -0.5000 
     70 CA         -2.5053  -19.1907  -47.1535 C.3       12 UNK         0.1400 
     71 CB         -2.8626  -18.1442  -46.0868 C.3       12 UNK        -0.1800 
     72 C          -3.5537  -20.3140  -47.1849 C.2       12 UNK         0.5000 
     73 O          -4.4157  -20.3058  -48.0627 O.2       12 UNK        -0.5000 
     74 N          -3.4410  -21.2730  -46.2562 N.am      13 UNK        -0.5000 
     75 CA         -4.2813  -22.4669  -46.1949 C.3       13 UNK         0.1400 
     76 CB         -4.0182  -23.2184  -44.8810 C.3       13 UNK        -0.1800 
     77 C          -4.0816  -23.3901  -47.4102 C.2       13 UNK         0.5000 
     78 O          -5.0680  -23.8108  -48.0152 O.2       13 UNK        -0.5000 
     79 N          -2.8170  -23.6623  -47.7638 N.am      14 UNK        -0.5000 
     80 CA         -2.4313  -24.4983  -48.9030 C.3       14 UNK         0.1400 
     81 CB         -0.9157  -24.7481  -48.8700 C.3       14 UNK        -0.1800 
     82 C          -2.8536  -23.9039  -50.2583 C.2       14 UNK         0.5000 
     83 O          -3.3698  -24.6318  -51.1059 O.2       14 UNK        -0.5000 
     84 N          -2.6547  -22.5903  -50.4235 N.am      15 UNK        -0.5000 
     85 CA         -3.0184  -21.8349  -51.6215 C.3       15 UNK         0.1400 
     86 CB         -2.1508  -20.5681  -51.6934 C.3       15 UNK        -0.1800 
     87 C          -4.5149  -21.4698  -51.6880 C.2       15 UNK         0.5000 
     88 O          -4.9352  -20.8695  -52.6769 O.2       15 UNK        -0.5000 
     89 N          -5.2875  -21.7860  -50.6372 N.am      16 UNK        -0.5000 
     90 CA         -6.7144  -21.4886  -50.4608 C.3       16 UNK         0.1400 
     91 CB         -7.5633  -22.3368  -51.4298 C.3       16 UNK        -0.1800 
     92 C          -7.0217  -19.9787  -50.5625 C.2       16 UNK         0.5000 
     93 O          -7.9699  -19.5821  -51.2400 O.2       16 UNK        -0.5000 
     94 N          -6.1797  -19.1681  -49.9065 N.am      17 UNK        -0.5000 
     95 CA         -6.1378  -17.7036  -49.9552 C.3       17 UNK         0.1400 
     96 CB         -7.4090  -17.0894  -49.3322 C.3       17 UNK        -0.1800 
     97 C          -5.8262  -17.1697  -51.3713 C.2       17 UNK         0.5000 
     98 O          -6.4527  -16.2113  -51.8264 O.2       17 UNK        -0.5000 
     99 N          -4.8512  -17.8148  -52.0303 N.am      18 UNK        -0.5000 
    100 CA        -4.3572  -17.5512  -53.3863 C.3       18 UNK         0.1400 
    101 CB        -3.7090  -16.1532  -53.4756 C.3       18 UNK        -0.1800 
    102 C         -5.4286  -17.7978  -54.4697 C.2       18 UNK         0.5000 
    103 O         -5.6378  -16.9491  -55.3395 O.2       18 UNK        -0.5000 
    104 N         -6.0867  -18.9607  -54.3941 N.am      19 UNK        -0.5000 
    105 CA        -7.1401  -19.3921  -55.3160 C.3       19 UNK         0.1400 
    106 CB        -8.5031  -19.2495  -54.6193 C.3       19 UNK        -0.1800 
    107 C         -6.9444  -20.8308  -55.8325 C.2       19 UNK         0.5000 
    108 O         -7.6651  -21.2305  -56.7487 O.2       19 UNK        -0.5000 
    109 N         -6.0026  -21.5914  -55.2616 N.am      20 UNK        -0.5000 
    110 CA        -5.7190  -22.9821  -55.6098 C.3       20 UNK         0.1400 
    111 CB        -6.5703  -23.9057  -54.7178 C.3       20 UNK        -0.1800 
    112 C         -4.2195  -23.2767  -55.4429 C.2       20 UNK         0.5000 
    113 O         -3.4710  -22.4167  -54.9746 O.2       20 UNK        -0.5000 
    114 N         -3.8226  -24.5020  -55.8172 N.am      21 UNK        -0.5000 
    115 CA        -2.4731  -25.0688  -55.7086 C.3       21 UNK         0.1400 
    116 CB        -2.1198  -25.3206  -54.2248 C.3       21 UNK        -0.1800 
    117 C         -1.4118  -24.2446  -56.4728 C.2       21 UNK         0.5000 
    118 O         -1.7192  -23.7028  -57.5376 O.2       21 UNK        -0.5000 
    119 N         -0.1858  -24.1880  -55.9339 N.am      22 UNK        -0.5000 
    120 CA         0.9534  -23.3944  -56.4333 C.3       22 UNK         0.1400 
    121 C          1.5217  -23.8484  -57.8149 C.2       22 UNK         0.5000 
    122 N          1.2348  -25.0572  -58.2829 N.am      22 UNK        -0.7600 
    123 O          2.2642  -23.1136  -58.4611 O.2       22 UNK        -0.5000 
    124 C124        0.6885  -21.8633  -56.3628 C.3       23 UNK        -0.0398 
    125 S125        0.3471  -21.2845  -54.6619 S.3       23 UNK        -0.2404 
    126 C126        1.8799  -20.3658  -54.3172 C.3       23 UNK        -0.0205 
    127 H127       -3.3441  -13.1186  -49.8558 H         1 UNK         0.0600 
    128 H128       -4.7253  -14.0661  -50.4089 H         1 UNK         0.0600 
    129 H129       -3.1004  -14.6973  -50.6227 H         1 UNK         0.0600 
    130 H130       -2.8338  -15.5805  -47.0143 H         1 UNK         0.3000 
    131 H131       -1.2703  -14.2540  -49.1687 H         1 UNK         0.0600 
    132 H132        0.4293  -16.0642  -48.9499 H         1 UNK         0.0800 
    133 H133       -0.6407  -16.9887  -47.9420 H         1 UNK         0.0800 
    134 H134       -0.6241  -16.4848  -52.4524 H         1 UNK         0.0800 
    135 H135        0.4117  -15.7324  -51.2762 H         1 UNK         0.0800 
    136 H136        0.1800  -18.3643  -53.6161 H         1 UNK         0.1150 
    137 H137        3.4739  -20.6593  -52.1118 H         1 UNK         0.1150 
    138 H138        1.8767  -17.4443  -49.7882 H         1 UNK         0.1150 
    139 H139        4.7568  -19.6009  -50.2084 H         1 UNK         0.0800 
    140 H140        3.9828  -18.4512  -49.1529 H         1 UNK         0.0800 
    141 H141        1.5792  -19.1286  -48.1866 H         1 UNK         0.0800 
    142 H142        2.4206  -19.5390  -46.7402 H         1 UNK         0.0800 
    143 H143        1.0817  -21.9359  -47.8600 H         1 UNK         0.0600 
    144 H144        1.5177  -20.8763  -45.2678 H         1 UNK         0.3000 
    145 H145       -0.6270  -23.1848  -43.5350 H         1 UNK         0.0600 
    146 H146        1.4964  -23.5106  -42.3172 H         1 UNK         0.0600 
    147 H147        1.5947  -24.2739  -43.8965 H         1 UNK         0.0600 
    148 H148        2.4035  -22.7373  -43.6146 H         1 UNK         0.0600 
    149 H149        0.9202  -21.0226  -42.5542 H         1 UNK         0.3000 
    150 H150       -1.5894  -18.4713  -42.9451 H         1 UNK         0.0600 
    151 H151       -2.0591  -19.6401  -40.7982 H         1 UNK         0.0600 
    152 H152       -1.0526  -18.2236  -40.5316 H         1 UNK         0.0600 
    153 H153       -0.3350  -19.8323  -40.5049 H         1 UNK         0.0600 
    154 H154        1.0577  -18.3147  -41.9312 H         1 UNK         0.3000 
    155 H155        2.7216  -17.6390  -45.0317 H         1 UNK         0.0600 
    156 H156        2.0853  -15.9419  -42.5575 H         1 UNK         0.0600 
    157 H157        3.4424  -15.6977  -43.6553 H         1 UNK         0.0600 
    158 H158        1.7981  -15.4846  -44.2312 H         1 UNK         0.0600 
    159 H159        3.5905  -17.9309  -42.3019 H         1 UNK         0.3000 
    160 H160        4.4227  -21.3975  -42.5092 H         1 UNK         0.0600 
    161 H161        6.1504  -18.8649  -42.4028 H         1 UNK         0.0600 
    162 H162        6.3181  -20.1658  -43.5758 H         1 UNK         0.0600 
    163 H163        6.6339  -20.4773  -41.8765 H         1 UNK         0.0600 
    164 H164        4.7383  -19.4410  -40.4442 H         1 UNK         0.3000 
    165 H165        1.5783  -19.9312  -38.8712 H         1 UNK         0.0600 
    166 H166        3.0312  -20.5228  -36.9593 H         1 UNK         0.0600 
    167 H167        2.9915  -21.8491  -38.1094 H         1 UNK         0.0600 
    168 H168        4.3993  -20.7959  -38.0388 H         1 UNK         0.0600 
    169 H169        3.7600  -18.3690  -38.0425 H         1 UNK         0.3000 
    170 H170        3.4209  -16.0829  -37.9872 H         1 UNK         0.0600 
    171 H171        4.2833  -15.7623  -40.9241 H         1 UNK         0.0600 
    172 H172        4.8784  -14.8018  -39.5713 H         1 UNK         0.0600 
    173 H173        5.2384  -16.5181  -39.6540 H         1 UNK         0.0600 
    174 H174        2.2924  -14.5588  -40.2114 H         1 UNK         0.3000 
    175 H175       -0.8675  -13.9777  -38.6259 H         1 UNK         0.0600 
    176 H176       -0.2927  -11.8296  -39.7113 H         1 UNK         0.0600 
    177 H177        1.3360  -12.3886  -40.0760 H         1 UNK         0.0600 
    178 H178        0.8475  -12.1046  -38.4087 H         1 UNK         0.0600 
    179 H179        0.2927  -15.3160  -40.8127 H         1 UNK         0.3000 
    180 H180       -0.5243  -15.5906  -42.7960 H         1 UNK         0.0600 
    181 H181       -3.5639  -15.2302  -42.6161 H         1 UNK         0.0600 
    182 H182       -2.6481  -16.5138  -41.8393 H         1 UNK         0.0600 
    183 H183       -2.7161  -16.4255  -43.5944 H         1 UNK         0.0600 
    184 H184       -2.2847  -14.0852  -44.3991 H         1 UNK         0.3000 
    185 H185       -1.5821  -11.6984  -45.2326 H         1 UNK         0.0600 
    186 H186        0.7124  -10.7999  -45.1406 H         1 UNK         0.0600 
    187 H187        1.3129  -12.1053  -46.1523 H         1 UNK         0.0600 
    188 H188        0.1879  -10.9190  -46.8120 H         1 UNK         0.0600 
    189 H189       -2.1646  -12.9923  -46.9367 H         1 UNK         0.3000 
    190 H190       -0.6578  -19.3195  -46.1166 H         1 UNK         0.3000 
    191 H191       -2.5221  -18.7033  -48.1290 H         1 UNK         0.0600 
    192 H192       -2.1256  -17.3430  -46.0502 H         1 UNK         0.0600 
    193 H193       -3.8324  -17.6913  -46.2971 H         1 UNK         0.0600 
    194 H194       -2.9173  -18.5863  -45.0922 H         1 UNK         0.0600 
    195 H195       -2.7330  -21.1748  -45.5337 H         1 UNK         0.3000 
    196 H196       -5.3234  -22.1406  -46.1934 H         1 UNK         0.0600 
    197 H197       -4.6452  -24.1077  -44.8068 H         1 UNK         0.0600 
    198 H198       -4.2400  -22.5902  -44.0181 H         1 UNK         0.0600 
    199 H199       -2.9796  -23.5399  -44.7998 H         1 UNK         0.0600 
    200 H200       -2.0576  -23.2946  -47.1963 H         1 UNK         0.3000 
    201 H201       -2.9348  -25.4610  -48.7929 H         1 UNK         0.0600 
    202 H202       -0.6201  -25.2551  -47.9515 H         1 UNK         0.0600 
    203 H203       -0.3533  -23.8157  -48.9327 H         1 UNK         0.0600 
    204 H204       -0.6042  -25.3775  -49.7045 H         1 UNK         0.0600 
    205 H205       -2.1786  -22.0649  -49.6917 H         1 UNK         0.3000 
    206 H206       -2.7891  -22.4471  -52.4935 H         1 UNK         0.0600 
    207 H207       -1.0895  -20.8099  -51.6289 H         1 UNK         0.0600 
    208 H208       -2.2986  -20.0452  -52.6380 H         1 UNK         0.0600 
    209 H209       -2.3842  -19.8737  -50.8857 H         1 UNK         0.0600 
    210 H210       -4.8417  -22.2442  -49.8534 H         1 UNK         0.3000 
    211 H211       -6.9671  -21.7894  -49.4430 H         1 UNK         0.0600 
    212 H212       -7.4126  -22.0358  -52.4669 H         1 UNK         0.0600 
    213 H213       -8.6265  -22.2309  -51.2118 H         1 UNK         0.0600 
    214 H214       -7.3184  -23.3955  -51.3462 H         1 UNK         0.0600 
    215 H215       -5.4621  -19.6087  -49.3306 H         1 UNK         0.3000 
    216 H216       -5.2934  -17.4123  -49.3299 H         1 UNK         0.0600 
    217 H217       -7.3153  -16.0061  -49.2491 H         1 UNK         0.0600 
    218 H218       -7.5812  -17.4765  -48.3280 H         1 UNK         0.0600 
    219 H219       -8.2974  -17.2937  -49.9299 H         1 UNK         0.0600 
    220 H220       -4.4479  -18.6226  -51.5795 H         1 UNK         0.3000 
    221 H221       -3.5703  -18.2827  -53.5711 H         1 UNK         0.0600 
    222 H222       -4.4437  -15.3544  -53.3709 H         1 UNK         0.0600 
    223 H223       -2.9581  -16.0172  -52.6995 H         1 UNK         0.0600 
    224 H224       -3.2117  -16.0153  -54.4362 H         1 UNK         0.0600 
    225 H225       -5.8345  -19.6110  -53.6525 H         1 UNK         0.3000 
    226 H226       -7.1440  -18.7533  -56.2013 H         1 UNK         0.0600 
    227 H227       -8.6504  -18.2389  -54.2379 H         1 UNK         0.0600 
    228 H228       -9.3202  -19.4603  -55.3101 H         1 UNK         0.0600 
    229 H229       -8.5965  -19.9416  -53.7823 H         1 UNK         0.0600 
    230 H230       -5.4081  -21.2151  -54.5280 H         1 UNK         0.3000 
    231 H231       -5.9699  -23.1578  -56.6579 H         1 UNK         0.0600 
    232 H232       -6.2638  -23.8406  -53.6733 H         1 UNK         0.0600 
    233 H233       -6.4761  -24.9486  -55.0213 H         1 UNK         0.0600 
    234 H234       -7.6285  -23.6497  -54.7739 H         1 UNK         0.0600 
    235 H235       -4.5103  -25.1169  -56.2280 H         1 UNK         0.3000 
    236 H236       -2.5137  -26.0389  -56.2055 H         1 UNK         0.0600 
    237 H237       -1.2241  -25.9342  -54.1246 H         1 UNK         0.0600 
    238 H238       -2.9240  -25.8521  -53.7156 H         1 UNK         0.0600 
    239 H239       -1.9491  -24.3889  -53.6845 H         1 UNK         0.0600 
    240 H240       -0.0256  -24.6741  -55.0639 H         1 UNK         0.3000 
    241 H241        1.7689  -23.6021  -55.7398 H         1 UNK         0.0600 
    242 H242        0.6364  -25.6793  -57.7635 H         1 UNK         0.3800 
    243 H243        1.6139  -25.3495  -59.1701 H         1 UNK         0.3800 
    244 H244        1.5398  -21.3069  -56.7571 H         1 UNK         0.0800 
    245 H245       -0.1571  -21.5905  -56.9953 H         1 UNK         0.0800 
    246 H246        2.7190  -21.0632  -54.3249 H         1 UNK         0.0800 
    247 H247        2.0624  -19.6515  -55.1214 H         1 UNK         0.0800 
@<TRIPOS>BOND
     1    1    2 1    
     2    1  127 1    
     3    1  128 1    
     4    1  129 1    
     5    2    3 2    
     6    2    4 am   BACKBONE|DICT|INTERRES
     7    4    5 1    
     8    4  130 1    
     9    5    6 1    
    10    5   65 1    
    11    5  131 1    
    12    6    7 1    
    13    6  132 1    
    14    6  133 1    
    15    7    8 1    
    16    8    9 1    
    17    8  134 1    
    18    8  135 1    
    19    9   10 ar   
    20    9   14 ar   
    21   10   11 ar   
    22   10  136 1    
    23   11   12 ar   
    24   11  126 1    
    25   12   13 ar   
    26   12  137 1    
    27   13   14 ar   
    28   13   15 1    
    29   14  138 1    
    30   15   16 1    
    31   15  139 1    
    32   15  140 1    
    33   16   17 1    
    34   17   18 1    
    35   17  141 1    
    36   17  142 1    
    37   18   19 1    
    38   18   67 1    
    39   18  143 1    
    40   19   20 am   BACKBONE|DICT|INTERRES
    41   19  144 1    
    42   20   21 2    
    43   20   22 1    
    44   22   23 1    
    45   22   24 1    
    46   22  145 1    
    47   23  146 1    
    48   23  147 1    
    49   23  148 1    
    50   24   25 am   BACKBONE|DICT|INTERRES
    51   24  149 1    
    52   25   26 2    
    53   25   27 1    
    54   27   28 1    
    55   27   29 1    
    56   27  150 1    
    57   28  151 1    
    58   28  152 1    
    59   28  153 1    
    60   29   30 am   BACKBONE|DICT|INTERRES
    61   29  154 1    
    62   30   31 2    
    63   30   32 1    
    64   32   33 1    
    65   32   34 1    
    66   32  155 1    
    67   33  156 1    
    68   33  157 1    
    69   33  158 1    
    70   34   35 am   BACKBONE|DICT|INTERRES
    71   34  159 1    
    72   35   36 2    
    73   35   37 1    
    74   37   38 1    
    75   37   39 1    
    76   37  160 1    
    77   38  161 1    
    78   38  162 1    
    79   38  163 1    
    80   39   40 am   BACKBONE|DICT|INTERRES
    81   39  164 1    
    82   40   41 2    
    83   40   42 1    
    84   42   43 1    
    85   42   44 1    
    86   42  165 1    
    87   43  166 1    
    88   43  167 1    
    89   43  168 1    
    90   44   45 am   BACKBONE|DICT|INTERRES
    91   44  169 1    
    92   45   46 2    
    93   45   47 1    
    94   47   48 1    
    95   47   49 1    
    96   47  170 1    
    97   48  171 1    
    98   48  172 1    
    99   48  173 1    
   100   49   50 am   BACKBONE|DICT|INTERRES
   101   49  174 1    
   102   50   51 2    
   103   50   52 1    
   104   52   53 1    
   105   52   54 1    
   106   52  175 1    
   107   53  176 1    
   108   53  177 1    
   109   53  178 1    
   110   54   55 am   BACKBONE|DICT|INTERRES
   111   54  179 1    
   112   55   56 2    
   113   55   57 1    
   114   57   58 1    
   115   57   59 1    
   116   57  180 1    
   117   58  181 1    
   118   58  182 1    
   119   58  183 1    
   120   59   60 am   BACKBONE|DICT|INTERRES
   121   59  184 1    
   122   60   61 2    
   123   60   62 1    
   124   62   63 1    
   125   62   64 1    
   126   62  185 1    
   127   63  186 1    
   128   63  187 1    
   129   63  188 1    
   130   64   65 am   BACKBONE|DICT|INTERRES
   131   64  189 1    
   132   65   66 2    
   133   67   68 2    
   134   67   69 am   BACKBONE|DICT|INTERRES
   135   69   70 1    
   136   69  190 1    
   137   70   71 1    
   138   70   72 1    
   139   70  191 1    
   140   71  192 1    
   141   71  193 1    
   142   71  194 1    
   143   72   73 2    
   144   72   74 am   BACKBONE|DICT|INTERRES
   145   74   75 1    
   146   74  195 1    
   147   75   76 1    
   148   75   77 1    
   149   75  196 1    
   150   76  197 1    
   151   76  198 1    
   152   76  199 1    
   153   77   78 2    
   154   77   79 am   BACKBONE|DICT|INTERRES
   155   79   80 1    
   156   79  200 1    
   157   80   81 1    
   158   80   82 1    
   159   80  201 1    
   160   81  202 1    
   161   81  203 1    
   162   81  204 1    
   163   82   83 2    
   164   82   84 am   BACKBONE|DICT|INTERRES
   165   84   85 1    
   166   84  205 1    
   167   85   86 1    
   168   85   87 1    
   169   85  206 1    
   170   86  207 1    
   171   86  208 1    
   172   86  209 1    
   173   87   88 2    
   174   87   89 am   BACKBONE|DICT|INTERRES
   175   89   90 1    
   176   89  210 1    
   177   90   91 1    
   178   90   92 1    
   179   90  211 1    
   180   91  212 1    
   181   91  213 1    
   182   91  214 1    
   183   92   93 2    
   184   92   94 am   BACKBONE|DICT|INTERRES
   185   94   95 1    
   186   94  215 1    
   187   95   96 1    
   188   95   97 1    
   189   95  216 1    
   190   96  217 1    
   191   96  218 1    
   192   96  219 1    
   193   97   98 2    
   194   97   99 am   BACKBONE|DICT|INTERRES
   195   99  100 1    
   196   99  220 1    
   197  100  101 1    
   198  100  102 1    
   199  100  221 1    
   200  101  222 1    
   201  101  223 1    
   202  101  224 1    
   203  102  103 2    
   204  102  104 am   BACKBONE|DICT|INTERRES
   205  104  105 1    
   206  104  225 1    
   207  105  106 1    
   208  105  107 1    
   209  105  226 1    
   210  106  227 1    
   211  106  228 1    
   212  106  229 1    
   213  107  108 2    
   214  107  109 am   BACKBONE|DICT|INTERRES
   215  109  110 1    
   216  109  230 1    
   217  110  111 1    
   218  110  112 1    
   219  110  231 1    
   220  111  232 1    
   221  111  233 1    
   222  111  234 1    
   223  112  113 2    
   224  112  114 am   BACKBONE|DICT|INTERRES
   225  114  115 1    
   226  114  235 1    
   227  115  116 1    
   228  115  117 1    
   229  115  236 1    
   230  116  237 1    
   231  116  238 1    
   232  116  239 1    
   233  117  118 2    
   234  117  119 am   BACKBONE|DICT|INTERRES
   235  119  120 1    
   236  119  240 1    
   237  120  121 1    
   238  120  124 1    
   239  120  241 1    
   240  121  122 am   BACKBONE|DICT|INTERRES
   241  121  123 2    
   242  122  242 1    
   243  122  243 1    
   244  124  125 1    
   245  124  244 1    
   246  124  245 1    
   247  125  126 1    
   248  126  246 1    
   249  126  247 1    
@<TRIPOS>SUBSTRUCTURE
     1 UNK         1 GROUP             0       ****    0 ROOT    
