@<TRIPOS>MOLECULE
3R540
247   249    1
SMALL
USER_CHARGES


@<TRIPOS>ATOM
      1 CA          0.6805   -9.4696  -51.5448 C.3       0 UNK        -0.1800 
      2 C           0.6923  -10.2825  -50.2574 C.2       0 UNK         0.5000 
      3 O           0.8801   -9.7181  -49.1790 O.2       0 UNK        -0.5000 
      4 N           0.5013  -11.6030  -50.3679 N.am      1 UNK        -0.5000 
      5 CA          0.4080  -12.5330  -49.2375 C.3       1 UNK         0.1400 
      6 C6          0.7205  -13.9883  -49.6763 C.3       23 UNK        -0.0398 
      7 S7          1.4649  -14.9706  -48.3259 S.3       23 UNK        -0.2404 
      8 C8          2.8932  -15.7474  -49.1418 C.3       23 UNK        -0.0205 
      9 C9          2.4888  -17.0232  -49.8631 C.ar      23 UNK        -0.0193 
     10 C10         1.8742  -16.9620  -51.1185 C.ar      23 UNK        -0.1150 
     11 C11         1.4777  -18.1325  -51.7692 C.ar      23 UNK        -0.0193 
     12 C12         1.7227  -19.3689  -51.1711 C.ar      23 UNK        -0.1150 
     13 C13         2.3565  -19.4444  -49.9303 C.ar      23 UNK        -0.0193 
     14 C14         2.7281  -18.2689  -49.2725 C.ar      23 UNK        -0.1150 
     15 C15         2.6408  -20.8029  -49.3203 C.3       23 UNK        -0.0205 
     16 S16         1.1970  -21.4217  -48.4139 S.3       23 UNK        -0.2404 
     17 C17         1.5746  -23.2059  -48.4114 C.3       23 UNK        -0.0398 
     18 CA          0.9067  -24.0114  -47.2713 C.3       11 UNK         0.1400 
     19 N           1.4125  -23.6047  -45.9579 N.am      11 UNK        -0.5000 
     20 C           2.0630  -24.4097  -45.1086 C.2       10 UNK         0.5000 
     21 O           2.3160  -25.5931  -45.3462 O.2       10 UNK        -0.5000 
     22 CA          2.5063  -23.7808  -43.7732 C.3       10 UNK         0.1400 
     23 CB          3.3442  -24.7302  -42.8917 C.3       10 UNK        -0.1800 
     24 N           3.1915  -22.5008  -43.9532 N.am      10 UNK        -0.5000 
     25 C           4.3464  -22.2423  -44.5823 C.2       9 UNK         0.5000 
     26 O           5.0469  -23.0979  -45.1241 O.2       9 UNK        -0.5000 
     27 CA          4.8045  -20.7666  -44.6001 C.3       9 UNK         0.1400 
     28 CB          4.4993  -20.1245  -45.9616 C.3       9 UNK        -0.1800 
     29 N           4.1872  -19.9574  -43.5445 N.am      9 UNK        -0.5000 
     30 C           4.4811  -20.0474  -42.2391 C.2       8 UNK         0.5000 
     31 O           5.3902  -20.7458  -41.7892 O.2       8 UNK        -0.5000 
     32 CA          3.5733  -19.2646  -41.2698 C.3       8 UNK         0.1400 
     33 CB          4.0432  -17.8099  -41.1189 C.3       8 UNK        -0.1800 
     34 N           2.1679  -19.2918  -41.6826 N.am      8 UNK        -0.5000 
     35 C           1.4013  -20.3923  -41.6811 C.2       7 UNK         0.5000 
     36 O           1.7742  -21.4839  -41.2530 O.2       7 UNK        -0.5000 
     37 CA         -0.0001  -20.2712  -42.3015 C.3       7 UNK         0.1400 
     38 CB         -1.0121  -19.7787  -41.2560 C.3       7 UNK        -0.1800 
     39 N          -0.0159  -19.3959  -43.4757 N.am      7 UNK        -0.5000 
     40 C           0.5527  -19.6925  -44.6545 C.2       6 UNK         0.5000 
     41 O           1.0839  -20.7757  -44.8926 O.2       6 UNK        -0.5000 
     42 CA          0.5591  -18.5939  -45.7361 C.3       6 UNK         0.1400 
     43 CB         -0.7119  -18.6579  -46.5887 C.3       6 UNK        -0.1800 
     44 N           0.7036  -17.2512  -45.1762 N.am      6 UNK        -0.5000 
     45 C           1.7905  -16.8205  -44.5228 C.2       5 UNK         0.5000 
     46 O           2.8184  -17.4865  -44.4005 O.2       5 UNK        -0.5000 
     47 CA          1.6805  -15.4556  -43.8212 C.3       5 UNK         0.1400 
     48 CB          1.9969  -14.2956  -44.7750 C.3       5 UNK        -0.1800 
     49 N           0.3561  -15.2603  -43.2299 N.am      5 UNK        -0.5000 
     50 C          -0.0628  -15.8718  -42.1140 C.2       4 UNK         0.5000 
     51 O           0.6471  -16.6242  -41.4468 O.2       4 UNK        -0.5000 
     52 CA         -1.5244  -15.6265  -41.6909 C.3       4 UNK         0.1400 
     53 CB         -1.6354  -14.3412  -40.8575 C.3       4 UNK        -0.1800 
     54 N          -2.4428  -15.5447  -42.8292 N.am      4 UNK        -0.5000 
     55 C          -2.7720  -16.5818  -43.6126 C.2       3 UNK         0.5000 
     56 O          -2.3630  -17.7260  -43.4320 O.2       3 UNK        -0.5000 
     57 CA         -3.6654  -16.2871  -44.8339 C.3       3 UNK         0.1400 
     58 CB         -5.1490  -16.4493  -44.4732 C.3       3 UNK        -0.1800 
     59 N          -3.4450  -14.9641  -45.4280 N.am      3 UNK        -0.5000 
     60 C          -2.2730  -14.5378  -45.9160 C.2       2 UNK         0.5000 
     61 O          -1.2313  -15.1976  -45.8636 O.2       2 UNK        -0.5000 
     62 CA         -2.2491  -13.1274  -46.5184 C.3       2 UNK         0.1400 
     63 CB         -2.2192  -12.0610  -45.4110 C.3       2 UNK        -0.1800 
     64 N          -1.0468  -13.0018  -47.3326 N.am      2 UNK        -0.5000 
     65 C          -0.9659  -12.4284  -48.5347 C.2       1 UNK         0.5000 
     66 O          -1.9151  -11.8664  -49.0890 O.2       1 UNK        -0.5000 
     67 C          -0.6348  -23.9455  -47.3189 C.2       11 UNK         0.5000 
     68 O          -1.2662  -23.3515  -46.4409 O.2       11 UNK        -0.5000 
     69 N          -1.2119  -24.5554  -48.3662 N.am      12 UNK        -0.5000 
     70 CA         -2.6540  -24.7068  -48.5971 C.3       12 UNK         0.1400 
     71 CB         -2.8678  -25.5172  -49.8846 C.3       12 UNK        -0.1800 
     72 C          -3.4476  -23.3892  -48.6709 C.2       12 UNK         0.5000 
     73 O          -4.6294  -23.3780  -48.3224 O.2       12 UNK        -0.5000 
     74 N          -2.7837  -22.2977  -49.0790 N.am      13 UNK        -0.5000 
     75 CA         -3.3456  -20.9454  -49.1514 C.3       13 UNK         0.1400 
     76 CB         -2.3165  -20.0042  -49.7976 C.3       13 UNK        -0.1800 
     77 C          -3.8362  -20.3965  -47.7943 C.2       13 UNK         0.5000 
     78 O          -4.6976  -19.5183  -47.7784 O.2       13 UNK        -0.5000 
     79 N          -3.3265  -20.9501  -46.6830 N.am      14 UNK        -0.5000 
     80 CA         -3.7750  -20.6575  -45.3214 C.3       14 UNK         0.1400 
     81 CB         -2.8570  -21.3869  -44.3324 C.3       14 UNK        -0.1800 
     82 C          -5.2316  -21.0835  -45.0685 C.2       14 UNK         0.5000 
     83 O          -5.9723  -20.3622  -44.4003 O.2       14 UNK        -0.5000 
     84 N          -5.6025  -22.2549  -45.6007 N.am      15 UNK        -0.5000 
     85 CA         -6.9288  -22.8474  -45.4556 C.3       15 UNK         0.1400 
     86 CB         -6.7892  -24.3767  -45.3966 C.3       15 UNK        -0.1800 
     87 C          -7.8534  -22.4362  -46.6097 C.2       15 UNK         0.5000 
     88 O          -9.0313  -22.1622  -46.3771 O.2       15 UNK        -0.5000 
     89 N          -7.3079  -22.4103  -47.8330 N.am      16 UNK        -0.5000 
     90 CA         -8.0496  -22.1225  -49.0583 C.3       16 UNK         0.1400 
     91 CB         -7.2214  -22.5987  -50.2602 C.3       16 UNK        -0.1800 
     92 C          -8.4138  -20.6382  -49.2300 C.2       16 UNK         0.5000 
     93 O          -9.3774  -20.3440  -49.9372 O.2       16 UNK        -0.5000 
     94 N          -7.6128  -19.7328  -48.6461 N.am      17 UNK        -0.5000 
     95 CA         -7.6430  -18.2636  -48.7538 C.3       17 UNK         0.1400 
     96 CB         -8.9864  -17.6846  -48.2710 C.3       17 UNK        -0.1800 
     97 C          -7.2605  -17.7184  -50.1486 C.2       17 UNK         0.5000 
     98 O          -6.6557  -16.6487  -50.2363 O.2       17 UNK        -0.5000 
     99 N          -7.5943  -18.4662  -51.2064 N.am      18 UNK        -0.5000 
    100 CA        -7.1431  -18.2891  -52.5839 C.3       18 UNK         0.1400 
    101 CB        -8.0090  -19.1886  -53.4832 C.3       18 UNK        -0.1800 
    102 C         -5.6458  -18.6240  -52.7546 C.2       18 UNK         0.5000 
    103 O         -5.0050  -19.1149  -51.8223 O.2       18 UNK        -0.5000 
    104 N         -5.1256  -18.3682  -53.9642 N.am      19 UNK        -0.5000 
    105 CA        -3.7268  -18.5695  -54.3590 C.3       19 UNK         0.1400 
    106 CB        -3.5579  -18.1506  -55.8273 C.3       19 UNK        -0.1800 
    107 C         -3.2003  -20.0010  -54.1343 C.2       19 UNK         0.5000 
    108 O         -2.0645  -20.1506  -53.6867 O.2       19 UNK        -0.5000 
    109 N         -4.0516  -21.0039  -54.4031 N.am      20 UNK        -0.5000 
    110 CA        -3.8962  -22.4330  -54.1045 C.3       20 UNK         0.1400 
    111 CB        -4.1559  -22.6803  -52.6044 C.3       20 UNK        -0.1800 
    112 C         -2.5624  -23.0428  -54.5845 C.2       20 UNK         0.5000 
    113 O         -2.4981  -23.5638  -55.6985 O.2       20 UNK        -0.5000 
    114 N         -1.5333  -22.9759  -53.7290 N.am      21 UNK        -0.5000 
    115 CA        -0.1673  -23.4187  -54.0001 C.3       21 UNK         0.1400 
    116 CB         0.6215  -23.4233  -52.6805 C.3       21 UNK        -0.1800 
    117 C          0.5506  -22.5667  -55.0668 C.2       21 UNK         0.5000 
    118 O          1.3944  -23.1008  -55.7884 O.2       21 UNK        -0.5000 
    119 N          0.2034  -21.2762  -55.1613 N.am      22 UNK        -0.5000 
    120 CA         0.6606  -20.3773  -56.2304 C.3       22 UNK         0.1400 
    121 C         -0.2045  -20.5649  -57.5048 C.2       22 UNK         0.5000 
    122 N          0.4125  -20.7210  -58.6681 N.am      22 UNK        -0.7600 
    123 O         -1.4313  -20.5260  -57.4541 O.2       22 UNK        -0.5000 
    124 C124        0.6623  -18.8917  -55.7907 C.3       23 UNK        -0.0398 
    125 S125        1.8717  -18.5600  -54.4667 S.3       23 UNK        -0.2404 
    126 C126        0.7656  -18.0784  -53.1076 C.3       23 UNK        -0.0205 
    127 H127        0.5178  -10.0984  -52.4205 H         1 UNK         0.0600 
    128 H128        1.6312   -8.9515  -51.6705 H         1 UNK         0.0600 
    129 H129       -0.1136   -8.7238  -51.5098 H         1 UNK         0.0600 
    130 H130        0.3134  -11.9971  -51.2784 H         1 UNK         0.3000 
    131 H131        1.1659  -12.2248  -48.5132 H         1 UNK         0.0600 
    132 H132       -0.1658  -14.5021  -50.0537 H         1 UNK         0.0800 
    133 H133        1.4260  -13.9695  -50.5070 H         1 UNK         0.0800 
    134 H134        3.6422  -15.9716  -48.3807 H         1 UNK         0.0800 
    135 H135        3.3684  -15.0511  -49.8340 H         1 UNK         0.0800 
    136 H136        1.6908  -16.0053  -51.5845 H         1 UNK         0.1150 
    137 H137        1.4218  -20.2744  -51.6776 H         1 UNK         0.1150 
    138 H138        3.2050  -18.3245  -48.3040 H         1 UNK         0.1150 
    139 H139        2.9062  -21.5038  -50.1136 H         1 UNK         0.0800 
    140 H140        3.5007  -20.7544  -48.6528 H         1 UNK         0.0800 
    141 H141        2.6561  -23.3337  -48.3426 H         1 UNK         0.0800 
    142 H142        1.2948  -23.6129  -49.3842 H         1 UNK         0.0800 
    143 H143        1.1559  -25.0599  -47.4456 H         1 UNK         0.0600 
    144 H144        1.2106  -22.6471  -45.6825 H         1 UNK         0.3000 
    145 H145        1.5883  -23.5563  -43.2283 H         1 UNK         0.0600 
    146 H146        3.6080  -24.2556  -41.9463 H         1 UNK         0.0600 
    147 H147        2.7862  -25.6366  -42.6546 H         1 UNK         0.0600 
    148 H148        4.2682  -25.0342  -43.3841 H         1 UNK         0.0600 
    149 H149        2.6737  -21.6979  -43.6223 H         1 UNK         0.3000 
    150 H150        5.8862  -20.7537  -44.4519 H         1 UNK         0.0600 
    151 H151        5.0197  -20.6508  -46.7622 H         1 UNK         0.0600 
    152 H152        4.8223  -19.0837  -45.9919 H         1 UNK         0.0600 
    153 H153        3.4333  -20.1514  -46.1877 H         1 UNK         0.0600 
    154 H154        3.4805  -19.2893  -43.8364 H         1 UNK         0.3000 
    155 H155        3.6432  -19.7427  -40.2904 H         1 UNK         0.0600 
    156 H156        5.0668  -17.7699  -40.7445 H         1 UNK         0.0600 
    157 H157        3.4164  -17.2641  -40.4133 H         1 UNK         0.0600 
    158 H158        4.0223  -17.2745  -42.0675 H         1 UNK         0.0600 
    159 H159        1.7654  -18.4182  -42.0000 H         1 UNK         0.3000 
    160 H160       -0.3054  -21.2699  -42.6202 H         1 UNK         0.0600 
    161 H161       -0.7604  -18.7867  -40.8833 H         1 UNK         0.0600 
    162 H162       -1.0417  -20.4512  -40.3979 H         1 UNK         0.0600 
    163 H163       -2.0203  -19.7340  -41.6654 H         1 UNK         0.0600 
    164 H164       -0.5384  -18.5309  -43.3899 H         1 UNK         0.3000 
    165 H165        1.4123  -18.7789  -46.3914 H         1 UNK         0.0600 
    166 H166       -0.6702  -17.9497  -47.4167 H         1 UNK         0.0600 
    167 H167       -0.8340  -19.6538  -47.0119 H         1 UNK         0.0600 
    168 H168       -1.6021  -18.4416  -46.0009 H         1 UNK         0.0600 
    169 H169       -0.0809  -16.6153  -45.2904 H         1 UNK         0.3000 
    170 H170        2.4250  -15.4390  -43.0222 H         1 UNK         0.0600 
    171 H171        2.9436  -14.4578  -45.2919 H         1 UNK         0.0600 
    172 H172        1.2239  -14.1742  -45.5314 H         1 UNK         0.0600 
    173 H173        2.0787  -13.3541  -44.2319 H         1 UNK         0.0600 
    174 H174       -0.3050  -14.7183  -43.7670 H         1 UNK         0.3000 
    175 H175       -1.8334  -16.4657  -41.0640 H         1 UNK         0.0600 
    176 H176       -0.9749  -14.3806  -39.9902 H         1 UNK         0.0600 
    177 H177       -1.3634  -13.4586  -41.4378 H         1 UNK         0.0600 
    178 H178       -2.6502  -14.1992  -40.4853 H         1 UNK         0.0600 
    179 H179       -2.8246  -14.6364  -43.0467 H         1 UNK         0.3000 
    180 H180       -3.4271  -17.0284  -45.5987 H         1 UNK         0.0600 
    181 H181       -5.3416  -17.4370  -44.0514 H         1 UNK         0.0600 
    182 H182       -5.4691  -15.7092  -43.7388 H         1 UNK         0.0600 
    183 H183       -5.7828  -16.3475  -45.3544 H         1 UNK         0.0600 
    184 H184       -4.2521  -14.3604  -45.4913 H         1 UNK         0.3000 
    185 H185       -3.1437  -13.0011  -47.1318 H         1 UNK         0.0600 
    186 H186       -3.1095  -12.1168  -44.7838 H         1 UNK         0.0600 
    187 H187       -1.3499  -12.1782  -44.7623 H         1 UNK         0.0600 
    188 H188       -2.1851  -11.0572  -45.8350 H         1 UNK         0.0600 
    189 H189       -0.2662  -13.5555  -47.0011 H         1 UNK         0.3000 
    190 H190       -0.6180  -25.0186  -49.0383 H         1 UNK         0.3000 
    191 H191       -3.0605  -25.2780  -47.7602 H         1 UNK         0.0600 
    192 H192       -2.4323  -25.0180  -50.7513 H         1 UNK         0.0600 
    193 H193       -3.9304  -25.6590  -50.0874 H         1 UNK         0.0600 
    194 H194       -2.4197  -26.5080  -49.8071 H         1 UNK         0.0600 
    195 H195       -1.8064  -22.3933  -49.3110 H         1 UNK         0.3000 
    196 H196       -4.2170  -20.9841  -49.8071 H         1 UNK         0.0600 
    197 H197       -2.6970  -18.9829  -49.8455 H         1 UNK         0.0600 
    198 H198       -2.0923  -20.3084  -50.8201 H         1 UNK         0.0600 
    199 H199       -1.3783  -19.9813  -49.2452 H         1 UNK         0.0600 
    200 H200       -2.6269  -21.6778  -46.7770 H         1 UNK         0.3000 
    201 H201       -3.6914  -19.5819  -45.1561 H         1 UNK         0.0600 
    202 H202       -3.0571  -21.0700  -43.3092 H         1 UNK         0.0600 
    203 H203       -2.9908  -22.4687  -44.3745 H         1 UNK         0.0600 
    204 H204       -1.8114  -21.1862  -44.5478 H         1 UNK         0.0600 
    205 H205       -4.9440  -22.7534  -46.1846 H         1 UNK         0.3000 
    206 H206       -7.3842  -22.5142  -44.5205 H         1 UNK         0.0600 
    207 H207       -6.1779  -24.6828  -44.5475 H         1 UNK         0.0600 
    208 H208       -7.7636  -24.8537  -45.2844 H         1 UNK         0.0600 
    209 H209       -6.3291  -24.7768  -46.3014 H         1 UNK         0.0600 
    210 H210       -6.3368  -22.6901  -47.9472 H         1 UNK         0.3000 
    211 H211       -8.9811  -22.6922  -49.0397 H         1 UNK         0.0600 
    212 H212       -7.7559  -22.4377  -51.1974 H         1 UNK         0.0600 
    213 H213       -6.9964  -23.6632  -50.1911 H         1 UNK         0.0600 
    214 H214       -6.2762  -22.0604  -50.3234 H         1 UNK         0.0600 
    215 H215       -6.8111  -20.0848  -48.1372 H         1 UNK         0.3000 
    216 H216       -6.8741  -17.9079  -48.0664 H         1 UNK         0.0600 
    217 H217       -8.9435  -16.5958  -48.2262 H         1 UNK         0.0600 
    218 H218       -9.2329  -18.0419  -47.2712 H         1 UNK         0.0600 
    219 H219       -9.8094  -17.9479  -48.9356 H         1 UNK         0.0600 
    220 H220       -8.1394  -19.2990  -51.0157 H         1 UNK         0.3000 
    221 H221       -7.2959  -17.2456  -52.8662 H         1 UNK         0.0600 
    222 H222       -7.8630  -20.2449  -53.2523 H         1 UNK         0.0600 
    223 H223       -9.0689  -18.9643  -53.3602 H         1 UNK         0.0600 
    224 H224       -7.7732  -19.0466  -54.5383 H         1 UNK         0.0600 
    225 H225       -5.7284  -17.9727  -54.6710 H         1 UNK         0.3000 
    226 H226       -3.1191  -17.9031  -53.7434 H         1 UNK         0.0600 
    227 H227       -2.5253  -18.2659  -56.1548 H         1 UNK         0.0600 
    228 H228       -4.1775  -18.7539  -56.4918 H         1 UNK         0.0600 
    229 H229       -3.8268  -17.1044  -55.9738 H         1 UNK         0.0600 
    230 H230       -4.9436  -20.7468  -54.7997 H         1 UNK         0.3000 
    231 H231       -4.6835  -22.9478  -54.6574 H         1 UNK         0.0600 
    232 H232       -5.1730  -22.3923  -52.3444 H         1 UNK         0.0600 
    233 H233       -3.4815  -22.1068  -51.9691 H         1 UNK         0.0600 
    234 H234       -4.0422  -23.7345  -52.3491 H         1 UNK         0.0600 
    235 H235       -1.6760  -22.4626  -52.8717 H         1 UNK         0.3000 
    236 H236       -0.2137  -24.4434  -54.3744 H         1 UNK         0.0600 
    237 H237        0.1738  -24.1041  -51.9563 H         1 UNK         0.0600 
    238 H238        1.6501  -23.7493  -52.8400 H         1 UNK         0.0600 
    239 H239        0.6571  -22.4314  -52.2298 H         1 UNK         0.0600 
    240 H240       -0.5424  -20.9241  -54.5677 H         1 UNK         0.3000 
    241 H241        1.6910  -20.6386  -56.4809 H         1 UNK         0.0600 
    242 H242       -0.1408  -20.8281  -59.5042 H         1 UNK         0.3800 
    243 H243        1.4186  -20.7516  -58.7348 H         1 UNK         0.3800 
    244 H244        0.9227  -18.2470  -56.6320 H         1 UNK         0.0800 
    245 H245       -0.3335  -18.5839  -55.4715 H         1 UNK         0.0800 
    246 H246       -0.0869  -18.7536  -53.0685 H         1 UNK         0.0800 
    247 H247        0.3650  -17.0818  -53.2985 H         1 UNK         0.0800 
@<TRIPOS>BOND
     1    1    2 1    
     2    1  127 1    
     3    1  128 1    
     4    1  129 1    
     5    2    3 2    
     6    2    4 am   BACKBONE|DICT|INTERRES
     7    4    5 1    
     8    4  130 1    
     9    5    6 1    
    10    5   65 1    
    11    5  131 1    
    12    6    7 1    
    13    6  132 1    
    14    6  133 1    
    15    7    8 1    
    16    8    9 1    
    17    8  134 1    
    18    8  135 1    
    19    9   10 ar   
    20    9   14 ar   
    21   10   11 ar   
    22   10  136 1    
    23   11   12 ar   
    24   11  126 1    
    25   12   13 ar   
    26   12  137 1    
    27   13   14 ar   
    28   13   15 1    
    29   14  138 1    
    30   15   16 1    
    31   15  139 1    
    32   15  140 1    
    33   16   17 1    
    34   17   18 1    
    35   17  141 1    
    36   17  142 1    
    37   18   19 1    
    38   18   67 1    
    39   18  143 1    
    40   19   20 am   BACKBONE|DICT|INTERRES
    41   19  144 1    
    42   20   21 2    
    43   20   22 1    
    44   22   23 1    
    45   22   24 1    
    46   22  145 1    
    47   23  146 1    
    48   23  147 1    
    49   23  148 1    
    50   24   25 am   BACKBONE|DICT|INTERRES
    51   24  149 1    
    52   25   26 2    
    53   25   27 1    
    54   27   28 1    
    55   27   29 1    
    56   27  150 1    
    57   28  151 1    
    58   28  152 1    
    59   28  153 1    
    60   29   30 am   BACKBONE|DICT|INTERRES
    61   29  154 1    
    62   30   31 2    
    63   30   32 1    
    64   32   33 1    
    65   32   34 1    
    66   32  155 1    
    67   33  156 1    
    68   33  157 1    
    69   33  158 1    
    70   34   35 am   BACKBONE|DICT|INTERRES
    71   34  159 1    
    72   35   36 2    
    73   35   37 1    
    74   37   38 1    
    75   37   39 1    
    76   37  160 1    
    77   38  161 1    
    78   38  162 1    
    79   38  163 1    
    80   39   40 am   BACKBONE|DICT|INTERRES
    81   39  164 1    
    82   40   41 2    
    83   40   42 1    
    84   42   43 1    
    85   42   44 1    
    86   42  165 1    
    87   43  166 1    
    88   43  167 1    
    89   43  168 1    
    90   44   45 am   BACKBONE|DICT|INTERRES
    91   44  169 1    
    92   45   46 2    
    93   45   47 1    
    94   47   48 1    
    95   47   49 1    
    96   47  170 1    
    97   48  171 1    
    98   48  172 1    
    99   48  173 1    
   100   49   50 am   BACKBONE|DICT|INTERRES
   101   49  174 1    
   102   50   51 2    
   103   50   52 1    
   104   52   53 1    
   105   52   54 1    
   106   52  175 1    
   107   53  176 1    
   108   53  177 1    
   109   53  178 1    
   110   54   55 am   BACKBONE|DICT|INTERRES
   111   54  179 1    
   112   55   56 2    
   113   55   57 1    
   114   57   58 1    
   115   57   59 1    
   116   57  180 1    
   117   58  181 1    
   118   58  182 1    
   119   58  183 1    
   120   59   60 am   BACKBONE|DICT|INTERRES
   121   59  184 1    
   122   60   61 2    
   123   60   62 1    
   124   62   63 1    
   125   62   64 1    
   126   62  185 1    
   127   63  186 1    
   128   63  187 1    
   129   63  188 1    
   130   64   65 am   BACKBONE|DICT|INTERRES
   131   64  189 1    
   132   65   66 2    
   133   67   68 2    
   134   67   69 am   BACKBONE|DICT|INTERRES
   135   69   70 1    
   136   69  190 1    
   137   70   71 1    
   138   70   72 1    
   139   70  191 1    
   140   71  192 1    
   141   71  193 1    
   142   71  194 1    
   143   72   73 2    
   144   72   74 am   BACKBONE|DICT|INTERRES
   145   74   75 1    
   146   74  195 1    
   147   75   76 1    
   148   75   77 1    
   149   75  196 1    
   150   76  197 1    
   151   76  198 1    
   152   76  199 1    
   153   77   78 2    
   154   77   79 am   BACKBONE|DICT|INTERRES
   155   79   80 1    
   156   79  200 1    
   157   80   81 1    
   158   80   82 1    
   159   80  201 1    
   160   81  202 1    
   161   81  203 1    
   162   81  204 1    
   163   82   83 2    
   164   82   84 am   BACKBONE|DICT|INTERRES
   165   84   85 1    
   166   84  205 1    
   167   85   86 1    
   168   85   87 1    
   169   85  206 1    
   170   86  207 1    
   171   86  208 1    
   172   86  209 1    
   173   87   88 2    
   174   87   89 am   BACKBONE|DICT|INTERRES
   175   89   90 1    
   176   89  210 1    
   177   90   91 1    
   178   90   92 1    
   179   90  211 1    
   180   91  212 1    
   181   91  213 1    
   182   91  214 1    
   183   92   93 2    
   184   92   94 am   BACKBONE|DICT|INTERRES
   185   94   95 1    
   186   94  215 1    
   187   95   96 1    
   188   95   97 1    
   189   95  216 1    
   190   96  217 1    
   191   96  218 1    
   192   96  219 1    
   193   97   98 2    
   194   97   99 am   BACKBONE|DICT|INTERRES
   195   99  100 1    
   196   99  220 1    
   197  100  101 1    
   198  100  102 1    
   199  100  221 1    
   200  101  222 1    
   201  101  223 1    
   202  101  224 1    
   203  102  103 2    
   204  102  104 am   BACKBONE|DICT|INTERRES
   205  104  105 1    
   206  104  225 1    
   207  105  106 1    
   208  105  107 1    
   209  105  226 1    
   210  106  227 1    
   211  106  228 1    
   212  106  229 1    
   213  107  108 2    
   214  107  109 am   BACKBONE|DICT|INTERRES
   215  109  110 1    
   216  109  230 1    
   217  110  111 1    
   218  110  112 1    
   219  110  231 1    
   220  111  232 1    
   221  111  233 1    
   222  111  234 1    
   223  112  113 2    
   224  112  114 am   BACKBONE|DICT|INTERRES
   225  114  115 1    
   226  114  235 1    
   227  115  116 1    
   228  115  117 1    
   229  115  236 1    
   230  116  237 1    
   231  116  238 1    
   232  116  239 1    
   233  117  118 2    
   234  117  119 am   BACKBONE|DICT|INTERRES
   235  119  120 1    
   236  119  240 1    
   237  120  121 1    
   238  120  124 1    
   239  120  241 1    
   240  121  122 am   BACKBONE|DICT|INTERRES
   241  121  123 2    
   242  122  242 1    
   243  122  243 1    
   244  124  125 1    
   245  124  244 1    
   246  124  245 1    
   247  125  126 1    
   248  126  246 1    
   249  126  247 1    
@<TRIPOS>SUBSTRUCTURE
     1 UNK         1 GROUP             0       ****    0 ROOT    
