@<TRIPOS>MOLECULE
3R540
247   249    1
SMALL
USER_CHARGES


@<TRIPOS>ATOM
      1 CA          3.6754  -11.3955  -51.3712 C.3       0 UNK        -0.1800 
      2 C           3.9749  -11.8017  -49.9350 C.2       0 UNK         0.5000 
      3 O           4.7755  -11.1470  -49.2664 O.2       0 UNK        -0.5000 
      4 N           3.3436  -12.8829  -49.4638 N.am      1 UNK        -0.5000 
      5 CA          3.4342  -13.3849  -48.0901 C.3       1 UNK         0.1400 
      6 C6          2.9405  -14.8503  -47.9708 C.3       23 UNK        -0.0398 
      7 S7          1.3469  -15.2112  -48.8037 S.3       23 UNK        -0.2404 
      8 C8          1.7845  -16.7145  -49.7443 C.3       23 UNK        -0.0205 
      9 C9          0.5956  -17.4671  -50.3444 C.ar      23 UNK        -0.0193 
     10 C10         0.7491  -18.1033  -51.5816 C.ar      23 UNK        -0.1150 
     11 C11        -0.3055  -18.8221  -52.1509 C.ar      23 UNK        -0.0193 
     12 C12        -1.5220  -18.9097  -51.4723 C.ar      23 UNK        -0.1150 
     13 C13        -1.7020  -18.2782  -50.2411 C.ar      23 UNK        -0.0193 
     14 C14        -0.6335  -17.5672  -49.6768 C.ar      23 UNK        -0.1150 
     15 C15        -3.0848  -18.3175  -49.5970 C.3       23 UNK        -0.0205 
     16 S16        -3.0744  -18.3974  -47.7819 S.3       23 UNK        -0.2404 
     17 C17        -3.2037  -20.1839  -47.4533 C.3       23 UNK        -0.0398 
     18 CA         -1.9718  -21.0509  -47.8288 C.3       11 UNK         0.1400 
     19 N          -0.7106  -20.6141  -47.2162 N.am      11 UNK        -0.5000 
     20 C           0.4818  -21.1961  -47.4263 C.2       10 UNK         0.5000 
     21 O           0.6556  -22.1324  -48.2051 O.2       10 UNK        -0.5000 
     22 CA          1.6770  -20.7057  -46.5899 C.3       10 UNK         0.1400 
     23 CB          2.3022  -19.4462  -47.2017 C.3       10 UNK        -0.1800 
     24 N           1.3384  -20.4710  -45.1867 N.am      10 UNK        -0.5000 
     25 C           0.9585  -21.4289  -44.3294 C.2       9 UNK         0.5000 
     26 O           0.8793  -22.6200  -44.6288 O.2       9 UNK        -0.5000 
     27 CA          0.5600  -20.9810  -42.9111 C.3       9 UNK         0.1400 
     28 CB          1.8016  -20.7197  -42.0454 C.3       9 UNK        -0.1800 
     29 N          -0.2894  -19.7921  -42.9181 N.am      9 UNK        -0.5000 
     30 C          -1.5101  -19.7336  -43.4688 C.2       8 UNK         0.5000 
     31 O          -2.0879  -20.6994  -43.9716 O.2       8 UNK        -0.5000 
     32 CA         -2.1658  -18.3412  -43.5228 C.3       8 UNK         0.1400 
     33 CB         -2.8186  -17.9863  -42.1783 C.3       8 UNK        -0.1800 
     34 N          -1.2290  -17.2822  -43.9103 N.am      8 UNK        -0.5000 
     35 C          -0.5575  -17.2588  -45.0702 C.2       7 UNK         0.5000 
     36 O          -0.6209  -18.1456  -45.9134 O.2       7 UNK        -0.5000 
     37 CA          0.3912  -16.0806  -45.3123 C.3       7 UNK         0.1400 
     38 CB         -0.3995  -14.8019  -45.6269 C.3       7 UNK        -0.1800 
     39 N           1.3039  -15.8568  -44.1949 N.am      7 UNK        -0.5000 
     40 C           2.1947  -16.7534  -43.7484 C.2       6 UNK         0.5000 
     41 O           2.3901  -17.8493  -44.2734 O.2       6 UNK        -0.5000 
     42 CA          2.9539  -16.3876  -42.4621 C.3       6 UNK         0.1400 
     43 CB          4.1093  -15.4204  -42.7606 C.3       6 UNK        -0.1800 
     44 N           2.0883  -15.8170  -41.4276 N.am      6 UNK        -0.5000 
     45 C           1.0204  -16.4174  -40.8858 C.2       5 UNK         0.5000 
     46 O           0.6259  -17.5334  -41.2274 O.2       5 UNK        -0.5000 
     47 CA          0.2365  -15.6605  -39.7939 C.3       5 UNK         0.1400 
     48 CB          0.6338  -16.1585  -38.3917 C.3       5 UNK        -0.1800 
     49 N           0.2839  -14.1925  -39.8677 N.am      5 UNK        -0.5000 
     50 C           1.3124  -13.3562  -39.6744 C.2       4 UNK         0.5000 
     51 O           2.4688  -13.7289  -39.4706 O.2       4 UNK        -0.5000 
     52 CA          0.9851  -11.8502  -39.7711 C.3       4 UNK         0.1400 
     53 CB          2.1493  -10.9616  -39.2971 C.3       4 UNK        -0.1800 
     54 N           0.6293  -11.4594  -41.1347 N.am      4 UNK        -0.5000 
     55 C          -0.5147  -11.7479  -41.7695 C.2       3 UNK         0.5000 
     56 O          -1.4533  -12.3438  -41.2380 O.2       3 UNK        -0.5000 
     57 CA         -0.6336  -11.3115  -43.2447 C.3       3 UNK         0.1400 
     58 CB         -1.5600  -10.0920  -43.3691 C.3       3 UNK        -0.1800 
     59 N           0.6451  -11.0017  -43.8948 N.am      3 UNK        -0.5000 
     60 C           1.6153  -11.8894  -44.1465 C.2       2 UNK         0.5000 
     61 O           1.5727  -13.0681  -43.7913 O.2       2 UNK        -0.5000 
     62 CA          2.8664  -11.3535  -44.8615 C.3       2 UNK         0.1400 
     63 CB          3.9999  -11.1279  -43.8487 C.3       2 UNK        -0.1800 
     64 N           3.3342  -12.2619  -45.9090 N.am      2 UNK        -0.5000 
     65 C           2.7302  -12.4351  -47.0929 C.2       1 UNK         0.5000 
     66 O           1.6836  -11.8664  -47.4150 O.2       1 UNK        -0.5000 
     67 C          -2.2793  -22.5173  -47.4698 C.2       11 UNK         0.5000 
     68 O          -2.5641  -23.3189  -48.3628 O.2       11 UNK        -0.5000 
     69 N          -2.1998  -22.8342  -46.1680 N.am      12 UNK        -0.5000 
     70 CA         -2.4403  -24.1636  -45.6087 C.3       12 UNK         0.1400 
     71 CB         -2.4356  -24.0851  -44.0751 C.3       12 UNK        -0.1800 
     72 C          -1.4414  -25.2194  -46.1098 C.2       12 UNK         0.5000 
     73 O          -1.8525  -26.3334  -46.4355 O.2       12 UNK        -0.5000 
     74 N          -0.1584  -24.8414  -46.1898 N.am      13 UNK        -0.5000 
     75 CA          0.9165  -25.6693  -46.7350 C.3       13 UNK         0.1400 
     76 CB          2.2724  -25.0125  -46.4349 C.3       13 UNK        -0.1800 
     77 C           0.7625  -25.9296  -48.2446 C.2       13 UNK         0.5000 
     78 O           1.0681  -27.0332  -48.6983 O.2       13 UNK        -0.5000 
     79 N           0.2930  -24.9183  -48.9892 N.am      14 UNK        -0.5000 
     80 CA          0.0470  -24.9915  -50.4266 C.3       14 UNK         0.1400 
     81 CB         -0.1548  -23.5787  -50.9971 C.3       14 UNK        -0.1800 
     82 C          -1.1219  -25.9296  -50.7799 C.2       14 UNK         0.5000 
     83 O          -0.9230  -26.8471  -51.5777 O.2       14 UNK        -0.5000 
     84 N          -2.2980  -25.7118  -50.1695 N.am      15 UNK        -0.5000 
     85 CA         -3.4919  -26.5477  -50.3743 C.3       15 UNK         0.1400 
     86 CB         -4.0369  -26.3966  -51.8133 C.3       15 UNK        -0.1800 
     87 C          -4.6421  -26.2730  -49.3876 C.2       15 UNK         0.5000 
     88 O          -5.5657  -27.0855  -49.3307 O.2       15 UNK        -0.5000 
     89 N          -4.6185  -25.1313  -48.6809 N.am      16 UNK        -0.5000 
     90 CA         -5.7092  -24.5769  -47.8622 C.3       16 UNK         0.1400 
     91 CB         -6.1091  -25.5298  -46.7143 C.3       16 UNK        -0.1800 
     92 C          -6.9205  -24.1132  -48.7050 C.2       16 UNK         0.5000 
     93 O          -8.0346  -24.0255  -48.1876 O.2       16 UNK        -0.5000 
     94 N          -6.6738  -23.8080  -49.9864 N.am      17 UNK        -0.5000 
     95 CA         -7.6729  -23.4199  -50.9865 C.3       17 UNK         0.1400 
     96 CB         -7.4114  -24.2316  -52.2682 C.3       17 UNK        -0.1800 
     97 C          -7.6686  -21.9034  -51.2730 C.2       17 UNK         0.5000 
     98 O          -8.2413  -21.4769  -52.2768 O.2       17 UNK        -0.5000 
     99 N          -7.0114  -21.1151  -50.4085 N.am      18 UNK        -0.5000 
    100 CA        -6.7928  -19.6692  -50.5301 C.3       18 UNK         0.1400 
    101 CB        -8.1212  -18.8942  -50.3783 C.3       18 UNK        -0.1800 
    102 C         -6.0015  -19.3353  -51.8127 C.2       18 UNK         0.5000 
    103 O         -4.9895  -19.9867  -52.0692 O.2       18 UNK        -0.5000 
    104 N         -6.4592  -18.3588  -52.6072 N.am      19 UNK        -0.5000 
    105 CA        -5.8113  -17.9171  -53.8480 C.3       19 UNK         0.1400 
    106 CB        -6.5677  -16.6992  -54.3995 C.3       19 UNK        -0.1800 
    107 C         -5.6883  -19.0111  -54.9301 C.2       19 UNK         0.5000 
    108 O         -4.7846  -18.9375  -55.7633 O.2       19 UNK        -0.5000 
    109 N         -6.5717  -20.0193  -54.8887 N.am      20 UNK        -0.5000 
    110 CA        -6.5386  -21.1798  -55.7801 C.3       20 UNK         0.1400 
    111 CB        -7.9041  -21.8823  -55.7518 C.3       20 UNK        -0.1800 
    112 C         -5.4076  -22.1730  -55.4453 C.2       20 UNK         0.5000 
    113 O         -5.0582  -22.9890  -56.2998 O.2       20 UNK        -0.5000 
    114 N         -4.8321  -22.0852  -54.2344 N.am      21 UNK        -0.5000 
    115 CA        -3.7369  -22.9426  -53.7715 C.3       21 UNK         0.1400 
    116 CB        -3.5226  -22.7291  -52.2651 C.3       21 UNK        -0.1800 
    117 C         -2.4179  -22.7226  -54.5368 C.2       21 UNK         0.5000 
    118 O         -1.5646  -23.6096  -54.5333 O.2       21 UNK        -0.5000 
    119 N         -2.2784  -21.5595  -55.1861 N.am      22 UNK        -0.5000 
    120 CA        -1.1362  -21.2077  -56.0428 C.3       22 UNK         0.1400 
    121 C         -1.1131  -21.9486  -57.4143 C.2       22 UNK         0.5000 
    122 N         -2.1647  -22.6556  -57.8153 N.am      22 UNK        -0.7600 
    123 O         -0.1164  -21.8830  -58.1286 O.2       22 UNK        -0.5000 
    124 C124       -1.0176  -19.6738  -56.2548 C.3       23 UNK        -0.0398 
    125 S125       -1.1530  -18.6258  -54.7609 S.3       23 UNK        -0.2404 
    126 C126       -0.1553  -19.4938  -53.5061 C.3       23 UNK        -0.0205 
    127 H127        4.5908  -11.4047  -51.9629 H         1 UNK         0.0600 
    128 H128        2.9594  -12.0696  -51.8421 H         1 UNK         0.0600 
    129 H129        3.2611  -10.3876  -51.3972 H         1 UNK         0.0600 
    130 H130        2.6665  -13.3580  -50.0438 H         1 UNK         0.3000 
    131 H131        4.4946  -13.3887  -47.8270 H         1 UNK         0.0600 
    132 H132        2.8702  -15.1491  -46.9239 H         1 UNK         0.0800 
    133 H133        3.7056  -15.5000  -48.3975 H         1 UNK         0.0800 
    134 H134        2.4796  -16.4245  -50.5338 H         1 UNK         0.0800 
    135 H135        2.3287  -17.3972  -49.0949 H         1 UNK         0.0800 
    136 H136        1.6921  -18.0368  -52.1058 H         1 UNK         0.1150 
    137 H137       -2.3436  -19.4454  -51.9273 H         1 UNK         0.1150 
    138 H138       -0.7635  -17.0799  -48.7212 H         1 UNK         0.1150 
    139 H139       -3.6257  -17.4209  -49.9014 H         1 UNK         0.0800 
    140 H140       -3.6520  -19.1662  -49.9762 H         1 UNK         0.0800 
    141 H141       -4.0931  -20.5485  -47.9706 H         1 UNK         0.0800 
    142 H142       -3.4204  -20.2813  -46.3879 H         1 UNK         0.0800 
    143 H143       -1.8364  -20.9999  -48.9110 H         1 UNK         0.0600 
    144 H144       -0.7536  -19.7915  -46.6151 H         1 UNK         0.3000 
    145 H145        2.4344  -21.4918  -46.6131 H         1 UNK         0.0600 
    146 H146        3.1989  -19.1460  -46.6597 H         1 UNK         0.0600 
    147 H147        2.5909  -19.6246  -48.2381 H         1 UNK         0.0600 
    148 H148        1.6079  -18.6069  -47.1909 H         1 UNK         0.0600 
    149 H149        1.3971  -19.5111  -44.8617 H         1 UNK         0.3000 
    150 H150       -0.0085  -21.7935  -42.4539 H         1 UNK         0.0600 
    151 H151        2.4425  -21.6013  -42.0056 H         1 UNK         0.0600 
    152 H152        1.5218  -20.4725  -41.0211 H         1 UNK         0.0600 
    153 H153        2.3991  -19.8951  -42.4349 H         1 UNK         0.0600 
    154 H154        0.0988  -18.9488  -42.5051 H         1 UNK         0.3000 
    155 H155       -2.9495  -18.3781  -44.2826 H         1 UNK         0.0600 
    156 H156       -2.0825  -17.9136  -41.3773 H         1 UNK         0.0600 
    157 H157       -3.5452  -18.7458  -41.8869 H         1 UNK         0.0600 
    158 H158       -3.3485  -17.0354  -42.2353 H         1 UNK         0.0600 
    159 H159       -1.0727  -16.5415  -43.2442 H         1 UNK         0.3000 
    160 H160        0.9944  -16.3367  -46.1824 H         1 UNK         0.0600 
    161 H161        0.2612  -14.0053  -45.9664 H         1 UNK         0.0600 
    162 H162       -0.9470  -14.4398  -44.7566 H         1 UNK         0.0600 
    163 H163       -1.1226  -14.9768  -46.4248 H         1 UNK         0.0600 
    164 H164        1.2742  -14.9379  -43.7604 H         1 UNK         0.3000 
    165 H165        3.3783  -17.3093  -42.0590 H         1 UNK         0.0600 
    166 H166        4.7020  -15.2269  -41.8664 H         1 UNK         0.0600 
    167 H167        4.7810  -15.8349  -43.5134 H         1 UNK         0.0600 
    168 H168        3.7476  -14.4632  -43.1349 H         1 UNK         0.0600 
    169 H169        2.3620  -14.9210  -41.0398 H         1 UNK         0.3000 
    170 H170       -0.8123  -15.9209  -39.9445 H         1 UNK         0.0600 
    171 H171        0.4882  -17.2362  -38.3064 H         1 UNK         0.0600 
    172 H172        1.6814  -15.9545  -38.1683 H         1 UNK         0.0600 
    173 H173        0.0268  -15.6872  -37.6186 H         1 UNK         0.0600 
    174 H174       -0.5920  -13.7527  -40.1354 H         1 UNK         0.3000 
    175 H175        0.1318  -11.6574  -39.1175 H         1 UNK         0.0600 
    176 H176        3.0311  -11.0796  -39.9285 H         1 UNK         0.0600 
    177 H177        1.8696   -9.9080  -39.3061 H         1 UNK         0.0600 
    178 H178        2.4399  -11.2103  -38.2756 H         1 UNK         0.0600 
    179 H179        1.3476  -10.9888  -41.6637 H         1 UNK         0.3000 
    180 H180       -1.0900  -12.1414  -43.7876 H         1 UNK         0.0600 
    181 H181       -1.1455   -9.2191  -42.8634 H         1 UNK         0.0600 
    182 H182       -2.5365  -10.2945  -42.9270 H         1 UNK         0.0600 
    183 H183       -1.7278   -9.8284  -44.4136 H         1 UNK         0.0600 
    184 H184        0.7658  -10.0474  -44.2025 H         1 UNK         0.3000 
    185 H185        2.6265  -10.3940  -45.3250 H         1 UNK         0.0600 
    186 H186        4.2966  -12.0563  -43.3593 H         1 UNK         0.0600 
    187 H187        4.8821  -10.7065  -44.3313 H         1 UNK         0.0600 
    188 H188        3.6946  -10.4299  -43.0680 H         1 UNK         0.0600 
    189 H189        4.1761  -12.7789  -45.7029 H         1 UNK         0.3000 
    190 H190       -1.9621  -22.1055  -45.5021 H         1 UNK         0.3000 
    191 H191       -3.4348  -24.4762  -45.9249 H         1 UNK         0.0600 
    192 H192       -1.4756  -23.7381  -43.6918 H         1 UNK         0.0600 
    193 H193       -2.6336  -25.0622  -43.6327 H         1 UNK         0.0600 
    194 H194       -3.2048  -23.4022  -43.7138 H         1 UNK         0.0600 
    195 H195        0.1067  -23.9243  -45.8407 H         1 UNK         0.3000 
    196 H196        0.8873  -26.6351  -46.2264 H         1 UNK         0.0600 
    197 H197        2.3510  -24.0265  -46.8937 H         1 UNK         0.0600 
    198 H198        3.0944  -25.6197  -46.8160 H         1 UNK         0.0600 
    199 H199        2.4246  -24.8953  -45.3619 H         1 UNK         0.0600 
    200 H200        0.1332  -24.0174  -48.5488 H         1 UNK         0.3000 
    201 H201        0.9445  -25.4026  -50.8937 H         1 UNK         0.0600 
    202 H202        0.7448  -22.9756  -50.8741 H         1 UNK         0.0600 
    203 H203       -0.9719  -23.0520  -50.5052 H         1 UNK         0.0600 
    204 H204       -0.3743  -23.6144  -52.0642 H         1 UNK         0.0600 
    205 H205       -2.3539  -24.9613  -49.4899 H         1 UNK         0.3000 
    206 H206       -3.1947  -27.5874  -50.2226 H         1 UNK         0.0600 
    207 H207       -3.2897  -26.6208  -52.5732 H         1 UNK         0.0600 
    208 H208       -4.8709  -27.0780  -51.9866 H         1 UNK         0.0600 
    209 H209       -4.4072  -25.3896  -51.9945 H         1 UNK         0.0600 
    210 H210       -3.8095  -24.5189  -48.7484 H         1 UNK         0.3000 
    211 H211       -5.3046  -23.6732  -47.4050 H         1 UNK         0.0600 
    212 H212       -6.6930  -26.3772  -47.0743 H         1 UNK         0.0600 
    213 H213       -6.7192  -25.0104  -45.9746 H         1 UNK         0.0600 
    214 H214       -5.2364  -25.9260  -46.1964 H         1 UNK         0.0600 
    215 H215       -5.7249  -23.8985  -50.3156 H         1 UNK         0.3000 
    216 H216       -8.6739  -23.6714  -50.6307 H         1 UNK         0.0600 
    217 H217       -8.1940  -24.0618  -53.0082 H         1 UNK         0.0600 
    218 H218       -7.3941  -25.3017  -52.0602 H         1 UNK         0.0600 
    219 H219       -6.4606  -23.9656  -52.7294 H         1 UNK         0.0600 
    220 H220       -6.5557  -21.5645  -49.6290 H         1 UNK         0.3000 
    221 H221       -6.1505  -19.3846  -49.6959 H         1 UNK         0.0600 
    222 H222       -8.8084  -19.0840  -51.2035 H         1 UNK         0.0600 
    223 H223       -8.6304  -19.1758  -49.4565 H         1 UNK         0.0600 
    224 H224       -7.9477  -17.8187  -50.3280 H         1 UNK         0.0600 
    225 H225       -7.3089  -17.8804  -52.3460 H         1 UNK         0.3000 
    226 H226       -4.7964  -17.6030  -53.5944 H         1 UNK         0.0600 
    227 H227       -6.5767  -15.8804  -53.6799 H         1 UNK         0.0600 
    228 H228       -6.0958  -16.3248  -55.3090 H         1 UNK         0.0600 
    229 H229       -7.6019  -16.9454  -54.6435 H         1 UNK         0.0600 
    230 H230       -7.2663  -20.0311  -54.1536 H         1 UNK         0.3000 
    231 H231       -6.3667  -20.8244  -56.7983 H         1 UNK         0.0600 
    232 H232       -8.7081  -21.1962  -56.0185 H         1 UNK         0.0600 
    233 H233       -8.1260  -22.2945  -54.7682 H         1 UNK         0.0600 
    234 H234       -7.9323  -22.7078  -56.4642 H         1 UNK         0.0600 
    235 H235       -5.1274  -21.3538  -53.5962 H         1 UNK         0.3000 
    236 H236       -4.0406  -23.9787  -53.9327 H         1 UNK         0.0600 
    237 H237       -2.8747  -23.5032  -51.8594 H         1 UNK         0.0600 
    238 H238       -3.0511  -21.7689  -52.0550 H         1 UNK         0.0600 
    239 H239       -4.4606  -22.7690  -51.7136 H         1 UNK         0.0600 
    240 H240       -3.0239  -20.8794  -55.1352 H         1 UNK         0.3000 
    241 H241       -0.2319  -21.5354  -55.5274 H         1 UNK         0.0600 
    242 H242       -2.1308  -23.1309  -58.7034 H         1 UNK         0.3800 
    243 H243       -2.9941  -22.7278  -57.2413 H         1 UNK         0.3800 
    244 H244       -0.0676  -19.4376  -56.7370 H         1 UNK         0.0800 
    245 H245       -1.7941  -19.3358  -56.9437 H         1 UNK         0.0800 
    246 H246       -0.4746  -20.5308  -53.4070 H         1 UNK         0.0800 
    247 H247        0.8889  -19.5134  -53.8214 H         1 UNK         0.0800 
@<TRIPOS>BOND
     1    1    2 1    
     2    1  127 1    
     3    1  128 1    
     4    1  129 1    
     5    2    3 2    
     6    2    4 am   BACKBONE|DICT|INTERRES
     7    4    5 1    
     8    4  130 1    
     9    5    6 1    
    10    5   65 1    
    11    5  131 1    
    12    6    7 1    
    13    6  132 1    
    14    6  133 1    
    15    7    8 1    
    16    8    9 1    
    17    8  134 1    
    18    8  135 1    
    19    9   10 ar   
    20    9   14 ar   
    21   10   11 ar   
    22   10  136 1    
    23   11   12 ar   
    24   11  126 1    
    25   12   13 ar   
    26   12  137 1    
    27   13   14 ar   
    28   13   15 1    
    29   14  138 1    
    30   15   16 1    
    31   15  139 1    
    32   15  140 1    
    33   16   17 1    
    34   17   18 1    
    35   17  141 1    
    36   17  142 1    
    37   18   19 1    
    38   18   67 1    
    39   18  143 1    
    40   19   20 am   BACKBONE|DICT|INTERRES
    41   19  144 1    
    42   20   21 2    
    43   20   22 1    
    44   22   23 1    
    45   22   24 1    
    46   22  145 1    
    47   23  146 1    
    48   23  147 1    
    49   23  148 1    
    50   24   25 am   BACKBONE|DICT|INTERRES
    51   24  149 1    
    52   25   26 2    
    53   25   27 1    
    54   27   28 1    
    55   27   29 1    
    56   27  150 1    
    57   28  151 1    
    58   28  152 1    
    59   28  153 1    
    60   29   30 am   BACKBONE|DICT|INTERRES
    61   29  154 1    
    62   30   31 2    
    63   30   32 1    
    64   32   33 1    
    65   32   34 1    
    66   32  155 1    
    67   33  156 1    
    68   33  157 1    
    69   33  158 1    
    70   34   35 am   BACKBONE|DICT|INTERRES
    71   34  159 1    
    72   35   36 2    
    73   35   37 1    
    74   37   38 1    
    75   37   39 1    
    76   37  160 1    
    77   38  161 1    
    78   38  162 1    
    79   38  163 1    
    80   39   40 am   BACKBONE|DICT|INTERRES
    81   39  164 1    
    82   40   41 2    
    83   40   42 1    
    84   42   43 1    
    85   42   44 1    
    86   42  165 1    
    87   43  166 1    
    88   43  167 1    
    89   43  168 1    
    90   44   45 am   BACKBONE|DICT|INTERRES
    91   44  169 1    
    92   45   46 2    
    93   45   47 1    
    94   47   48 1    
    95   47   49 1    
    96   47  170 1    
    97   48  171 1    
    98   48  172 1    
    99   48  173 1    
   100   49   50 am   BACKBONE|DICT|INTERRES
   101   49  174 1    
   102   50   51 2    
   103   50   52 1    
   104   52   53 1    
   105   52   54 1    
   106   52  175 1    
   107   53  176 1    
   108   53  177 1    
   109   53  178 1    
   110   54   55 am   BACKBONE|DICT|INTERRES
   111   54  179 1    
   112   55   56 2    
   113   55   57 1    
   114   57   58 1    
   115   57   59 1    
   116   57  180 1    
   117   58  181 1    
   118   58  182 1    
   119   58  183 1    
   120   59   60 am   BACKBONE|DICT|INTERRES
   121   59  184 1    
   122   60   61 2    
   123   60   62 1    
   124   62   63 1    
   125   62   64 1    
   126   62  185 1    
   127   63  186 1    
   128   63  187 1    
   129   63  188 1    
   130   64   65 am   BACKBONE|DICT|INTERRES
   131   64  189 1    
   132   65   66 2    
   133   67   68 2    
   134   67   69 am   BACKBONE|DICT|INTERRES
   135   69   70 1    
   136   69  190 1    
   137   70   71 1    
   138   70   72 1    
   139   70  191 1    
   140   71  192 1    
   141   71  193 1    
   142   71  194 1    
   143   72   73 2    
   144   72   74 am   BACKBONE|DICT|INTERRES
   145   74   75 1    
   146   74  195 1    
   147   75   76 1    
   148   75   77 1    
   149   75  196 1    
   150   76  197 1    
   151   76  198 1    
   152   76  199 1    
   153   77   78 2    
   154   77   79 am   BACKBONE|DICT|INTERRES
   155   79   80 1    
   156   79  200 1    
   157   80   81 1    
   158   80   82 1    
   159   80  201 1    
   160   81  202 1    
   161   81  203 1    
   162   81  204 1    
   163   82   83 2    
   164   82   84 am   BACKBONE|DICT|INTERRES
   165   84   85 1    
   166   84  205 1    
   167   85   86 1    
   168   85   87 1    
   169   85  206 1    
   170   86  207 1    
   171   86  208 1    
   172   86  209 1    
   173   87   88 2    
   174   87   89 am   BACKBONE|DICT|INTERRES
   175   89   90 1    
   176   89  210 1    
   177   90   91 1    
   178   90   92 1    
   179   90  211 1    
   180   91  212 1    
   181   91  213 1    
   182   91  214 1    
   183   92   93 2    
   184   92   94 am   BACKBONE|DICT|INTERRES
   185   94   95 1    
   186   94  215 1    
   187   95   96 1    
   188   95   97 1    
   189   95  216 1    
   190   96  217 1    
   191   96  218 1    
   192   96  219 1    
   193   97   98 2    
   194   97   99 am   BACKBONE|DICT|INTERRES
   195   99  100 1    
   196   99  220 1    
   197  100  101 1    
   198  100  102 1    
   199  100  221 1    
   200  101  222 1    
   201  101  223 1    
   202  101  224 1    
   203  102  103 2    
   204  102  104 am   BACKBONE|DICT|INTERRES
   205  104  105 1    
   206  104  225 1    
   207  105  106 1    
   208  105  107 1    
   209  105  226 1    
   210  106  227 1    
   211  106  228 1    
   212  106  229 1    
   213  107  108 2    
   214  107  109 am   BACKBONE|DICT|INTERRES
   215  109  110 1    
   216  109  230 1    
   217  110  111 1    
   218  110  112 1    
   219  110  231 1    
   220  111  232 1    
   221  111  233 1    
   222  111  234 1    
   223  112  113 2    
   224  112  114 am   BACKBONE|DICT|INTERRES
   225  114  115 1    
   226  114  235 1    
   227  115  116 1    
   228  115  117 1    
   229  115  236 1    
   230  116  237 1    
   231  116  238 1    
   232  116  239 1    
   233  117  118 2    
   234  117  119 am   BACKBONE|DICT|INTERRES
   235  119  120 1    
   236  119  240 1    
   237  120  121 1    
   238  120  124 1    
   239  120  241 1    
   240  121  122 am   BACKBONE|DICT|INTERRES
   241  121  123 2    
   242  122  242 1    
   243  122  243 1    
   244  124  125 1    
   245  124  244 1    
   246  124  245 1    
   247  125  126 1    
   248  126  246 1    
   249  126  247 1    
@<TRIPOS>SUBSTRUCTURE
     1 UNK         1 GROUP             0       ****    0 ROOT    
