@<TRIPOS>MOLECULE
3R540
247   249    1
SMALL
USER_CHARGES


@<TRIPOS>ATOM
      1 CA          2.5290  -16.0742  -51.8748 C.3       0 UNK        -0.1800 
      2 C           1.5360  -15.2841  -51.0345 C.2       0 UNK         0.5000 
      3 O           1.3107  -14.1068  -51.3138 O.2       0 UNK        -0.5000 
      4 N           0.9661  -15.9219  -50.0005 N.am      1 UNK        -0.5000 
      5 CA          0.0954  -15.3282  -48.9749 C.3       1 UNK         0.1400 
      6 C6         -1.3067  -14.8983  -49.5106 C.3       23 UNK        -0.0398 
      7 S7         -2.5840  -16.1581  -49.1605 S.3       23 UNK        -0.2404 
      8 C8         -2.9518  -16.8425  -50.8126 C.3       23 UNK        -0.0205 
      9 C9         -1.7500  -17.5228  -51.4513 C.ar      23 UNK        -0.0193 
     10 C10        -1.3665  -17.1851  -52.7514 C.ar      23 UNK        -0.1150 
     11 C11        -0.2440  -17.7756  -53.3362 C.ar      23 UNK        -0.0193 
     12 C12         0.5117  -18.6939  -52.6015 C.ar      23 UNK        -0.1150 
     13 C13         0.1424  -19.0351  -51.2974 C.ar      23 UNK        -0.0193 
     14 C14        -1.0117  -18.4761  -50.7437 C.ar      23 UNK        -0.1150 
     15 C15         0.9944  -20.0009  -50.4902 C.3       23 UNK        -0.0205 
     16 S16         1.9485  -19.1619  -49.1817 S.3       23 UNK        -0.2404 
     17 C17         0.9070  -19.3804  -47.6945 C.3       23 UNK        -0.0398 
     18 CA          0.9909  -20.8159  -47.1022 C.3       11 UNK         0.1400 
     19 N           1.3848  -20.8342  -45.6862 N.am      11 UNK        -0.5000 
     20 C           1.7761  -21.9457  -45.0441 C.2       10 UNK         0.5000 
     21 O           1.6827  -23.0777  -45.5202 O.2       10 UNK        -0.5000 
     22 CA          2.3937  -21.7755  -43.6515 C.3       10 UNK         0.1400 
     23 CB          3.7453  -21.0437  -43.7218 C.3       10 UNK        -0.1800 
     24 N           1.4920  -21.0637  -42.7492 N.am      10 UNK        -0.5000 
     25 C           1.1233  -21.5227  -41.5458 C.2       9 UNK         0.5000 
     26 O           1.4787  -22.6094  -41.0867 O.2       9 UNK        -0.5000 
     27 CA          0.2183  -20.6219  -40.6890 C.3       9 UNK         0.1400 
     28 CB          1.0635  -19.7662  -39.7326 C.3       9 UNK        -0.1800 
     29 N          -0.6563  -19.7485  -41.4689 N.am      9 UNK        -0.5000 
     30 C          -1.7467  -20.1602  -42.1275 C.2       8 UNK         0.5000 
     31 O          -2.0771  -21.3412  -42.2285 O.2       8 UNK        -0.5000 
     32 CA         -2.6285  -19.0684  -42.7546 C.3       8 UNK         0.1400 
     33 CB         -3.5586  -18.4600  -41.6937 C.3       8 UNK        -0.1800 
     34 N          -1.8329  -18.0006  -43.3551 N.am      8 UNK        -0.5000 
     35 C          -1.4426  -17.9724  -44.6349 C.2       7 UNK         0.5000 
     36 O          -1.6891  -18.8596  -45.4494 O.2       7 UNK        -0.5000 
     37 CA         -0.5946  -16.7634  -45.0707 C.3       7 UNK         0.1400 
     38 CB         -1.4966  -15.5516  -45.3471 C.3       7 UNK        -0.1800 
     39 N           0.4331  -16.4028  -44.0936 N.am      7 UNK        -0.5000 
     40 C           1.3924  -17.2295  -43.6558 C.2       6 UNK         0.5000 
     41 O           1.5596  -18.3709  -44.0927 O.2       6 UNK        -0.5000 
     42 CA          2.2793  -16.7286  -42.4994 C.3       6 UNK         0.1400 
     43 CB          3.5597  -16.0797  -43.0389 C.3       6 UNK        -0.1800 
     44 N           1.6296  -15.8064  -41.5583 N.am      6 UNK        -0.5000 
     45 C           0.5060  -16.0521  -40.8662 C.2       5 UNK         0.5000 
     46 O          -0.2056  -17.0378  -41.0531 O.2       5 UNK        -0.5000 
     47 CA          0.1035  -15.0574  -39.7620 C.3       5 UNK         0.1400 
     48 CB          0.4180  -15.6501  -38.3798 C.3       5 UNK        -0.1800 
     49 N           0.7483  -13.7490  -39.8723 N.am      5 UNK        -0.5000 
     50 C           0.4146  -12.8156  -40.7709 C.2       4 UNK         0.5000 
     51 O          -0.4643  -12.9777  -41.6201 O.2       4 UNK        -0.5000 
     52 CA          1.1608  -11.4658  -40.7077 C.3       4 UNK         0.1400 
     53 CB          2.3469  -11.4272  -39.7156 C.3       4 UNK        -0.1800 
     54 N           1.5731  -11.0298  -42.0433 N.am      4 UNK        -0.5000 
     55 C           2.4291  -11.6524  -42.8647 C.2       3 UNK         0.5000 
     56 O           3.0949  -12.6439  -42.5548 O.2       3 UNK        -0.5000 
     57 CA          2.5781  -11.0154  -44.2603 C.3       3 UNK         0.1400 
     58 CB          3.5887   -9.8580  -44.2120 C.3       3 UNK        -0.1800 
     59 N           2.9894  -11.9474  -45.3119 N.am      3 UNK        -0.5000 
     60 C           2.3444  -13.0627  -45.6781 C.2       2 UNK         0.5000 
     61 O           1.3387  -13.5011  -45.1157 O.2       2 UNK        -0.5000 
     62 CA          2.9482  -13.8049  -46.8881 C.3       2 UNK         0.1400 
     63 CB          4.1305  -14.6888  -46.4611 C.3       2 UNK        -0.1800 
     64 N           1.9923  -14.6403  -47.6147 N.am      2 UNK        -0.5000 
     65 C           0.8667  -14.2240  -48.2133 C.2       1 UNK         0.5000 
     66 O           0.4866  -13.0515  -48.2284 O.2       1 UNK        -0.5000 
     67 C          -0.2853  -21.6372  -47.3838 C.2       11 UNK         0.5000 
     68 O          -0.3071  -22.4146  -48.3381 O.2       11 UNK        -0.5000 
     69 N          -1.3102  -21.4954  -46.5330 N.am      12 UNK        -0.5000 
     70 CA         -2.6096  -22.1617  -46.6636 C.3       12 UNK         0.1400 
     71 CB         -3.5382  -21.7048  -45.5314 C.3       12 UNK        -0.1800 
     72 C          -2.5572  -23.7003  -46.7087 C.2       12 UNK         0.5000 
     73 O          -3.4445  -24.3075  -47.3087 O.2       12 UNK        -0.5000 
     74 N          -1.5227  -24.3013  -46.1060 N.am      13 UNK        -0.5000 
     75 CA         -1.2747  -25.7425  -46.1489 C.3       13 UNK         0.1400 
     76 CB         -0.2300  -26.1079  -45.0839 C.3       13 UNK        -0.1800 
     77 C          -0.8251  -26.2281  -47.5411 C.2       13 UNK         0.5000 
     78 O          -1.1423  -27.3565  -47.9181 O.2       13 UNK        -0.5000 
     79 N          -0.1095  -25.3703  -48.2806 N.am      14 UNK        -0.5000 
     80 CA          0.3469  -25.6305  -49.6446 C.3       14 UNK         0.1400 
     81 CB          1.6722  -24.8895  -49.8844 C.3       14 UNK        -0.1800 
     82 C          -0.7068  -25.2003  -50.6781 C.2       14 UNK         0.5000 
     83 O          -0.9440  -25.9249  -51.6442 O.2       14 UNK        -0.5000 
     84 N          -1.3272  -24.0356  -50.4488 N.am      15 UNK        -0.5000 
     85 CA         -2.2901  -23.3967  -51.3479 C.3       15 UNK         0.1400 
     86 CB         -2.1171  -21.8713  -51.2576 C.3       15 UNK        -0.1800 
     87 C          -3.7515  -23.8317  -51.1243 C.2       15 UNK         0.5000 
     88 O          -4.6544  -23.1334  -51.5829 O.2       15 UNK        -0.5000 
     89 N          -3.9679  -24.9611  -50.4338 N.am      16 UNK        -0.5000 
     90 CA         -5.2526  -25.6435  -50.2301 C.3       16 UNK         0.1400 
     91 CB         -5.7154  -26.2948  -51.5500 C.3       16 UNK        -0.1800 
     92 C          -6.3296  -24.7308  -49.6075 C.2       16 UNK         0.5000 
     93 O          -7.3555  -24.4576  -50.2332 O.2       16 UNK        -0.5000 
     94 N          -6.0406  -24.2553  -48.3894 N.am      17 UNK        -0.5000 
     95 CA         -6.8131  -23.2830  -47.6081 C.3       17 UNK         0.1400 
     96 CB         -8.2613  -23.7542  -47.3528 C.3       17 UNK        -0.1800 
     97 C          -6.7176  -21.8545  -48.1843 C.2       17 UNK         0.5000 
     98 O          -7.6684  -21.0794  -48.0722 O.2       17 UNK        -0.5000 
     99 N          -5.5471  -21.5354  -48.7588 N.am      18 UNK        -0.5000 
    100 CA        -5.1497  -20.2386  -49.3189 C.3       18 UNK         0.1400 
    101 CB        -5.0515  -19.1665  -48.2122 C.3       18 UNK        -0.1800 
    102 C         -6.0224  -19.8109  -50.5149 C.2       18 UNK         0.5000 
    103 O         -6.5307  -18.6882  -50.5494 O.2       18 UNK        -0.5000 
    104 N         -6.1807  -20.7245  -51.4801 N.am      19 UNK        -0.5000 
    105 CA        -6.8644  -20.4775  -52.7457 C.3       19 UNK         0.1400 
    106 CB        -7.1363  -21.8243  -53.4343 C.3       19 UNK        -0.1800 
    107 C         -6.0324  -19.5668  -53.6672 C.2       19 UNK         0.5000 
    108 O         -4.7995  -19.6006  -53.6279 O.2       19 UNK        -0.5000 
    109 N         -6.7267  -18.8170  -54.5336 N.am      20 UNK        -0.5000 
    110 CA        -6.1432  -17.9035  -55.5249 C.3       20 UNK         0.1400 
    111 CB        -7.2720  -17.0719  -56.1543 C.3       20 UNK        -0.1800 
    112 C         -5.3088  -18.6019  -56.6206 C.2       20 UNK         0.5000 
    113 O         -4.5477  -17.9347  -57.3214 O.2       20 UNK        -0.5000 
    114 N         -5.4552  -19.9285  -56.7395 N.am      21 UNK        -0.5000 
    115 CA        -4.6465  -20.8012  -57.5896 C.3       21 UNK         0.1400 
    116 CB        -5.3517  -22.1626  -57.6994 C.3       21 UNK        -0.1800 
    117 C         -3.1964  -20.9837  -57.0901 C.2       21 UNK         0.5000 
    118 O         -2.3593  -21.4419  -57.8696 O.2       21 UNK        -0.5000 
    119 N         -2.9258  -20.6284  -55.8240 N.am      22 UNK        -0.5000 
    120 CA        -1.6291  -20.7507  -55.1343 C.3       22 UNK         0.1400 
    121 C         -1.2164  -22.2286  -54.8491 C.2       22 UNK         0.5000 
    122 N         -0.0383  -22.4638  -54.2841 N.am      22 UNK        -0.7600 
    123 O         -1.9616  -23.1752  -55.0931 O.2       22 UNK        -0.5000 
    124 C124       -0.4923  -19.9299  -55.8164 C.3       23 UNK        -0.0398 
    125 S125       -0.9002  -18.1591  -56.0059 S.3       23 UNK        -0.2404 
    126 C126        0.1689  -17.3912  -54.7486 C.3       23 UNK        -0.0205 
    127 H127        3.5052  -15.5901  -51.8520 H         1 UNK         0.0600 
    128 H128        2.1958  -16.1173  -52.9110 H         1 UNK         0.0600 
    129 H129        2.6509  -17.0937  -51.5092 H         1 UNK         0.0600 
    130 H130        1.1786  -16.9020  -49.8688 H         1 UNK         0.3000 
    131 H131       -0.0550  -16.1144  -48.2343 H         1 UNK         0.0600 
    132 H132       -1.6652  -13.9843  -49.0359 H         1 UNK         0.0800 
    133 H133       -1.2790  -14.6771  -50.5780 H         1 UNK         0.0800 
    134 H134       -3.7587  -17.5705  -50.7293 H         1 UNK         0.0800 
    135 H135       -3.3285  -16.0394  -51.4478 H         1 UNK         0.0800 
    136 H136       -1.9380  -16.4590  -53.3122 H         1 UNK         0.1150 
    137 H137        1.3995  -19.1281  -53.0386 H         1 UNK         0.1150 
    138 H138       -1.3180  -18.7484  -49.7454 H         1 UNK         0.1150 
    139 H139        0.3621  -20.7749  -50.0677 H         1 UNK         0.0800 
    140 H140        1.6967  -20.5192  -51.1445 H         1 UNK         0.0800 
    141 H141       -0.1173  -19.0678  -47.8995 H         1 UNK         0.0800 
    142 H142        1.2790  -18.6582  -46.9676 H         1 UNK         0.0800 
    143 H143        1.7931  -21.3456  -47.6216 H         1 UNK         0.0600 
    144 H144        1.4802  -19.9366  -45.2196 H         1 UNK         0.3000 
    145 H145        2.5907  -22.7832  -43.2798 H         1 UNK         0.0600 
    146 H146        4.2209  -21.0072  -42.7417 H         1 UNK         0.0600 
    147 H147        4.4315  -21.5567  -44.3967 H         1 UNK         0.0600 
    148 H148        3.6409  -20.0189  -44.0779 H         1 UNK         0.0600 
    149 H149        1.1604  -20.1578  -43.0588 H         1 UNK         0.3000 
    150 H150       -0.4124  -21.2755  -40.0825 H         1 UNK         0.0600 
    151 H151        1.6900  -20.3931  -39.0969 H         1 UNK         0.0600 
    152 H152        0.4320  -19.1670  -39.0765 H         1 UNK         0.0600 
    153 H153        1.7219  -19.0878  -40.2744 H         1 UNK         0.0600 
    154 H154       -0.4761  -18.7484  -41.3974 H         1 UNK         0.3000 
    155 H155       -3.2551  -19.5345  -43.5161 H         1 UNK         0.0600 
    156 H156       -2.9976  -17.9628  -40.9011 H         1 UNK         0.0600 
    157 H157       -4.2328  -17.7268  -42.1367 H         1 UNK         0.0600 
    158 H158       -4.1758  -19.2292  -41.2277 H         1 UNK         0.0600 
    159 H159       -1.4995  -17.2789  -42.7279 H         1 UNK         0.3000 
    160 H160       -0.0900  -17.0286  -45.9995 H         1 UNK         0.0600 
    161 H161       -0.9319  -14.7257  -45.7774 H         1 UNK         0.0600 
    162 H162       -1.9753  -15.1895  -44.4364 H         1 UNK         0.0600 
    163 H163       -2.2865  -15.8047  -46.0555 H         1 UNK         0.0600 
    164 H164        0.3925  -15.4673  -43.7117 H         1 UNK         0.3000 
    165 H165        2.5729  -17.6108  -41.9287 H         1 UNK         0.0600 
    166 H166        4.2531  -15.8430  -42.2318 H         1 UNK         0.0600 
    167 H167        4.0794  -16.7473  -43.7273 H         1 UNK         0.0600 
    168 H168        3.3410  -15.1543  -43.5714 H         1 UNK         0.0600 
    169 H169        2.1213  -14.9438  -41.3708 H         1 UNK         0.3000 
    170 H170       -0.9775  -14.9180  -39.8314 H         1 UNK         0.0600 
    171 H171        1.4885  -15.8095  -38.2439 H         1 UNK         0.0600 
    172 H172        0.0707  -14.9950  -37.5806 H         1 UNK         0.0600 
    173 H173       -0.0763  -16.6133  -38.2450 H         1 UNK         0.0600 
    174 H174        1.4824  -13.5459  -39.2092 H         1 UNK         0.3000 
    175 H175        0.4267  -10.7357  -40.3642 H         1 UNK         0.0600 
    176 H176        2.8366  -10.4536  -39.7345 H         1 UNK         0.0600 
    177 H177        3.1031  -12.1793  -39.9426 H         1 UNK         0.0600 
    178 H178        2.0103  -11.5915  -38.6913 H         1 UNK         0.0600 
    179 H179        1.0702  -10.2303  -42.4020 H         1 UNK         0.3000 
    180 H180        1.6055  -10.6149  -44.5535 H         1 UNK         0.0600 
    181 H181        4.5889  -10.2105  -43.9568 H         1 UNK         0.0600 
    182 H182        3.3033   -9.1157  -43.4654 H         1 UNK         0.0600 
    183 H183        3.6477   -9.3429  -45.1711 H         1 UNK         0.0600 
    184 H184        3.8291  -11.6949  -45.8115 H         1 UNK         0.3000 
    185 H185        3.3159  -13.0520  -47.5885 H         1 UNK         0.0600 
    186 H186        4.8407  -14.1378  -45.8431 H         1 UNK         0.0600 
    187 H187        3.7960  -15.5540  -45.8894 H         1 UNK         0.0600 
    188 H188        4.6769  -15.0578  -47.3294 H         1 UNK         0.0600 
    189 H189        2.2300  -15.6182  -47.6787 H         1 UNK         0.3000 
    190 H190       -1.2488  -20.7709  -45.8249 H         1 UNK         0.3000 
    191 H191       -3.0362  -21.8303  -47.6106 H         1 UNK         0.0600 
    192 H192       -3.6921  -20.6276  -45.5535 H         1 UNK         0.0600 
    193 H193       -4.5204  -22.1688  -45.6119 H         1 UNK         0.0600 
    194 H194       -3.1333  -21.9700  -44.5556 H         1 UNK         0.0600 
    195 H195       -0.8208  -23.7288  -45.6577 H         1 UNK         0.3000 
    196 H196       -2.2058  -26.2572  -45.9021 H         1 UNK         0.0600 
    197 H197       -0.0607  -27.1851  -45.0578 H         1 UNK         0.0600 
    198 H198       -0.5574  -25.8061  -44.0888 H         1 UNK         0.0600 
    199 H199        0.7304  -25.6304  -45.2808 H         1 UNK         0.0600 
    200 H200        0.0593  -24.4387  -47.9204 H         1 UNK         0.3000 
    201 H201        0.5318  -26.6993  -49.7723 H         1 UNK         0.0600 
    202 H202        2.4383  -25.2175  -49.1817 H         1 UNK         0.0600 
    203 H203        1.5609  -23.8098  -49.7764 H         1 UNK         0.0600 
    204 H204        2.0493  -25.0810  -50.8898 H         1 UNK         0.0600 
    205 H205       -1.0454  -23.4947  -49.6345 H         1 UNK         0.3000 
    206 H206       -2.0564  -23.6873  -52.3729 H         1 UNK         0.0600 
    207 H207       -1.1416  -21.5833  -51.6440 H         1 UNK         0.0600 
    208 H208       -2.8559  -21.3356  -51.8556 H         1 UNK         0.0600 
    209 H209       -2.1919  -21.5155  -50.2306 H         1 UNK         0.0600 
    210 H210       -3.1580  -25.4305  -50.0552 H         1 UNK         0.3000 
    211 H211       -5.0702  -26.4455  -49.5131 H         1 UNK         0.0600 
    212 H212       -5.9160  -25.5500  -52.3212 H         1 UNK         0.0600 
    213 H213       -6.6311  -26.8686  -51.4024 H         1 UNK         0.0600 
    214 H214       -4.9612  -26.9806  -51.9360 H         1 UNK         0.0600 
    215 H215       -5.1365  -24.5019  -47.9886 H         1 UNK         0.3000 
    216 H216       -6.3245  -23.2422  -46.6347 H         1 UNK         0.0600 
    217 H217       -8.7480  -23.1225  -46.6089 H         1 UNK         0.0600 
    218 H218       -8.2839  -24.7759  -46.9740 H         1 UNK         0.0600 
    219 H219       -8.8708  -23.7149  -48.2555 H         1 UNK         0.0600 
    220 H220       -4.8763  -22.2821  -48.8597 H         1 UNK         0.3000 
    221 H221       -4.1461  -20.3677  -49.7223 H         1 UNK         0.0600 
    222 H222       -6.0058  -19.0048  -47.7112 H         1 UNK         0.0600 
    223 H223       -4.3166  -19.4443  -47.4585 H         1 UNK         0.0600 
    224 H224       -4.7374  -18.2066  -48.6198 H         1 UNK         0.0600 
    225 H225       -5.6938  -21.6158  -51.4083 H         1 UNK         0.3000 
    226 H226       -7.8196  -19.9932  -52.5326 H         1 UNK         0.0600 
    227 H227       -7.6975  -22.4946  -52.7824 H         1 UNK         0.0600 
    228 H228       -7.7213  -21.6903  -54.3449 H         1 UNK         0.0600 
    229 H229       -6.2094  -22.3293  -53.7104 H         1 UNK         0.0600 
    230 H230       -7.7357  -18.8611  -54.5144 H         1 UNK         0.3000 
    231 H231       -5.4711  -17.2244  -54.9960 H         1 UNK         0.0600 
    232 H232       -7.9884  -17.7020  -56.6829 H         1 UNK         0.0600 
    233 H233       -6.8755  -16.3526  -56.8722 H         1 UNK         0.0600 
    234 H234       -7.8151  -16.5056  -55.3974 H         1 UNK         0.0600 
    235 H235       -6.1155  -20.3841  -56.1283 H         1 UNK         0.3000 
    236 H236       -4.5967  -20.3580  -58.5864 H         1 UNK         0.0600 
    237 H237       -6.3552  -22.0567  -58.1121 H         1 UNK         0.0600 
    238 H238       -4.8009  -22.8364  -58.3570 H         1 UNK         0.0600 
    239 H239       -5.4360  -22.6502  -56.7272 H         1 UNK         0.0600 
    240 H240       -3.6804  -20.2742  -55.2471 H         1 UNK         0.3000 
    241 H241       -1.8013  -20.3164  -54.1486 H         1 UNK         0.0600 
    242 H242        0.6008  -21.7245  -54.0440 H         1 UNK         0.3800 
    243 H243        0.2216  -23.4194  -54.0981 H         1 UNK         0.3800 
    244 H244        0.4373  -20.0085  -55.2534 H         1 UNK         0.0800 
    245 H245       -0.2649  -20.3336  -56.8033 H         1 UNK         0.0800 
    246 H246        0.1140  -16.3069  -54.8552 H         1 UNK         0.0800 
    247 H247        1.2087  -17.6615  -54.9387 H         1 UNK         0.0800 
@<TRIPOS>BOND
     1    1    2 1    
     2    1  127 1    
     3    1  128 1    
     4    1  129 1    
     5    2    3 2    
     6    2    4 am   BACKBONE|DICT|INTERRES
     7    4    5 1    
     8    4  130 1    
     9    5    6 1    
    10    5   65 1    
    11    5  131 1    
    12    6    7 1    
    13    6  132 1    
    14    6  133 1    
    15    7    8 1    
    16    8    9 1    
    17    8  134 1    
    18    8  135 1    
    19    9   10 ar   
    20    9   14 ar   
    21   10   11 ar   
    22   10  136 1    
    23   11   12 ar   
    24   11  126 1    
    25   12   13 ar   
    26   12  137 1    
    27   13   14 ar   
    28   13   15 1    
    29   14  138 1    
    30   15   16 1    
    31   15  139 1    
    32   15  140 1    
    33   16   17 1    
    34   17   18 1    
    35   17  141 1    
    36   17  142 1    
    37   18   19 1    
    38   18   67 1    
    39   18  143 1    
    40   19   20 am   BACKBONE|DICT|INTERRES
    41   19  144 1    
    42   20   21 2    
    43   20   22 1    
    44   22   23 1    
    45   22   24 1    
    46   22  145 1    
    47   23  146 1    
    48   23  147 1    
    49   23  148 1    
    50   24   25 am   BACKBONE|DICT|INTERRES
    51   24  149 1    
    52   25   26 2    
    53   25   27 1    
    54   27   28 1    
    55   27   29 1    
    56   27  150 1    
    57   28  151 1    
    58   28  152 1    
    59   28  153 1    
    60   29   30 am   BACKBONE|DICT|INTERRES
    61   29  154 1    
    62   30   31 2    
    63   30   32 1    
    64   32   33 1    
    65   32   34 1    
    66   32  155 1    
    67   33  156 1    
    68   33  157 1    
    69   33  158 1    
    70   34   35 am   BACKBONE|DICT|INTERRES
    71   34  159 1    
    72   35   36 2    
    73   35   37 1    
    74   37   38 1    
    75   37   39 1    
    76   37  160 1    
    77   38  161 1    
    78   38  162 1    
    79   38  163 1    
    80   39   40 am   BACKBONE|DICT|INTERRES
    81   39  164 1    
    82   40   41 2    
    83   40   42 1    
    84   42   43 1    
    85   42   44 1    
    86   42  165 1    
    87   43  166 1    
    88   43  167 1    
    89   43  168 1    
    90   44   45 am   BACKBONE|DICT|INTERRES
    91   44  169 1    
    92   45   46 2    
    93   45   47 1    
    94   47   48 1    
    95   47   49 1    
    96   47  170 1    
    97   48  171 1    
    98   48  172 1    
    99   48  173 1    
   100   49   50 am   BACKBONE|DICT|INTERRES
   101   49  174 1    
   102   50   51 2    
   103   50   52 1    
   104   52   53 1    
   105   52   54 1    
   106   52  175 1    
   107   53  176 1    
   108   53  177 1    
   109   53  178 1    
   110   54   55 am   BACKBONE|DICT|INTERRES
   111   54  179 1    
   112   55   56 2    
   113   55   57 1    
   114   57   58 1    
   115   57   59 1    
   116   57  180 1    
   117   58  181 1    
   118   58  182 1    
   119   58  183 1    
   120   59   60 am   BACKBONE|DICT|INTERRES
   121   59  184 1    
   122   60   61 2    
   123   60   62 1    
   124   62   63 1    
   125   62   64 1    
   126   62  185 1    
   127   63  186 1    
   128   63  187 1    
   129   63  188 1    
   130   64   65 am   BACKBONE|DICT|INTERRES
   131   64  189 1    
   132   65   66 2    
   133   67   68 2    
   134   67   69 am   BACKBONE|DICT|INTERRES
   135   69   70 1    
   136   69  190 1    
   137   70   71 1    
   138   70   72 1    
   139   70  191 1    
   140   71  192 1    
   141   71  193 1    
   142   71  194 1    
   143   72   73 2    
   144   72   74 am   BACKBONE|DICT|INTERRES
   145   74   75 1    
   146   74  195 1    
   147   75   76 1    
   148   75   77 1    
   149   75  196 1    
   150   76  197 1    
   151   76  198 1    
   152   76  199 1    
   153   77   78 2    
   154   77   79 am   BACKBONE|DICT|INTERRES
   155   79   80 1    
   156   79  200 1    
   157   80   81 1    
   158   80   82 1    
   159   80  201 1    
   160   81  202 1    
   161   81  203 1    
   162   81  204 1    
   163   82   83 2    
   164   82   84 am   BACKBONE|DICT|INTERRES
   165   84   85 1    
   166   84  205 1    
   167   85   86 1    
   168   85   87 1    
   169   85  206 1    
   170   86  207 1    
   171   86  208 1    
   172   86  209 1    
   173   87   88 2    
   174   87   89 am   BACKBONE|DICT|INTERRES
   175   89   90 1    
   176   89  210 1    
   177   90   91 1    
   178   90   92 1    
   179   90  211 1    
   180   91  212 1    
   181   91  213 1    
   182   91  214 1    
   183   92   93 2    
   184   92   94 am   BACKBONE|DICT|INTERRES
   185   94   95 1    
   186   94  215 1    
   187   95   96 1    
   188   95   97 1    
   189   95  216 1    
   190   96  217 1    
   191   96  218 1    
   192   96  219 1    
   193   97   98 2    
   194   97   99 am   BACKBONE|DICT|INTERRES
   195   99  100 1    
   196   99  220 1    
   197  100  101 1    
   198  100  102 1    
   199  100  221 1    
   200  101  222 1    
   201  101  223 1    
   202  101  224 1    
   203  102  103 2    
   204  102  104 am   BACKBONE|DICT|INTERRES
   205  104  105 1    
   206  104  225 1    
   207  105  106 1    
   208  105  107 1    
   209  105  226 1    
   210  106  227 1    
   211  106  228 1    
   212  106  229 1    
   213  107  108 2    
   214  107  109 am   BACKBONE|DICT|INTERRES
   215  109  110 1    
   216  109  230 1    
   217  110  111 1    
   218  110  112 1    
   219  110  231 1    
   220  111  232 1    
   221  111  233 1    
   222  111  234 1    
   223  112  113 2    
   224  112  114 am   BACKBONE|DICT|INTERRES
   225  114  115 1    
   226  114  235 1    
   227  115  116 1    
   228  115  117 1    
   229  115  236 1    
   230  116  237 1    
   231  116  238 1    
   232  116  239 1    
   233  117  118 2    
   234  117  119 am   BACKBONE|DICT|INTERRES
   235  119  120 1    
   236  119  240 1    
   237  120  121 1    
   238  120  124 1    
   239  120  241 1    
   240  121  122 am   BACKBONE|DICT|INTERRES
   241  121  123 2    
   242  122  242 1    
   243  122  243 1    
   244  124  125 1    
   245  124  244 1    
   246  124  245 1    
   247  125  126 1    
   248  126  246 1    
   249  126  247 1    
@<TRIPOS>SUBSTRUCTURE
     1 UNK         1 GROUP             0       ****    0 ROOT    
