@<TRIPOS>MOLECULE
3R540
247   249    1
SMALL
USER_CHARGES


@<TRIPOS>ATOM
      1 CA         -2.1545   -9.0014  -43.3269 C.3       0 UNK        -0.1800 
      2 C          -1.7058  -10.3540  -43.8599 C.2       0 UNK         0.5000 
      3 O          -1.6413  -10.5442  -45.0731 O.2       0 UNK        -0.5000 
      4 N          -1.3701  -11.2897  -42.9610 N.am      1 UNK        -0.5000 
      5 CA         -0.9532  -12.6659  -43.2755 C.3       1 UNK         0.1400 
      6 C6         -0.9734  -13.5544  -42.0028 C.3       23 UNK        -0.0398 
      7 S7         -1.3233  -15.3117  -42.3498 S.3       23 UNK        -0.2404 
      8 C8         -3.1362  -15.3060  -42.5256 C.3       23 UNK        -0.0205 
      9 C9         -3.5900  -16.0464  -43.7775 C.ar      23 UNK        -0.0193 
     10 C10        -3.5086  -15.4239  -45.0254 C.ar      23 UNK        -0.1150 
     11 C11        -3.9829  -16.0623  -46.1732 C.ar      23 UNK        -0.0193 
     12 C12        -4.5458  -17.3373  -46.0677 C.ar      23 UNK        -0.1150 
     13 C13        -4.6206  -17.9874  -44.8275 C.ar      23 UNK        -0.0193 
     14 C14        -4.1357  -17.3313  -43.6893 C.ar      23 UNK        -0.1150 
     15 C15        -5.2583  -19.3712  -44.6642 C.3       23 UNK        -0.0205 
     16 S16        -5.2301  -20.4353  -46.1514 S.3       23 UNK        -0.2404 
     17 C17        -3.4369  -20.6474  -46.3849 C.3       23 UNK        -0.0398 
     18 CA         -2.9520  -22.1151  -46.3107 C.3       11 UNK         0.1400 
     19 N          -1.5925  -22.2497  -46.8418 N.am      11 UNK        -0.5000 
     20 C          -0.9371  -23.3995  -47.0431 C.2       10 UNK         0.5000 
     21 O          -1.4400  -24.5043  -46.8600 O.2       10 UNK        -0.5000 
     22 CA          0.5370  -23.3034  -47.4799 C.3       10 UNK         0.1400 
     23 CB          0.6544  -23.1461  -49.0013 C.3       10 UNK        -0.1800 
     24 N           1.2469  -22.2123  -46.8113 N.am      10 UNK        -0.5000 
     25 C           1.4794  -22.1687  -45.4909 C.2       9 UNK         0.5000 
     26 O           1.1897  -23.0810  -44.7172 O.2       9 UNK        -0.5000 
     27 CA          2.0697  -20.8613  -44.9335 C.3       9 UNK         0.1400 
     28 CB          3.5910  -20.8124  -45.1368 C.3       9 UNK        -0.1800 
     29 N           1.4452  -19.6791  -45.5301 N.am      9 UNK        -0.5000 
     30 C           0.1519  -19.3570  -45.3829 C.2       8 UNK         0.5000 
     31 O          -0.6183  -19.9792  -44.6528 O.2       8 UNK        -0.5000 
     32 CA         -0.3858  -18.1885  -46.2282 C.3       8 UNK         0.1400 
     33 CB         -0.1178  -16.8526  -45.5341 C.3       8 UNK        -0.1800 
     34 N           0.1850  -18.1615  -47.5711 N.am      8 UNK        -0.5000 
     35 C          -0.0314  -19.0809  -48.5186 C.2       7 UNK         0.5000 
     36 O          -0.7953  -20.0331  -48.3789 O.2       7 UNK        -0.5000 
     37 CA          0.7809  -18.9464  -49.8170 C.3       7 UNK         0.1400 
     38 CB          0.0740  -18.0384  -50.8293 C.3       7 UNK        -0.1800 
     39 N           2.1254  -18.4358  -49.5618 N.am      7 UNK        -0.5000 
     40 C           3.1115  -19.1622  -49.0212 C.2       6 UNK         0.5000 
     41 O           2.9939  -20.3482  -48.7099 O.2       6 UNK        -0.5000 
     42 CA          4.4378  -18.4254  -48.7565 C.3       6 UNK         0.1400 
     43 CB          5.2890  -18.3660  -50.0336 C.3       6 UNK        -0.1800 
     44 N           4.2378  -17.0677  -48.2421 N.am      6 UNK        -0.5000 
     45 C           3.7493  -16.7948  -47.0245 C.2       5 UNK         0.5000 
     46 O           3.4298  -17.6610  -46.2118 O.2       5 UNK        -0.5000 
     47 CA          3.5571  -15.3103  -46.6592 C.3       5 UNK         0.1400 
     48 CB          4.8747  -14.7141  -46.1411 C.3       5 UNK        -0.1800 
     49 N           3.0372  -14.4612  -47.7363 N.am      5 UNK        -0.5000 
     50 C           1.9266  -14.6898  -48.4478 C.2       4 UNK         0.5000 
     51 O           1.2767  -15.7330  -48.3997 O.2       4 UNK        -0.5000 
     52 CA          1.4539  -13.5674  -49.3767 C.3       4 UNK         0.1400 
     53 CB          1.5195  -14.0209  -50.8437 C.3       4 UNK        -0.1800 
     54 N           0.0635  -13.2736  -49.0363 N.am      4 UNK        -0.5000 
     55 C          -0.4638  -12.1852  -48.4589 C.2       3 UNK         0.5000 
     56 O          -1.6542  -12.1615  -48.1496 O.2       3 UNK        -0.5000 
     57 CA          0.4071  -10.9497  -48.1398 C.3       3 UNK         0.1400 
     58 CB         -0.3871   -9.6395  -48.2941 C.3       3 UNK        -0.1800 
     59 N           0.8631  -11.0497  -46.7568 N.am      3 UNK        -0.5000 
     60 C           2.1070  -11.3584  -46.3657 C.2       2 UNK         0.5000 
     61 O           3.0385  -11.5465  -47.1494 O.2       2 UNK        -0.5000 
     62 CA          2.3758  -11.4855  -44.8500 C.3       2 UNK         0.1400 
     63 CB          3.1406  -10.2563  -44.3366 C.3       2 UNK        -0.1800 
     64 N           1.1645  -11.6557  -44.0469 N.am      2 UNK        -0.5000 
     65 C           0.3906  -12.7506  -44.0441 C.2       1 UNK         0.5000 
     66 O           0.6869  -13.7780  -44.6515 O.2       1 UNK        -0.5000 
     67 C          -3.0615  -22.7009  -44.8876 C.2       11 UNK         0.5000 
     68 O          -3.9477  -23.5173  -44.6349 O.2       11 UNK        -0.5000 
     69 N          -2.1185  -22.3327  -44.0084 N.am      12 UNK        -0.5000 
     70 CA         -1.9931  -22.8544  -42.6451 C.3       12 UNK         0.1400 
     71 CB         -0.9059  -22.0663  -41.8996 C.3       12 UNK        -0.1800 
     72 C          -1.7049  -24.3689  -42.5956 C.2       12 UNK         0.5000 
     73 O          -2.2112  -25.0549  -41.7073 O.2       12 UNK        -0.5000 
     74 N          -0.9319  -24.8677  -43.5697 N.am      13 UNK        -0.5000 
     75 CA         -0.6386  -26.2891  -43.7712 C.3       13 UNK         0.1400 
     76 CB          0.6443  -26.4121  -44.6095 C.3       13 UNK        -0.1800 
     77 C          -1.7914  -27.0775  -44.4323 C.2       13 UNK         0.5000 
     78 O          -1.6894  -28.3004  -44.5379 O.2       13 UNK        -0.5000 
     79 N          -2.8468  -26.3781  -44.8784 N.am      14 UNK        -0.5000 
     80 CA         -4.0135  -26.8795  -45.6136 C.3       14 UNK         0.1400 
     81 CB         -4.8306  -27.8710  -44.7594 C.3       14 UNK        -0.1800 
     82 C          -3.6674  -27.4285  -47.0157 C.2       14 UNK         0.5000 
     83 O          -4.3777  -28.2894  -47.5372 O.2       14 UNK        -0.5000 
     84 N          -2.6058  -26.8898  -47.6275 N.am      15 UNK        -0.5000 
     85 CA         -2.1175  -27.2146  -48.9664 C.3       15 UNK         0.1400 
     86 CB         -0.5787  -27.1808  -48.9517 C.3       15 UNK        -0.1800 
     87 C          -2.7285  -26.2597  -50.0118 C.2       15 UNK         0.5000 
     88 O          -2.0047  -25.6364  -50.7927 O.2       15 UNK        -0.5000 
     89 N          -4.0647  -26.1371  -49.9773 N.am      16 UNK        -0.5000 
     90 CA         -4.9317  -25.4000  -50.9081 C.3       16 UNK         0.1400 
     91 CB         -4.9726  -26.1308  -52.2668 C.3       16 UNK        -0.1800 
     92 C          -4.5928  -23.9018  -51.0746 C.2       16 UNK         0.5000 
     93 O          -4.9111  -23.3233  -52.1141 O.2       16 UNK        -0.5000 
     94 N          -3.9181  -23.3069  -50.0784 N.am      17 UNK        -0.5000 
     95 CA         -3.3685  -21.9439  -50.0891 C.3       17 UNK         0.1400 
     96 CB         -4.5010  -20.9005  -50.0144 C.3       17 UNK        -0.1800 
     97 C          -2.3923  -21.6972  -51.2596 C.2       17 UNK         0.5000 
     98 O          -2.4022  -20.6159  -51.8509 O.2       17 UNK        -0.5000 
     99 N          -1.6015  -22.7331  -51.5887 N.am      18 UNK        -0.5000 
    100 CA        -0.6788  -22.8189  -52.7250 C.3       18 UNK         0.1400 
    101 CB         0.5065  -21.8444  -52.5603 C.3       18 UNK        -0.1800 
    102 C         -1.4164  -22.6768  -54.0722 C.2       18 UNK         0.5000 
    103 O         -1.0075  -21.8923  -54.9279 O.2       18 UNK        -0.5000 
    104 N         -2.5145  -23.4356  -54.2081 N.am      19 UNK        -0.5000 
    105 CA        -3.4663  -23.4331  -55.3244 C.3       19 UNK         0.1400 
    106 CB        -2.7994  -23.9136  -56.6306 C.3       19 UNK        -0.1800 
    107 C         -4.1859  -22.0755  -55.4620 C.2       19 UNK         0.5000 
    108 O         -4.2160  -21.4873  -56.5445 O.2       19 UNK        -0.5000 
    109 N         -4.7456  -21.6115  -54.3356 N.am      20 UNK        -0.5000 
    110 CA        -5.5131  -20.3759  -54.1514 C.3       20 UNK         0.1400 
    111 CB        -6.8239  -20.4206  -54.9637 C.3       20 UNK        -0.1800 
    112 C         -4.7103  -19.0794  -54.3921 C.2       20 UNK         0.5000 
    113 O         -5.3108  -18.0288  -54.6268 O.2       20 UNK        -0.5000 
    114 N         -3.3753  -19.1469  -54.2902 N.am      21 UNK        -0.5000 
    115 CA        -2.4643  -18.0143  -54.4783 C.3       21 UNK         0.1400 
    116 CB        -1.0169  -18.5210  -54.5238 C.3       21 UNK        -0.1800 
    117 C         -2.6216  -16.9162  -53.4102 C.2       21 UNK         0.5000 
    118 O         -2.3597  -15.7495  -53.7053 O.2       21 UNK        -0.5000 
    119 N         -3.0758  -17.2996  -52.2088 N.am      22 UNK        -0.5000 
    120 CA        -3.4578  -16.3698  -51.1333 C.3       22 UNK         0.1400 
    121 C         -4.8474  -15.6893  -51.3438 C.2       22 UNK         0.5000 
    122 N         -5.6293  -16.0444  -52.3582 N.am      22 UNK        -0.7600 
    123 O         -5.2248  -14.8053  -50.5816 O.2       22 UNK        -0.5000 
    124 C124       -3.3232  -17.0238  -49.7263 C.3       23 UNK        -0.0398 
    125 S125       -2.5156  -15.9110  -48.5246 S.3       23 UNK        -0.2404 
    126 C126       -3.9220  -15.3491  -47.5154 C.3       23 UNK        -0.0205 
    127 H127       -1.4937   -8.2159  -43.6938 H         1 UNK         0.0600 
    128 H128       -2.1471   -8.9716  -42.2371 H         1 UNK         0.0600 
    129 H129       -3.1668   -8.7827  -43.6665 H         1 UNK         0.0600 
    130 H130       -1.4253  -11.0624  -41.9779 H         1 UNK         0.3000 
    131 H131       -1.7093  -13.0468  -43.9628 H         1 UNK         0.0600 
    132 H132       -0.0294  -13.4823  -41.4598 H         1 UNK         0.0800 
    133 H133       -1.7361  -13.2080  -41.3038 H         1 UNK         0.0800 
    134 H134       -3.5122  -14.2827  -42.5665 H         1 UNK         0.0800 
    135 H135       -3.5779  -15.7533  -41.6340 H         1 UNK         0.0800 
    136 H136       -3.0899  -14.4318  -45.1044 H         1 UNK         0.1150 
    137 H137       -4.9316  -17.8131  -46.9571 H         1 UNK         0.1150 
    138 H138       -4.2049  -17.8140  -42.7244 H         1 UNK         0.1150 
    139 H139       -4.7691  -19.9104  -43.8511 H         1 UNK         0.0800 
    140 H140       -6.2968  -19.2338  -44.3610 H         1 UNK         0.0800 
    141 H141       -2.9058  -20.0307  -45.6635 H         1 UNK         0.0800 
    142 H142       -3.2023  -20.2236  -47.3611 H         1 UNK         0.0800 
    143 H143       -3.5990  -22.7134  -46.9553 H         1 UNK         0.0600 
    144 H144       -1.1259  -21.3857  -47.1034 H         1 UNK         0.3000 
    145 H145        1.0257  -24.2391  -47.2023 H         1 UNK         0.0600 
    146 H146        1.6978  -23.1417  -49.3167 H         1 UNK         0.0600 
    147 H147        0.1609  -23.9673  -49.5216 H         1 UNK         0.0600 
    148 H148        0.1991  -22.2202  -49.3481 H         1 UNK         0.0600 
    149 H149        1.5471  -21.4351  -47.3871 H         1 UNK         0.3000 
    150 H150        1.8711  -20.8389  -43.8600 H         1 UNK         0.0600 
    151 H151        4.0723  -21.6840  -44.6915 H         1 UNK         0.0600 
    152 H152        4.0218  -19.9282  -44.6669 H         1 UNK         0.0600 
    153 H153        3.8586  -20.7929  -46.1931 H         1 UNK         0.0600 
    154 H154        2.0454  -19.0706  -46.0778 H         1 UNK         0.3000 
    155 H155       -1.4666  -18.3026  -46.3265 H         1 UNK         0.0600 
    156 H156        0.9473  -16.6659  -45.4044 H         1 UNK         0.0600 
    157 H157       -0.5748  -16.8482  -44.5475 H         1 UNK         0.0600 
    158 H158       -0.5410  -16.0181  -46.0936 H         1 UNK         0.0600 
    159 H159        0.7566  -17.3520  -47.8048 H         1 UNK         0.3000 
    160 H160        0.8684  -19.9398  -50.2602 H         1 UNK         0.0600 
    161 H161        0.6778  -17.8922  -51.7248 H         1 UNK         0.0600 
    162 H162       -0.1537  -17.0578  -50.4101 H         1 UNK         0.0600 
    163 H163       -0.8637  -18.4916  -51.1452 H         1 UNK         0.0600 
    164 H164        2.2700  -17.4468  -49.7066 H         1 UNK         0.3000 
    165 H165        4.9897  -18.9967  -48.0069 H         1 UNK         0.0600 
    166 H166        6.2631  -17.9178  -49.8374 H         1 UNK         0.0600 
    167 H167        5.4667  -19.3666  -50.4303 H         1 UNK         0.0600 
    168 H168        4.8026  -17.7837  -50.8172 H         1 UNK         0.0600 
    169 H169        4.4716  -16.3002  -48.8544 H         1 UNK         0.3000 
    170 H170        2.8293  -15.2681  -45.8469 H         1 UNK         0.0600 
    171 H171        5.2683  -15.2996  -45.3090 H         1 UNK         0.0600 
    172 H172        5.6391  -14.6926  -46.9188 H         1 UNK         0.0600 
    173 H173        4.7360  -13.6947  -45.7818 H         1 UNK         0.0600 
    174 H174        3.4677  -13.5476  -47.8171 H         1 UNK         0.3000 
    175 H175        2.1150  -12.7124  -49.2664 H         1 UNK         0.0600 
    176 H176        0.8846  -14.8877  -51.0316 H         1 UNK         0.0600 
    177 H177        1.1985  -13.2238  -51.5144 H         1 UNK         0.0600 
    178 H178        2.5381  -14.2918  -51.1244 H         1 UNK         0.0600 
    179 H179       -0.5444  -14.0761  -49.1274 H         1 UNK         0.3000 
    180 H180        1.2421  -10.8708  -48.8337 H         1 UNK         0.0600 
    181 H181       -1.2366   -9.5905  -47.6119 H         1 UNK         0.0600 
    182 H182       -0.7740   -9.5367  -49.3086 H         1 UNK         0.0600 
    183 H183        0.2448   -8.7733  -48.0976 H         1 UNK         0.0600 
    184 H184        0.1343  -10.9527  -46.0568 H         1 UNK         0.3000 
    185 H185        3.0049  -12.3653  -44.7031 H         1 UNK         0.0600 
    186 H186        4.0712  -10.1160  -44.8883 H         1 UNK         0.0600 
    187 H187        2.5538   -9.3433  -44.4452 H         1 UNK         0.0600 
    188 H188        3.4028  -10.3652  -43.2840 H         1 UNK         0.0600 
    189 H189        0.8473  -10.8495  -43.5287 H         1 UNK         0.3000 
    190 H190       -1.4426  -21.6241  -44.2860 H         1 UNK         0.3000 
    191 H191       -2.9449  -22.6838  -42.1380 H         1 UNK         0.0600 
    192 H192       -0.8132  -22.4077  -40.8679 H         1 UNK         0.0600 
    193 H193       -1.1405  -21.0019  -41.8713 H         1 UNK         0.0600 
    194 H194        0.0697  -22.1801  -42.3729 H         1 UNK         0.0600 
    195 H195       -0.4979  -24.2217  -44.2200 H         1 UNK         0.3000 
    196 H196       -0.4508  -26.7452  -42.7972 H         1 UNK         0.0600 
    197 H197        0.9445  -27.4550  -44.7175 H         1 UNK         0.0600 
    198 H198        1.4749  -25.8828  -44.1422 H         1 UNK         0.0600 
    199 H199        0.5087  -26.0063  -45.6118 H         1 UNK         0.0600 
    200 H200       -2.8266  -25.3731  -44.7532 H         1 UNK         0.3000 
    201 H201       -4.6457  -26.0081  -45.7887 H         1 UNK         0.0600 
    202 H202       -5.0580  -27.4518  -43.7793 H         1 UNK         0.0600 
    203 H203       -4.3007  -28.8117  -44.6084 H         1 UNK         0.0600 
    204 H204       -5.7816  -28.1073  -45.2380 H         1 UNK         0.0600 
    205 H205       -2.1288  -26.1158  -47.1664 H         1 UNK         0.3000 
    206 H206       -2.4239  -28.2270  -49.2367 H         1 UNK         0.0600 
    207 H207       -0.1786  -27.8928  -48.2296 H         1 UNK         0.0600 
    208 H208       -0.1699  -27.4440  -49.9280 H         1 UNK         0.0600 
    209 H209       -0.1983  -26.1942  -48.6893 H         1 UNK         0.0600 
    210 H210       -4.5506  -26.6824  -49.2770 H         1 UNK         0.3000 
    211 H211       -5.9356  -25.4328  -50.4830 H         1 UNK         0.0600 
    212 H212       -4.0074  -26.0959  -52.7731 H         1 UNK         0.0600 
    213 H213       -5.7105  -25.6854  -52.9353 H         1 UNK         0.0600 
    214 H214       -5.2463  -27.1785  -52.1418 H         1 UNK         0.0600 
    215 H215       -3.6841  -23.8749  -49.2773 H         1 UNK         0.3000 
    216 H216       -2.7674  -21.8414  -49.1897 H         1 UNK         0.0600 
    217 H217       -4.0991  -19.8962  -49.8874 H         1 UNK         0.0600 
    218 H218       -5.1587  -21.0946  -49.1678 H         1 UNK         0.0600 
    219 H219       -5.1120  -20.8992  -50.9158 H         1 UNK         0.0600 
    220 H220       -1.7250  -23.6027  -51.0800 H         1 UNK         0.3000 
    221 H221       -0.2701  -23.8304  -52.7118 H         1 UNK         0.0600 
    222 H222        0.1802  -20.8074  -52.5113 H         1 UNK         0.0600 
    223 H223        1.0703  -22.0595  -51.6540 H         1 UNK         0.0600 
    224 H224        1.2022  -21.9288  -53.3957 H         1 UNK         0.0600 
    225 H225       -2.7794  -24.0094  -53.4201 H         1 UNK         0.3000 
    226 H226       -4.2379  -24.1606  -55.0675 H         1 UNK         0.0600 
    227 H227       -3.5387  -24.0265  -57.4243 H         1 UNK         0.0600 
    228 H228       -2.0449  -23.2123  -56.9877 H         1 UNK         0.0600 
    229 H229       -2.3193  -24.8825  -56.4944 H         1 UNK         0.0600 
    230 H230       -4.6801  -22.1980  -53.5043 H         1 UNK         0.3000 
    231 H231       -5.7901  -20.3563  -53.0975 H         1 UNK         0.0600 
    232 H232       -7.3811  -21.3356  -54.7625 H         1 UNK         0.0600 
    233 H233       -6.6377  -20.3690  -56.0367 H         1 UNK         0.0600 
    234 H234       -7.4749  -19.5845  -54.7056 H         1 UNK         0.0600 
    235 H235       -2.9539  -20.0271  -54.0214 H         1 UNK         0.3000 
    236 H236       -2.6936  -17.5614  -55.4450 H         1 UNK         0.0600 
    237 H237       -0.8660  -19.2066  -55.3574 H         1 UNK         0.0600 
    238 H238       -0.3139  -17.6967  -54.6496 H         1 UNK         0.0600 
    239 H239       -0.7512  -19.0433  -53.6063 H         1 UNK         0.0600 
    240 H240       -3.2449  -18.2845  -52.0540 H         1 UNK         0.3000 
    241 H241       -2.7394  -15.5491  -51.1824 H         1 UNK         0.0600 
    242 H242       -6.5167  -15.5812  -52.4727 H         1 UNK         0.3800 
    243 H243       -5.3428  -16.7384  -53.0384 H         1 UNK         0.3800 
    244 H244       -4.2831  -17.3750  -49.3444 H         1 UNK         0.0800 
    245 H245       -2.6969  -17.9142  -49.7744 H         1 UNK         0.0800 
    246 H246       -3.8212  -14.2731  -47.3645 H         1 UNK         0.0800 
    247 H247       -4.8631  -15.4861  -48.0480 H         1 UNK         0.0800 
@<TRIPOS>BOND
     1    1    2 1    
     2    1  127 1    
     3    1  128 1    
     4    1  129 1    
     5    2    3 2    
     6    2    4 am   BACKBONE|DICT|INTERRES
     7    4    5 1    
     8    4  130 1    
     9    5    6 1    
    10    5   65 1    
    11    5  131 1    
    12    6    7 1    
    13    6  132 1    
    14    6  133 1    
    15    7    8 1    
    16    8    9 1    
    17    8  134 1    
    18    8  135 1    
    19    9   10 ar   
    20    9   14 ar   
    21   10   11 ar   
    22   10  136 1    
    23   11   12 ar   
    24   11  126 1    
    25   12   13 ar   
    26   12  137 1    
    27   13   14 ar   
    28   13   15 1    
    29   14  138 1    
    30   15   16 1    
    31   15  139 1    
    32   15  140 1    
    33   16   17 1    
    34   17   18 1    
    35   17  141 1    
    36   17  142 1    
    37   18   19 1    
    38   18   67 1    
    39   18  143 1    
    40   19   20 am   BACKBONE|DICT|INTERRES
    41   19  144 1    
    42   20   21 2    
    43   20   22 1    
    44   22   23 1    
    45   22   24 1    
    46   22  145 1    
    47   23  146 1    
    48   23  147 1    
    49   23  148 1    
    50   24   25 am   BACKBONE|DICT|INTERRES
    51   24  149 1    
    52   25   26 2    
    53   25   27 1    
    54   27   28 1    
    55   27   29 1    
    56   27  150 1    
    57   28  151 1    
    58   28  152 1    
    59   28  153 1    
    60   29   30 am   BACKBONE|DICT|INTERRES
    61   29  154 1    
    62   30   31 2    
    63   30   32 1    
    64   32   33 1    
    65   32   34 1    
    66   32  155 1    
    67   33  156 1    
    68   33  157 1    
    69   33  158 1    
    70   34   35 am   BACKBONE|DICT|INTERRES
    71   34  159 1    
    72   35   36 2    
    73   35   37 1    
    74   37   38 1    
    75   37   39 1    
    76   37  160 1    
    77   38  161 1    
    78   38  162 1    
    79   38  163 1    
    80   39   40 am   BACKBONE|DICT|INTERRES
    81   39  164 1    
    82   40   41 2    
    83   40   42 1    
    84   42   43 1    
    85   42   44 1    
    86   42  165 1    
    87   43  166 1    
    88   43  167 1    
    89   43  168 1    
    90   44   45 am   BACKBONE|DICT|INTERRES
    91   44  169 1    
    92   45   46 2    
    93   45   47 1    
    94   47   48 1    
    95   47   49 1    
    96   47  170 1    
    97   48  171 1    
    98   48  172 1    
    99   48  173 1    
   100   49   50 am   BACKBONE|DICT|INTERRES
   101   49  174 1    
   102   50   51 2    
   103   50   52 1    
   104   52   53 1    
   105   52   54 1    
   106   52  175 1    
   107   53  176 1    
   108   53  177 1    
   109   53  178 1    
   110   54   55 am   BACKBONE|DICT|INTERRES
   111   54  179 1    
   112   55   56 2    
   113   55   57 1    
   114   57   58 1    
   115   57   59 1    
   116   57  180 1    
   117   58  181 1    
   118   58  182 1    
   119   58  183 1    
   120   59   60 am   BACKBONE|DICT|INTERRES
   121   59  184 1    
   122   60   61 2    
   123   60   62 1    
   124   62   63 1    
   125   62   64 1    
   126   62  185 1    
   127   63  186 1    
   128   63  187 1    
   129   63  188 1    
   130   64   65 am   BACKBONE|DICT|INTERRES
   131   64  189 1    
   132   65   66 2    
   133   67   68 2    
   134   67   69 am   BACKBONE|DICT|INTERRES
   135   69   70 1    
   136   69  190 1    
   137   70   71 1    
   138   70   72 1    
   139   70  191 1    
   140   71  192 1    
   141   71  193 1    
   142   71  194 1    
   143   72   73 2    
   144   72   74 am   BACKBONE|DICT|INTERRES
   145   74   75 1    
   146   74  195 1    
   147   75   76 1    
   148   75   77 1    
   149   75  196 1    
   150   76  197 1    
   151   76  198 1    
   152   76  199 1    
   153   77   78 2    
   154   77   79 am   BACKBONE|DICT|INTERRES
   155   79   80 1    
   156   79  200 1    
   157   80   81 1    
   158   80   82 1    
   159   80  201 1    
   160   81  202 1    
   161   81  203 1    
   162   81  204 1    
   163   82   83 2    
   164   82   84 am   BACKBONE|DICT|INTERRES
   165   84   85 1    
   166   84  205 1    
   167   85   86 1    
   168   85   87 1    
   169   85  206 1    
   170   86  207 1    
   171   86  208 1    
   172   86  209 1    
   173   87   88 2    
   174   87   89 am   BACKBONE|DICT|INTERRES
   175   89   90 1    
   176   89  210 1    
   177   90   91 1    
   178   90   92 1    
   179   90  211 1    
   180   91  212 1    
   181   91  213 1    
   182   91  214 1    
   183   92   93 2    
   184   92   94 am   BACKBONE|DICT|INTERRES
   185   94   95 1    
   186   94  215 1    
   187   95   96 1    
   188   95   97 1    
   189   95  216 1    
   190   96  217 1    
   191   96  218 1    
   192   96  219 1    
   193   97   98 2    
   194   97   99 am   BACKBONE|DICT|INTERRES
   195   99  100 1    
   196   99  220 1    
   197  100  101 1    
   198  100  102 1    
   199  100  221 1    
   200  101  222 1    
   201  101  223 1    
   202  101  224 1    
   203  102  103 2    
   204  102  104 am   BACKBONE|DICT|INTERRES
   205  104  105 1    
   206  104  225 1    
   207  105  106 1    
   208  105  107 1    
   209  105  226 1    
   210  106  227 1    
   211  106  228 1    
   212  106  229 1    
   213  107  108 2    
   214  107  109 am   BACKBONE|DICT|INTERRES
   215  109  110 1    
   216  109  230 1    
   217  110  111 1    
   218  110  112 1    
   219  110  231 1    
   220  111  232 1    
   221  111  233 1    
   222  111  234 1    
   223  112  113 2    
   224  112  114 am   BACKBONE|DICT|INTERRES
   225  114  115 1    
   226  114  235 1    
   227  115  116 1    
   228  115  117 1    
   229  115  236 1    
   230  116  237 1    
   231  116  238 1    
   232  116  239 1    
   233  117  118 2    
   234  117  119 am   BACKBONE|DICT|INTERRES
   235  119  120 1    
   236  119  240 1    
   237  120  121 1    
   238  120  124 1    
   239  120  241 1    
   240  121  122 am   BACKBONE|DICT|INTERRES
   241  121  123 2    
   242  122  242 1    
   243  122  243 1    
   244  124  125 1    
   245  124  244 1    
   246  124  245 1    
   247  125  126 1    
   248  126  246 1    
   249  126  247 1    
@<TRIPOS>SUBSTRUCTURE
     1 UNK         1 GROUP             0       ****    0 ROOT    
