@<TRIPOS>MOLECULE
3R540
247   249    1
SMALL
USER_CHARGES


@<TRIPOS>ATOM
      1 CA         -2.1048  -15.8935  -44.9209 C.3       0 UNK        -0.1800 
      2 C          -2.1766  -15.1909  -46.2683 C.2       0 UNK         0.5000 
      3 O          -3.2690  -14.8808  -46.7408 O.2       0 UNK        -0.5000 
      4 N          -1.0176  -14.9364  -46.8884 N.am      1 UNK        -0.5000 
      5 CA         -0.8908  -14.3254  -48.2197 C.3       1 UNK         0.1400 
      6 C6          0.4675  -14.6531  -48.8998 C.3       23 UNK        -0.0398 
      7 S7          0.9569  -16.4120  -48.8296 S.3       23 UNK        -0.2404 
      8 C8         -0.3051  -17.2141  -49.8706 C.3       23 UNK        -0.0205 
      9 C9         -0.5895  -18.6314  -49.3982 C.ar      23 UNK        -0.0193 
     10 C10        -0.3945  -19.7217  -50.2512 C.ar      23 UNK        -0.1150 
     11 C11        -0.6669  -21.0213  -49.8128 C.ar      23 UNK        -0.0193 
     12 C12        -1.1275  -21.2256  -48.5097 C.ar      23 UNK        -0.1150 
     13 C13        -1.3081  -20.1455  -47.6412 C.ar      23 UNK        -0.0193 
     14 C14        -1.0552  -18.8509  -48.0982 C.ar      23 UNK        -0.1150 
     15 C15        -1.7449  -20.3676  -46.2024 C.3       23 UNK        -0.0205 
     16 S16        -0.2935  -20.5583  -45.1193 S.3       23 UNK        -0.2404 
     17 C17        -0.5700  -22.2063  -44.3856 C.3       23 UNK        -0.0398 
     18 CA         -0.4482  -23.3642  -45.4049 C.3       11 UNK         0.1400 
     19 N           0.8443  -23.3978  -46.1008 N.am      11 UNK        -0.5000 
     20 C           1.0841  -24.1008  -47.2199 C.2       10 UNK         0.5000 
     21 O           0.2245  -24.7779  -47.7839 O.2       10 UNK        -0.5000 
     22 CA          2.5214  -24.1098  -47.7809 C.3       10 UNK         0.1400 
     23 CB          2.6317  -23.1797  -48.9972 C.3       10 UNK        -0.1800 
     24 N           3.5431  -23.7330  -46.8049 N.am      10 UNK        -0.5000 
     25 C           3.8321  -24.3981  -45.6770 C.2       9 UNK         0.5000 
     26 O           3.2987  -25.4603  -45.3561 O.2       9 UNK        -0.5000 
     27 CA          4.8380  -23.7236  -44.7198 C.3       9 UNK         0.1400 
     28 CB          6.2509  -24.2827  -44.9437 C.3       9 UNK        -0.1800 
     29 N           4.8735  -22.2588  -44.8390 N.am      9 UNK        -0.5000 
     30 C           3.8228  -21.4530  -44.6321 C.2       8 UNK         0.5000 
     31 O           2.7118  -21.8660  -44.2911 O.2       8 UNK        -0.5000 
     32 CA          4.0335  -19.9572  -44.9078 C.3       8 UNK         0.1400 
     33 CB          4.2601  -19.6963  -46.4081 C.3       8 UNK        -0.1800 
     34 N           2.8458  -19.2278  -44.4795 N.am      8 UNK        -0.5000 
     35 C           2.8302  -18.0177  -43.9185 C.2       7 UNK         0.5000 
     36 O           3.8447  -17.3522  -43.6913 O.2       7 UNK        -0.5000 
     37 CA          1.4400  -17.4868  -43.5200 C.3       7 UNK         0.1400 
     38 CB          0.9372  -18.1712  -42.2388 C.3       7 UNK        -0.1800 
     39 N           1.4483  -16.0418  -43.3028 N.am      7 UNK        -0.5000 
     40 C           1.5113  -15.1176  -44.2658 C.2       6 UNK         0.5000 
     41 O           1.4359  -15.3805  -45.4668 O.2       6 UNK        -0.5000 
     42 CA          1.6173  -13.6522  -43.7971 C.3       6 UNK         0.1400 
     43 CB          1.9612  -12.6901  -44.9483 C.3       6 UNK        -0.1800 
     44 N           0.3790  -13.1988  -43.1650 N.am      6 UNK        -0.5000 
     45 C          -0.0467  -13.5342  -41.9396 C.2       5 UNK         0.5000 
     46 O           0.5814  -14.2649  -41.1704 O.2       5 UNK        -0.5000 
     47 CA         -1.3995  -12.9281  -41.5266 C.3       5 UNK         0.1400 
     48 CB         -1.8129  -13.2527  -40.0754 C.3       5 UNK        -0.1800 
     49 N          -1.4373  -11.4894  -41.8037 N.am      5 UNK        -0.5000 
     50 C          -0.7505  -10.5092  -41.1937 C.2       4 UNK         0.5000 
     51 O          -0.0124  -10.6915  -40.2250 O.2       4 UNK        -0.5000 
     52 CA         -0.8841   -9.0785  -41.7683 C.3       4 UNK         0.1400 
     53 CB          0.4876   -8.5450  -42.2152 C.3       4 UNK        -0.1800 
     54 N          -1.8027   -8.9795  -42.9044 N.am      4 UNK        -0.5000 
     55 C          -3.1384   -9.0622  -42.8468 C.2       3 UNK         0.5000 
     56 O          -3.7725   -9.1081  -41.7926 O.2       3 UNK        -0.5000 
     57 CA         -3.8907   -9.1546  -44.1918 C.3       3 UNK         0.1400 
     58 CB         -4.6098   -7.8310  -44.4955 C.3       3 UNK        -0.1800 
     59 N          -3.0550   -9.5135  -45.3467 N.am      3 UNK        -0.5000 
     60 C          -2.3651  -10.6516  -45.5046 C.2       2 UNK         0.5000 
     61 O          -2.2858  -11.5403  -44.6493 O.2       2 UNK        -0.5000 
     62 CA         -1.5867  -10.7881  -46.8190 C.3       2 UNK         0.1400 
     63 CB         -0.2783   -9.9796  -46.7696 C.3       2 UNK        -0.1800 
     64 N          -1.2861  -12.1967  -47.0351 N.am      2 UNK        -0.5000 
     65 C          -1.1410  -12.7994  -48.2198 C.2       1 UNK         0.5000 
     66 O          -1.1955  -12.1988  -49.2941 O.2       1 UNK        -0.5000 
     67 C          -0.8332  -24.7168  -44.7649 C.2       11 UNK         0.5000 
     68 O          -2.0037  -24.9167  -44.4386 O.2       11 UNK        -0.5000 
     69 N           0.1341  -25.6340  -44.6174 N.am      12 UNK        -0.5000 
     70 CA         -0.1105  -27.0219  -44.2280 C.3       12 UNK         0.1400 
     71 CB          1.1837  -27.6115  -43.6469 C.3       12 UNK        -0.1800 
     72 C          -0.6152  -27.8877  -45.4017 C.2       12 UNK         0.5000 
     73 O          -1.2152  -28.9344  -45.1536 O.2       12 UNK        -0.5000 
     74 N          -0.3525  -27.4625  -46.6466 N.am      13 UNK        -0.5000 
     75 CA         -0.6858  -28.2033  -47.8630 C.3       13 UNK         0.1400 
     76 CB          0.4546  -28.0410  -48.8814 C.3       13 UNK        -0.1800 
     77 C          -2.0212  -27.7533  -48.4781 C.2       13 UNK         0.5000 
     78 O          -2.7482  -28.5953  -49.0076 O.2       13 UNK        -0.5000 
     79 N          -2.3262  -26.4520  -48.4103 N.am      14 UNK        -0.5000 
     80 CA         -3.5248  -25.8461  -48.9873 C.3       14 UNK         0.1400 
     81 CB         -3.2776  -25.5465  -50.4761 C.3       14 UNK        -0.1800 
     82 C          -3.8915  -24.5685  -48.2202 C.2       14 UNK         0.5000 
     83 O          -3.0526  -24.0185  -47.5088 O.2       14 UNK        -0.5000 
     84 N          -5.1403  -24.1161  -48.3740 N.am      15 UNK        -0.5000 
     85 CA         -5.6421  -22.8744  -47.7850 C.3       15 UNK         0.1400 
     86 CB         -7.1782  -22.9338  -47.7562 C.3       15 UNK        -0.1800 
     87 C          -5.1782  -21.6393  -48.5782 C.2       15 UNK         0.5000 
     88 O          -4.9140  -21.7415  -49.7773 O.2       15 UNK        -0.5000 
     89 N          -5.1814  -20.4714  -47.9188 N.am      16 UNK        -0.5000 
     90 CA         -4.8556  -19.1681  -48.5159 C.3       16 UNK         0.1400 
     91 CB         -4.8405  -18.0954  -47.4167 C.3       16 UNK        -0.1800 
     92 C          -5.8032  -18.7425  -49.6568 C.2       16 UNK         0.5000 
     93 O          -5.4128  -17.9440  -50.5066 O.2       16 UNK        -0.5000 
     94 N          -7.0160  -19.3115  -49.6889 N.am      17 UNK        -0.5000 
     95 CA         -7.9802  -19.1688  -50.7812 C.3       17 UNK         0.1400 
     96 CB         -9.3127  -19.7987  -50.3473 C.3       17 UNK        -0.1800 
     97 C          -7.5005  -19.7880  -52.1124 C.2       17 UNK         0.5000 
     98 O          -7.9917  -19.3913  -53.1695 O.2       17 UNK        -0.5000 
     99 N          -6.5526  -20.7335  -52.0440 N.am      18 UNK        -0.5000 
    100 CA        -5.9599  -21.4200  -53.1897 C.3       18 UNK         0.1400 
    101 CB        -5.8403  -22.9178  -52.8574 C.3       18 UNK        -0.1800 
    102 C         -4.5899  -20.8348  -53.5830 C.2       18 UNK         0.5000 
    103 O         -3.9061  -21.4483  -54.4030 O.2       18 UNK        -0.5000 
    104 N         -4.1982  -19.6788  -53.0179 N.am      19 UNK        -0.5000 
    105 CA        -2.8818  -19.0412  -53.1813 C.3       19 UNK         0.1400 
    106 CB        -2.8487  -17.7147  -52.4101 C.3       19 UNK        -0.1800 
    107 C         -2.4268  -18.8217  -54.6362 C.2       19 UNK         0.5000 
    108 O         -1.2306  -18.9059  -54.9149 O.2       19 UNK        -0.5000 
    109 N         -3.3853  -18.5907  -55.5428 N.am      20 UNK        -0.5000 
    110 CA        -3.1595  -18.4739  -56.9846 C.3       20 UNK         0.1400 
    111 CB        -4.4575  -17.9924  -57.6509 C.3       20 UNK        -0.1800 
    112 C         -2.6660  -19.7784  -57.6470 C.2       20 UNK         0.5000 
    113 O         -2.0319  -19.7101  -58.7009 O.2       20 UNK        -0.5000 
    114 N         -2.9623  -20.9302  -57.0302 N.am      21 UNK        -0.5000 
    115 CA        -2.5412  -22.2538  -57.4765 C.3       21 UNK         0.1400 
    116 CB        -3.7314  -23.2236  -57.3896 C.3       21 UNK        -0.1800 
    117 C         -1.3568  -22.7686  -56.6431 C.2       21 UNK         0.5000 
    118 O         -0.3799  -23.2414  -57.2264 O.2       21 UNK        -0.5000 
    119 N         -1.4574  -22.6876  -55.3073 N.am      22 UNK        -0.5000 
    120 CA        -0.4348  -23.2086  -54.3821 C.3       22 UNK         0.1400 
    121 C          0.8162  -22.3022  -54.1913 C.2       22 UNK         0.5000 
    122 N          0.7922  -21.0298  -54.5681 N.am      22 UNK        -0.7600 
    123 O          1.8411  -22.7723  -53.7053 O.2       22 UNK        -0.5000 
    124 C124       -1.0355  -23.6940  -53.0353 C.3       23 UNK        -0.0398 
    125 S125       -1.7332  -22.3796  -51.9785 S.3       23 UNK        -0.2404 
    126 C126       -0.4227  -22.2064  -50.7329 C.3       23 UNK        -0.0205 
    127 H127       -1.1960  -16.4867  -44.8325 H         1 UNK         0.0600 
    128 H128       -2.9542  -16.5656  -44.7977 H         1 UNK         0.0600 
    129 H129       -2.1236  -15.1628  -44.1126 H         1 UNK         0.0600 
    130 H130       -0.1371  -15.2068  -46.4527 H         1 UNK         0.3000 
    131 H131       -1.6829  -14.7412  -48.8434 H         1 UNK         0.0600 
    132 H132        0.4552  -14.3436  -49.9463 H         1 UNK         0.0800 
    133 H133        1.2689  -14.0842  -48.4245 H         1 UNK         0.0800 
    134 H134       -1.2412  -16.6592  -49.8485 H         1 UNK         0.0800 
    135 H135        0.0362  -17.2055  -50.9067 H         1 UNK         0.0800 
    136 H136       -0.0311  -19.5641  -51.2570 H         1 UNK         0.1150 
    137 H137       -1.3247  -22.2306  -48.1707 H         1 UNK         0.1150 
    138 H138       -1.1941  -18.0111  -47.4321 H         1 UNK         0.1150 
    139 H139       -2.3232  -19.5145  -45.8488 H         1 UNK         0.0800 
    140 H140       -2.4096  -21.2299  -46.1384 H         1 UNK         0.0800 
    141 H141       -1.5579  -22.2032  -43.9213 H         1 UNK         0.0800 
    142 H142        0.1456  -22.3408  -43.5730 H         1 UNK         0.0800 
    143 H143       -1.1992  -23.1857  -46.1667 H         1 UNK         0.0600 
    144 H144        1.5927  -22.8693  -45.6654 H         1 UNK         0.3000 
    145 H145        2.7379  -25.1290  -48.1075 H         1 UNK         0.0600 
    146 H146        3.6489  -23.1540  -49.3884 H         1 UNK         0.0600 
    147 H147        1.9894  -23.5281  -49.8055 H         1 UNK         0.0600 
    148 H148        2.3368  -22.1577  -48.7536 H         1 UNK         0.0600 
    149 H149        4.0306  -22.8671  -46.9783 H         1 UNK         0.3000 
    150 H150        4.5296  -23.9669  -43.7010 H         1 UNK         0.0600 
    151 H151        6.6244  -24.0458  -45.9407 H         1 UNK         0.0600 
    152 H152        6.2624  -25.3684  -44.8381 H         1 UNK         0.0600 
    153 H153        6.9551  -23.8799  -44.2155 H         1 UNK         0.0600 
    154 H154        5.7553  -21.8534  -45.1190 H         1 UNK         0.3000 
    155 H155        4.9056  -19.6301  -44.3381 H         1 UNK         0.0600 
    156 H156        3.4185  -20.0468  -47.0077 H         1 UNK         0.0600 
    157 H157        5.1572  -20.1992  -46.7702 H         1 UNK         0.0600 
    158 H158        4.3868  -18.6317  -46.6063 H         1 UNK         0.0600 
    159 H159        1.9843  -19.7568  -44.5586 H         1 UNK         0.3000 
    160 H160        0.7473  -17.7142  -44.3324 H         1 UNK         0.0600 
    161 H161        1.5967  -17.9741  -41.3928 H         1 UNK         0.0600 
    162 H162        0.8791  -19.2530  -42.3659 H         1 UNK         0.0600 
    163 H163       -0.0618  -17.8238  -41.9742 H         1 UNK         0.0600 
    164 H164        1.4588  -15.7229  -42.3406 H         1 UNK         0.3000 
    165 H165        2.4259  -13.5975  -43.0650 H         1 UNK         0.0600 
    166 H166        2.0817  -11.6689  -44.5865 H         1 UNK         0.0600 
    167 H167        2.8980  -12.9765  -45.4278 H         1 UNK         0.0600 
    168 H168        1.1893  -12.6858  -45.7178 H         1 UNK         0.0600 
    169 H169       -0.2131  -12.5963  -43.7185 H         1 UNK         0.3000 
    170 H170       -2.1464  -13.3791  -42.1815 H         1 UNK         0.0600 
    171 H171       -1.9254  -14.3287  -39.9383 H         1 UNK         0.0600 
    172 H172       -1.0744  -12.9113  -39.3500 H         1 UNK         0.0600 
    173 H173       -2.7683  -12.7917  -39.8255 H         1 UNK         0.0600 
    174 H174       -1.9705  -11.2359  -42.6278 H         1 UNK         0.3000 
    175 H175       -1.2574   -8.4399  -40.9652 H         1 UNK         0.0600 
    176 H176        0.4134   -7.5203  -42.5797 H         1 UNK         0.0600 
    177 H177        1.1976   -8.5407  -41.3872 H         1 UNK         0.0600 
    178 H178        0.9157   -9.1556  -43.0114 H         1 UNK         0.0600 
    179 H179       -1.3778   -8.9374  -43.8185 H         1 UNK         0.3000 
    180 H180       -4.6455   -9.9355  -44.0797 H         1 UNK         0.0600 
    181 H181       -3.9020   -7.0149  -44.6461 H         1 UNK         0.0600 
    182 H182       -5.2699   -7.5455  -43.6753 H         1 UNK         0.0600 
    183 H183       -5.2261   -7.9122  -45.3911 H         1 UNK         0.0600 
    184 H184       -3.0364   -8.8359  -46.0958 H         1 UNK         0.3000 
    185 H185       -2.2178  -10.4206  -47.6310 H         1 UNK         0.0600 
    186 H186       -0.4784   -8.9143  -46.6503 H         1 UNK         0.0600 
    187 H187        0.3559  -10.2892  -45.9386 H         1 UNK         0.0600 
    188 H188        0.2949  -10.0985  -47.6892 H         1 UNK         0.0600 
    189 H189       -1.3172  -12.7659  -46.1999 H         1 UNK         0.3000 
    190 H190        1.0817  -25.4003  -44.8887 H         1 UNK         0.3000 
    191 H191       -0.8721  -27.0442  -43.4456 H         1 UNK         0.0600 
    192 H192        1.5449  -27.0205  -42.8051 H         1 UNK         0.0600 
    193 H193        1.0212  -28.6276  -43.2850 H         1 UNK         0.0600 
    194 H194        1.9777  -27.6533  -44.3933 H         1 UNK         0.0600 
    195 H195        0.0813  -26.5573  -46.7814 H         1 UNK         0.3000 
    196 H196       -0.7694  -29.2678  -47.6335 H         1 UNK         0.0600 
    197 H197        0.2601  -28.6295  -49.7789 H         1 UNK         0.0600 
    198 H198        1.4038  -28.3827  -48.4683 H         1 UNK         0.0600 
    199 H199        0.5785  -27.0038  -49.1933 H         1 UNK         0.0600 
    200 H200       -1.6935  -25.8008  -47.9557 H         1 UNK         0.3000 
    201 H201       -4.3637  -26.5386  -48.8914 H         1 UNK         0.0600 
    202 H202       -4.1300  -25.0393  -50.9286 H         1 UNK         0.0600 
    203 H203       -2.4056  -24.9062  -50.6053 H         1 UNK         0.0600 
    204 H204       -3.1063  -26.4615  -51.0429 H         1 UNK         0.0600 
    205 H205       -5.7616  -24.5927  -49.0104 H         1 UNK         0.3000 
    206 H206       -5.2738  -22.7922  -46.7599 H         1 UNK         0.0600 
    207 H207       -7.5283  -23.7972  -47.1900 H         1 UNK         0.0600 
    208 H208       -7.5990  -22.0464  -47.2818 H         1 UNK         0.0600 
    209 H209       -7.5982  -22.9993  -48.7611 H         1 UNK         0.0600 
    210 H210       -5.4394  -20.4617  -46.9427 H         1 UNK         0.3000 
    211 H211       -3.8535  -19.2408  -48.9434 H         1 UNK         0.0600 
    212 H212       -5.8180  -17.9881  -46.9452 H         1 UNK         0.0600 
    213 H213       -4.5664  -17.1227  -47.8276 H         1 UNK         0.0600 
    214 H214       -4.1167  -18.3279  -46.6379 H         1 UNK         0.0600 
    215 H215       -7.2632  -19.9483  -48.9468 H         1 UNK         0.3000 
    216 H216       -8.1420  -18.1028  -50.9536 H         1 UNK         0.0600 
    217 H217      -10.0693  -19.6882  -51.1254 H         1 UNK         0.0600 
    218 H218       -9.7017  -19.3205  -49.4482 H         1 UNK         0.0600 
    219 H219       -9.2057  -20.8648  -50.1425 H         1 UNK         0.0600 
    220 H220       -6.1594  -20.9834  -51.1413 H         1 UNK         0.3000 
    221 H221       -6.6095  -21.3239  -54.0616 H         1 UNK         0.0600 
    222 H222       -5.1221  -23.0937  -52.0563 H         1 UNK         0.0600 
    223 H223       -6.7991  -23.3337  -52.5479 H         1 UNK         0.0600 
    224 H224       -5.5050  -23.4876  -53.7250 H         1 UNK         0.0600 
    225 H225       -4.8199  -19.2418  -52.3504 H         1 UNK         0.3000 
    226 H226       -2.1445  -19.7002  -52.7253 H         1 UNK         0.0600 
    227 H227       -1.9116  -17.1823  -52.5782 H         1 UNK         0.0600 
    228 H228       -3.6621  -17.0531  -52.7097 H         1 UNK         0.0600 
    229 H229       -2.9290  -17.8874  -51.3375 H         1 UNK         0.0600 
    230 H230       -4.3427  -18.5483  -55.2259 H         1 UNK         0.3000 
    231 H231       -2.3904  -17.7153  -57.1438 H         1 UNK         0.0600 
    232 H232       -5.2713  -18.7041  -57.5061 H         1 UNK         0.0600 
    233 H233       -4.3211  -17.8640  -58.7256 H         1 UNK         0.0600 
    234 H234       -4.7753  -17.0305  -57.2483 H         1 UNK         0.0600 
    235 H235       -3.4404  -20.9004  -56.1341 H         1 UNK         0.3000 
    236 H236       -2.2230  -22.2166  -58.5205 H         1 UNK         0.0600 
    237 H237       -3.4465  -24.2209  -57.7271 H         1 UNK         0.0600 
    238 H238       -4.1085  -23.3179  -56.3707 H         1 UNK         0.0600 
    239 H239       -4.5555  -22.8900  -58.0202 H         1 UNK         0.0600 
    240 H240       -2.2883  -22.2783  -54.8874 H         1 UNK         0.3000 
    241 H241       -0.0371  -24.1131  -54.8471 H         1 UNK         0.0600 
    242 H242       -0.0525  -20.5905  -54.9132 H         1 UNK         0.3800 
    243 H243        1.6193  -20.4692  -54.4448 H         1 UNK         0.3800 
    244 H244       -0.2877  -24.2526  -52.4699 H         1 UNK         0.0800 
    245 H245       -1.8345  -24.4088  -53.2362 H         1 UNK         0.0800 
    246 H246       -0.3626  -23.1305  -50.1557 H         1 UNK         0.0800 
    247 H247        0.5411  -22.0808  -51.2271 H         1 UNK         0.0800 
@<TRIPOS>BOND
     1    1    2 1    
     2    1  127 1    
     3    1  128 1    
     4    1  129 1    
     5    2    3 2    
     6    2    4 am   BACKBONE|DICT|INTERRES
     7    4    5 1    
     8    4  130 1    
     9    5    6 1    
    10    5   65 1    
    11    5  131 1    
    12    6    7 1    
    13    6  132 1    
    14    6  133 1    
    15    7    8 1    
    16    8    9 1    
    17    8  134 1    
    18    8  135 1    
    19    9   10 ar   
    20    9   14 ar   
    21   10   11 ar   
    22   10  136 1    
    23   11   12 ar   
    24   11  126 1    
    25   12   13 ar   
    26   12  137 1    
    27   13   14 ar   
    28   13   15 1    
    29   14  138 1    
    30   15   16 1    
    31   15  139 1    
    32   15  140 1    
    33   16   17 1    
    34   17   18 1    
    35   17  141 1    
    36   17  142 1    
    37   18   19 1    
    38   18   67 1    
    39   18  143 1    
    40   19   20 am   BACKBONE|DICT|INTERRES
    41   19  144 1    
    42   20   21 2    
    43   20   22 1    
    44   22   23 1    
    45   22   24 1    
    46   22  145 1    
    47   23  146 1    
    48   23  147 1    
    49   23  148 1    
    50   24   25 am   BACKBONE|DICT|INTERRES
    51   24  149 1    
    52   25   26 2    
    53   25   27 1    
    54   27   28 1    
    55   27   29 1    
    56   27  150 1    
    57   28  151 1    
    58   28  152 1    
    59   28  153 1    
    60   29   30 am   BACKBONE|DICT|INTERRES
    61   29  154 1    
    62   30   31 2    
    63   30   32 1    
    64   32   33 1    
    65   32   34 1    
    66   32  155 1    
    67   33  156 1    
    68   33  157 1    
    69   33  158 1    
    70   34   35 am   BACKBONE|DICT|INTERRES
    71   34  159 1    
    72   35   36 2    
    73   35   37 1    
    74   37   38 1    
    75   37   39 1    
    76   37  160 1    
    77   38  161 1    
    78   38  162 1    
    79   38  163 1    
    80   39   40 am   BACKBONE|DICT|INTERRES
    81   39  164 1    
    82   40   41 2    
    83   40   42 1    
    84   42   43 1    
    85   42   44 1    
    86   42  165 1    
    87   43  166 1    
    88   43  167 1    
    89   43  168 1    
    90   44   45 am   BACKBONE|DICT|INTERRES
    91   44  169 1    
    92   45   46 2    
    93   45   47 1    
    94   47   48 1    
    95   47   49 1    
    96   47  170 1    
    97   48  171 1    
    98   48  172 1    
    99   48  173 1    
   100   49   50 am   BACKBONE|DICT|INTERRES
   101   49  174 1    
   102   50   51 2    
   103   50   52 1    
   104   52   53 1    
   105   52   54 1    
   106   52  175 1    
   107   53  176 1    
   108   53  177 1    
   109   53  178 1    
   110   54   55 am   BACKBONE|DICT|INTERRES
   111   54  179 1    
   112   55   56 2    
   113   55   57 1    
   114   57   58 1    
   115   57   59 1    
   116   57  180 1    
   117   58  181 1    
   118   58  182 1    
   119   58  183 1    
   120   59   60 am   BACKBONE|DICT|INTERRES
   121   59  184 1    
   122   60   61 2    
   123   60   62 1    
   124   62   63 1    
   125   62   64 1    
   126   62  185 1    
   127   63  186 1    
   128   63  187 1    
   129   63  188 1    
   130   64   65 am   BACKBONE|DICT|INTERRES
   131   64  189 1    
   132   65   66 2    
   133   67   68 2    
   134   67   69 am   BACKBONE|DICT|INTERRES
   135   69   70 1    
   136   69  190 1    
   137   70   71 1    
   138   70   72 1    
   139   70  191 1    
   140   71  192 1    
   141   71  193 1    
   142   71  194 1    
   143   72   73 2    
   144   72   74 am   BACKBONE|DICT|INTERRES
   145   74   75 1    
   146   74  195 1    
   147   75   76 1    
   148   75   77 1    
   149   75  196 1    
   150   76  197 1    
   151   76  198 1    
   152   76  199 1    
   153   77   78 2    
   154   77   79 am   BACKBONE|DICT|INTERRES
   155   79   80 1    
   156   79  200 1    
   157   80   81 1    
   158   80   82 1    
   159   80  201 1    
   160   81  202 1    
   161   81  203 1    
   162   81  204 1    
   163   82   83 2    
   164   82   84 am   BACKBONE|DICT|INTERRES
   165   84   85 1    
   166   84  205 1    
   167   85   86 1    
   168   85   87 1    
   169   85  206 1    
   170   86  207 1    
   171   86  208 1    
   172   86  209 1    
   173   87   88 2    
   174   87   89 am   BACKBONE|DICT|INTERRES
   175   89   90 1    
   176   89  210 1    
   177   90   91 1    
   178   90   92 1    
   179   90  211 1    
   180   91  212 1    
   181   91  213 1    
   182   91  214 1    
   183   92   93 2    
   184   92   94 am   BACKBONE|DICT|INTERRES
   185   94   95 1    
   186   94  215 1    
   187   95   96 1    
   188   95   97 1    
   189   95  216 1    
   190   96  217 1    
   191   96  218 1    
   192   96  219 1    
   193   97   98 2    
   194   97   99 am   BACKBONE|DICT|INTERRES
   195   99  100 1    
   196   99  220 1    
   197  100  101 1    
   198  100  102 1    
   199  100  221 1    
   200  101  222 1    
   201  101  223 1    
   202  101  224 1    
   203  102  103 2    
   204  102  104 am   BACKBONE|DICT|INTERRES
   205  104  105 1    
   206  104  225 1    
   207  105  106 1    
   208  105  107 1    
   209  105  226 1    
   210  106  227 1    
   211  106  228 1    
   212  106  229 1    
   213  107  108 2    
   214  107  109 am   BACKBONE|DICT|INTERRES
   215  109  110 1    
   216  109  230 1    
   217  110  111 1    
   218  110  112 1    
   219  110  231 1    
   220  111  232 1    
   221  111  233 1    
   222  111  234 1    
   223  112  113 2    
   224  112  114 am   BACKBONE|DICT|INTERRES
   225  114  115 1    
   226  114  235 1    
   227  115  116 1    
   228  115  117 1    
   229  115  236 1    
   230  116  237 1    
   231  116  238 1    
   232  116  239 1    
   233  117  118 2    
   234  117  119 am   BACKBONE|DICT|INTERRES
   235  119  120 1    
   236  119  240 1    
   237  120  121 1    
   238  120  124 1    
   239  120  241 1    
   240  121  122 am   BACKBONE|DICT|INTERRES
   241  121  123 2    
   242  122  242 1    
   243  122  243 1    
   244  124  125 1    
   245  124  244 1    
   246  124  245 1    
   247  125  126 1    
   248  126  246 1    
   249  126  247 1    
@<TRIPOS>SUBSTRUCTURE
     1 UNK         1 GROUP             0       ****    0 ROOT    
