@<TRIPOS>MOLECULE
3R540
247   249    1
SMALL
USER_CHARGES


@<TRIPOS>ATOM
      1 CA         -1.6322  -10.9183  -47.6060 C.3       0 UNK        -0.1800 
      2 C          -0.8898  -11.9304  -46.7465 C.2       0 UNK         0.5000 
      3 O          -0.5846  -11.6425  -45.5887 O.2       0 UNK        -0.5000 
      4 N          -0.6149  -13.1211  -47.2997 N.am      1 UNK        -0.5000 
      5 CA          0.1342  -14.2128  -46.6588 C.3       1 UNK         0.1400 
      6 C6          0.3635  -15.4060  -47.6172 C.3       23 UNK        -0.0398 
      7 S7          1.7641  -15.0755  -48.7358 S.3       23 UNK        -0.2404 
      8 C8          1.0724  -15.5127  -50.3594 C.3       23 UNK        -0.0205 
      9 C9          0.7502  -16.9963  -50.4951 C.ar      23 UNK        -0.0193 
     10 C10        -0.5155  -17.3920  -50.9296 C.ar      23 UNK        -0.1150 
     11 C11        -0.8055  -18.7414  -51.1415 C.ar      23 UNK        -0.0193 
     12 C12         0.1749  -19.7069  -50.8869 C.ar      23 UNK        -0.1150 
     13 C13         1.4489  -19.3278  -50.4448 C.ar      23 UNK        -0.0193 
     14 C14         1.7258  -17.9696  -50.2541 C.ar      23 UNK        -0.1150 
     15 C15         2.5703  -20.3495  -50.2601 C.3       23 UNK        -0.0205 
     16 S16         2.0786  -21.8997  -49.4334 S.3       23 UNK        -0.2404 
     17 C17         1.7990  -21.3461  -47.7169 C.3       23 UNK        -0.0398 
     18 CA          0.6032  -22.0742  -47.0559 C.3       11 UNK         0.1400 
     19 N           0.6112  -21.9459  -45.5946 N.am      11 UNK        -0.5000 
     20 C          -0.2161  -22.6031  -44.7671 C.2       10 UNK         0.5000 
     21 O          -1.0308  -23.4439  -45.1413 O.2       10 UNK        -0.5000 
     22 CA         -0.1771  -22.2190  -43.2777 C.3       10 UNK         0.1400 
     23 CB          0.9658  -22.9430  -42.5517 C.3       10 UNK        -0.1800 
     24 N          -0.0683  -20.7744  -43.0780 N.am      10 UNK        -0.5000 
     25 C          -0.9923  -19.8858  -43.4714 C.2       9 UNK         0.5000 
     26 O          -2.0715  -20.2003  -43.9712 O.2       9 UNK        -0.5000 
     27 CA         -0.6313  -18.3973  -43.3420 C.3       9 UNK         0.1400 
     28 CB         -0.9201  -17.8788  -41.9264 C.3       9 UNK        -0.1800 
     29 N           0.7606  -18.1263  -43.6912 N.am      9 UNK        -0.5000 
     30 C           1.2858  -18.2945  -44.9120 C.2       8 UNK         0.5000 
     31 O           0.6363  -18.6707  -45.8877 O.2       8 UNK        -0.5000 
     32 CA          2.8032  -18.0741  -45.0472 C.3       8 UNK         0.1400 
     33 CB          3.1620  -16.5842  -45.1444 C.3       8 UNK        -0.1800 
     34 N           3.5308  -18.6710  -43.9294 N.am      8 UNK        -0.5000 
     35 C           3.6476  -19.9886  -43.7201 C.2       7 UNK         0.5000 
     36 O           3.1933  -20.8438  -44.4807 O.2       7 UNK        -0.5000 
     37 CA          4.3611  -20.4145  -42.4236 C.3       7 UNK         0.1400 
     38 CB          5.8819  -20.4578  -42.6331 C.3       7 UNK        -0.1800 
     39 N           4.0516  -19.5313  -41.2960 N.am      7 UNK        -0.5000 
     40 C           2.8504  -19.4562  -40.7051 C.2       6 UNK         0.5000 
     41 O           1.8842  -20.1412  -41.0361 O.2       6 UNK        -0.5000 
     42 CA          2.6890  -18.4058  -39.5902 C.3       6 UNK         0.1400 
     43 CB          3.2050  -18.9525  -38.2508 C.3       6 UNK        -0.1800 
     44 N           3.3594  -17.1377  -39.8928 N.am      6 UNK        -0.5000 
     45 C           3.0381  -16.3439  -40.9219 C.2       5 UNK         0.5000 
     46 O           2.1468  -16.6038  -41.7323 O.2       5 UNK        -0.5000 
     47 CA          3.8852  -15.0815  -41.1113 C.3       5 UNK         0.1400 
     48 CB          5.2378  -15.4473  -41.7566 C.3       5 UNK        -0.1800 
     49 N           3.1489  -14.1510  -41.9626 N.am      5 UNK        -0.5000 
     50 C           3.4731  -12.8733  -42.1865 C.2       4 UNK         0.5000 
     51 O           4.4224  -12.3008  -41.6494 O.2       4 UNK        -0.5000 
     52 CA          2.5938  -12.1049  -43.1863 C.3       4 UNK         0.1400 
     53 CB          2.9484  -12.4998  -44.6277 C.3       4 UNK        -0.1800 
     54 N           1.1602  -12.2985  -42.9616 N.am      4 UNK        -0.5000 
     55 C           0.4704  -11.7152  -41.9705 C.2       3 UNK         0.5000 
     56 O           1.0013  -11.0406  -41.0868 O.2       3 UNK        -0.5000 
     57 CA         -1.0641  -11.8661  -41.9660 C.3       3 UNK         0.1400 
     58 CB         -1.7356  -10.5056  -42.2183 C.3       3 UNK        -0.1800 
     59 N          -1.5422  -12.8035  -42.9827 N.am      3 UNK        -0.5000 
     60 C          -2.1208  -13.9848  -42.7257 C.2       2 UNK         0.5000 
     61 O          -2.3381  -14.4059  -41.5892 O.2       2 UNK        -0.5000 
     62 CA         -2.5325  -14.8547  -43.9340 C.3       2 UNK         0.1400 
     63 CB         -4.0355  -14.7091  -44.2144 C.3       2 UNK        -0.1800 
     64 N          -1.7947  -14.5768  -45.1690 N.am      2 UNK        -0.5000 
     65 C          -0.4667  -14.6805  -45.3175 C.2       1 UNK         0.5000 
     66 O           0.2910  -15.0493  -44.4222 O.2       1 UNK        -0.5000 
     67 C          -0.7448  -21.6278  -47.6585 C.2       11 UNK         0.5000 
     68 O          -1.3367  -22.3734  -48.4397 O.2       11 UNK        -0.5000 
     69 N          -1.2277  -20.4483  -47.2419 N.am      12 UNK        -0.5000 
     70 CA         -2.5150  -19.8891  -47.6537 C.3       12 UNK         0.1400 
     71 CB         -2.6676  -18.4712  -47.0817 C.3       12 UNK        -0.1800 
     72 C          -3.7120  -20.7836  -47.2743 C.2       12 UNK         0.5000 
     73 O          -4.6222  -20.9503  -48.0858 O.2       12 UNK        -0.5000 
     74 N          -3.6701  -21.3711  -46.0703 N.am      13 UNK        -0.5000 
     75 CA         -4.6524  -22.3360  -45.5797 C.3       13 UNK         0.1400 
     76 CB         -4.4499  -22.5588  -44.0732 C.3       13 UNK        -0.1800 
     77 C          -4.6055  -23.6714  -46.3447 C.2       13 UNK         0.5000 
     78 O          -5.6521  -24.1550  -46.7773 O.2       13 UNK        -0.5000 
     79 N          -3.3999  -24.2335  -46.5209 N.am      14 UNK        -0.5000 
     80 CA         -3.1561  -25.5004  -47.2202 C.3       14 UNK         0.1400 
     81 CB         -1.6819  -25.9017  -47.0622 C.3       14 UNK        -0.1800 
     82 C          -3.5436  -25.4665  -48.7094 C.2       14 UNK         0.5000 
     83 O          -3.9783  -26.4849  -49.2484 O.2       14 UNK        -0.5000 
     84 N          -3.4127  -24.2904  -49.3353 N.am      15 UNK        -0.5000 
     85 CA         -3.8410  -24.0130  -50.7047 C.3       15 UNK         0.1400 
     86 CB         -3.2171  -22.6850  -51.1490 C.3       15 UNK        -0.1800 
     87 C          -5.3719  -23.9595  -50.8851 C.2       15 UNK         0.5000 
     88 O          -5.8244  -23.9367  -52.0297 O.2       15 UNK        -0.5000 
     89 N          -6.1383  -23.9185  -49.7831 N.am      16 UNK        -0.5000 
     90 CA         -7.6003  -23.8464  -49.7205 C.3       16 UNK         0.1400 
     91 CB         -8.2268  -25.1761  -50.1974 C.3       16 UNK        -0.1800 
     92 C          -8.1304  -22.5989  -50.4554 C.2       16 UNK         0.5000 
     93 O          -7.9098  -21.4833  -49.9838 O.2       16 UNK        -0.5000 
     94 N          -8.7660  -22.7900  -51.6182 N.am      17 UNK        -0.5000 
     95 CA         -9.2535  -21.7380  -52.5149 C.3       17 UNK         0.1400 
     96 CB        -10.4295  -22.3025  -53.3328 C.3       17 UNK        -0.1800 
     97 C          -8.1365  -21.1518  -53.4121 C.2       17 UNK         0.5000 
     98 O          -8.3814  -20.8610  -54.5841 O.2       17 UNK        -0.5000 
     99 N          -6.9292  -21.0007  -52.8471 N.am      18 UNK        -0.5000 
    100 CA        -5.6948  -20.5115  -53.4709 C.3       18 UNK         0.1400 
    101 CB        -5.8196  -19.0111  -53.7983 C.3       18 UNK        -0.1800 
    102 C         -5.2420  -21.3696  -54.6755 C.2       18 UNK         0.5000 
    103 O         -4.7647  -20.8408  -55.6824 O.2       18 UNK        -0.5000 
    104 N         -5.4046  -22.6937  -54.5467 N.am      19 UNK        -0.5000 
    105 CA        -5.1583  -23.6823  -55.5972 C.3       19 UNK         0.1400 
    106 CB        -5.8435  -25.0006  -55.2062 C.3       19 UNK        -0.1800 
    107 C         -3.6673  -23.9208  -55.9003 C.2       19 UNK         0.5000 
    108 O         -3.3485  -24.4442  -56.9681 O.2       19 UNK        -0.5000 
    109 N         -2.7731  -23.5175  -54.9873 N.am      20 UNK        -0.5000 
    110 CA        -1.3146  -23.6530  -55.0848 C.3       20 UNK         0.1400 
    111 CB        -0.7253  -23.6125  -53.6625 C.3       20 UNK        -0.1800 
    112 C         -0.6631  -22.6064  -56.0213 C.2       20 UNK         0.5000 
    113 O          0.4113  -22.0901  -55.7127 O.2       20 UNK        -0.5000 
    114 N         -1.3436  -22.2882  -57.1327 N.am      21 UNK        -0.5000 
    115 CA        -1.0193  -21.2928  -58.1657 C.3       21 UNK         0.1400 
    116 CB         0.3093  -21.6410  -58.8678 C.3       21 UNK        -0.1800 
    117 C         -1.0509  -19.8233  -57.6859 C.2       21 UNK         0.5000 
    118 O         -0.7421  -18.9248  -58.4707 O.2       21 UNK        -0.5000 
    119 N         -1.4299  -19.5968  -56.4245 N.am      22 UNK        -0.5000 
    120 CA        -1.5397  -18.2833  -55.7782 C.3       22 UNK         0.1400 
    121 C         -2.8541  -17.5143  -56.0937 C.2       22 UNK         0.5000 
    122 N         -3.9049  -18.1577  -56.5864 N.am      22 UNK        -0.7600 
    123 O         -2.9109  -16.3009  -55.9134 O.2       22 UNK        -0.5000 
    124 C124       -1.2493  -18.3702  -54.2554 C.3       23 UNK        -0.0398 
    125 S125       -2.0770  -19.7588  -53.3958 S.3       23 UNK        -0.2404 
    126 C126       -2.1692  -19.1400  -51.6862 C.3       23 UNK        -0.0205 
    127 H127       -1.0347  -10.0136  -47.7179 H         1 UNK         0.0600 
    128 H128       -2.5769  -10.6481  -47.1344 H         1 UNK         0.0600 
    129 H129       -1.8470  -11.3100  -48.6005 H         1 UNK         0.0600 
    130 H130       -0.8906  -13.2870  -48.2569 H         1 UNK         0.3000 
    131 H131        1.1090  -13.7977  -46.4023 H         1 UNK         0.0600 
    132 H132       -0.5415  -15.6304  -48.1838 H         1 UNK         0.0800 
    133 H133        0.6055  -16.3212  -47.0777 H         1 UNK         0.0800 
    134 H134        1.7967  -15.2450  -51.1296 H         1 UNK         0.0800 
    135 H135        0.1893  -14.8992  -50.5441 H         1 UNK         0.0800 
    136 H136       -1.2680  -16.6445  -51.1379 H         1 UNK         0.1150 
    137 H137       -0.0465  -20.7496  -51.0677 H         1 UNK         0.1150 
    138 H138        2.7138  -17.6614  -49.9419 H         1 UNK         0.1150 
    139 H139        2.9623  -20.5989  -51.2468 H         1 UNK         0.0800 
    140 H140        3.4012  -19.9123  -49.7040 H         1 UNK         0.0800 
    141 H141        1.6652  -20.2640  -47.6910 H         1 UNK         0.0800 
    142 H142        2.7137  -21.5500  -47.1588 H         1 UNK         0.0800 
    143 H143        0.7096  -23.1412  -47.2644 H         1 UNK         0.0600 
    144 H144        1.2815  -21.2970  -45.1978 H         1 UNK         0.3000 
    145 H145       -1.1179  -22.5433  -42.8283 H         1 UNK         0.0600 
    146 H146        0.9489  -22.7330  -41.4823 H         1 UNK         0.0600 
    147 H147        1.9415  -22.6475  -42.9358 H         1 UNK         0.0600 
    148 H148        0.8802  -24.0237  -42.6717 H         1 UNK         0.0600 
    149 H149        0.7631  -20.4402  -42.6000 H         1 UNK         0.3000 
    150 H150       -1.2563  -17.8478  -44.0466 H         1 UNK         0.0600 
    151 H151       -1.9698  -18.0180  -41.6655 H         1 UNK         0.0600 
    152 H152       -0.7020  -16.8136  -41.8466 H         1 UNK         0.0600 
    153 H153       -0.3211  -18.3976  -41.1778 H         1 UNK         0.0600 
    154 H154        1.3439  -17.7361  -42.9550 H         1 UNK         0.3000 
    155 H155        3.1304  -18.5612  -45.9684 H         1 UNK         0.0600 
    156 H156        2.6880  -16.1216  -46.0079 H         1 UNK         0.0600 
    157 H157        4.2370  -16.4431  -45.2558 H         1 UNK         0.0600 
    158 H158        2.8424  -16.0322  -44.2613 H         1 UNK         0.0600 
    159 H159        3.8929  -18.0385  -43.2328 H         1 UNK         0.3000 
    160 H160        4.0228  -21.4220  -42.1724 H         1 UNK         0.0600 
    161 H161        6.2865  -19.4718  -42.8654 H         1 UNK         0.0600 
    162 H162        6.1429  -21.1226  -43.4577 H         1 UNK         0.0600 
    163 H163        6.3917  -20.8294  -41.7441 H         1 UNK         0.0600 
    164 H164        4.7941  -18.9355  -40.9613 H         1 UNK         0.3000 
    165 H165        1.6215  -18.2011  -39.4841 H         1 UNK         0.0600 
    166 H166        3.0120  -18.2517  -37.4384 H         1 UNK         0.0600 
    167 H167        2.7082  -19.8893  -37.9946 H         1 UNK         0.0600 
    168 H168        4.2778  -19.1469  -38.2795 H         1 UNK         0.0600 
    169 H169        4.1087  -16.8638  -39.2735 H         1 UNK         0.3000 
    170 H170        4.0480  -14.6201  -40.1353 H         1 UNK         0.0600 
    171 H171        5.1057  -15.8693  -42.7534 H         1 UNK         0.0600 
    172 H172        5.8872  -14.5770  -41.8487 H         1 UNK         0.0600 
    173 H173        5.7774  -16.1816  -41.1574 H         1 UNK         0.0600 
    174 H174        2.3308  -14.5526  -42.4070 H         1 UNK         0.3000 
    175 H175        2.8138  -11.0410  -43.0729 H         1 UNK         0.0600 
    176 H176        2.7802  -13.5616  -44.8062 H         1 UNK         0.0600 
    177 H177        2.3579  -11.9343  -45.3489 H         1 UNK         0.0600 
    178 H178        3.9991  -12.2975  -44.8387 H         1 UNK         0.0600 
    179 H179        0.6643  -12.8730  -43.6284 H         1 UNK         0.3000 
    180 H180       -1.3453  -12.2018  -40.9660 H         1 UNK         0.0600 
    181 H181       -2.8216  -10.5882  -42.1704 H         1 UNK         0.0600 
    182 H182       -1.4728  -10.1047  -43.1983 H         1 UNK         0.0600 
    183 H183       -1.4338   -9.7716  -41.4701 H         1 UNK         0.0600 
    184 H184       -1.3907  -12.5239  -43.9469 H         1 UNK         0.3000 
    185 H185       -2.3417  -15.8915  -43.6594 H         1 UNK         0.0600 
    186 H186       -4.2895  -13.6947  -44.5244 H         1 UNK         0.0600 
    187 H187       -4.3590  -15.3931  -44.9994 H         1 UNK         0.0600 
    188 H188       -4.6239  -14.9376  -43.3246 H         1 UNK         0.0600 
    189 H189       -2.3353  -14.2288  -45.9473 H         1 UNK         0.3000 
    190 H190       -0.6595  -19.8802  -46.6190 H         1 UNK         0.3000 
    191 H191       -2.4976  -19.8107  -48.7407 H         1 UNK         0.0600 
    192 H192       -1.8476  -17.8279  -47.4018 H         1 UNK         0.0600 
    193 H193       -2.6842  -18.4746  -45.9921 H         1 UNK         0.0600 
    194 H194       -3.5957  -18.0113  -47.4228 H         1 UNK         0.0600 
    195 H195       -2.9147  -21.1266  -45.4357 H         1 UNK         0.3000 
    196 H196       -5.6456  -21.9055  -45.7245 H         1 UNK         0.0600 
    197 H197       -4.5643  -21.6268  -43.5192 H         1 UNK         0.0600 
    198 H198       -3.4593  -22.9571  -43.8529 H         1 UNK         0.0600 
    199 H199       -5.1833  -23.2638  -43.6801 H         1 UNK         0.0600 
    200 H200       -2.5822  -23.7859  -46.1123 H         1 UNK         0.3000 
    201 H201       -3.7699  -26.2652  -46.7404 H         1 UNK         0.0600 
    202 H202       -1.4207  -26.0372  -46.0127 H         1 UNK         0.0600 
    203 H203       -1.0148  -25.1465  -47.4798 H         1 UNK         0.0600 
    204 H204       -1.4741  -26.8434  -47.5719 H         1 UNK         0.0600 
    205 H205       -2.9692  -23.5252  -48.8360 H         1 UNK         0.3000 
    206 H206       -3.4604  -24.8063  -51.3511 H         1 UNK         0.0600 
    207 H207       -3.6030  -21.8596  -50.5511 H         1 UNK         0.0600 
    208 H208       -2.1323  -22.6980  -51.0435 H         1 UNK         0.0600 
    209 H209       -3.4384  -22.4727  -52.1940 H         1 UNK         0.0600 
    210 H210       -5.6750  -23.9098  -48.8817 H         1 UNK         0.3000 
    211 H211       -7.8597  -23.7169  -48.6688 H         1 UNK         0.0600 
    212 H212       -7.9695  -25.4131  -51.2302 H         1 UNK         0.0600 
    213 H213       -9.3146  -25.1473  -50.1220 H         1 UNK         0.0600 
    214 H214       -7.8853  -26.0059  -49.5783 H         1 UNK         0.0600 
    215 H215       -8.8434  -23.7364  -51.9615 H         1 UNK         0.3000 
    216 H216       -9.6375  -20.9131  -51.9114 H         1 UNK         0.0600 
    217 H217      -10.8827  -21.5308  -53.9563 H         1 UNK         0.0600 
    218 H218      -11.2135  -22.6892  -52.6813 H         1 UNK         0.0600 
    219 H219      -10.1091  -23.1119  -53.9899 H         1 UNK         0.0600 
    220 H220       -6.8534  -21.2634  -51.8723 H         1 UNK         0.3000 
    221 H221       -4.9194  -20.6144  -52.7120 H         1 UNK         0.0600 
    222 H222       -6.4874  -18.8334  -54.6418 H         1 UNK         0.0600 
    223 H223       -6.1987  -18.4498  -52.9445 H         1 UNK         0.0600 
    224 H224       -4.8480  -18.5884  -54.0497 H         1 UNK         0.0600 
    225 H225       -5.7572  -23.0610  -53.6650 H         1 UNK         0.3000 
    226 H226       -5.6221  -23.3182  -56.5162 H         1 UNK         0.0600 
    227 H227       -6.9093  -24.8544  -55.0291 H         1 UNK         0.0600 
    228 H228       -5.7445  -25.7436  -55.9986 H         1 UNK         0.0600 
    229 H229       -5.4088  -25.4264  -54.3011 H         1 UNK         0.0600 
    230 H230       -3.1263  -23.0569  -54.1631 H         1 UNK         0.3000 
    231 H231       -1.0895  -24.6343  -55.5072 H         1 UNK         0.0600 
    232 H232        0.3451  -23.8217  -53.6742 H         1 UNK         0.0600 
    233 H233       -1.1907  -24.3586  -53.0182 H         1 UNK         0.0600 
    234 H234       -0.8616  -22.6347  -53.1995 H         1 UNK         0.0600 
    235 H235       -2.2020  -22.8055  -57.2889 H         1 UNK         0.3000 
    236 H236       -1.8124  -21.3756  -58.9101 H         1 UNK         0.0600 
    237 H237        1.1654  -21.5118  -58.2052 H         1 UNK         0.0600 
    238 H238        0.3103  -22.6718  -59.2221 H         1 UNK         0.0600 
    239 H239        0.4725  -21.0014  -59.7360 H         1 UNK         0.0600 
    240 H240       -1.6763  -20.3861  -55.8459 H         1 UNK         0.3000 
    241 H241       -0.7500  -17.6564  -56.1971 H         1 UNK         0.0600 
    242 H242       -4.7409  -17.6398  -56.8020 H         1 UNK         0.3800 
    243 H243       -3.9262  -19.1701  -56.6131 H         1 UNK         0.3800 
    244 H244       -1.4965  -17.4300  -53.7597 H         1 UNK         0.0800 
    245 H245       -0.1766  -18.5027  -54.1076 H         1 UNK         0.0800 
    246 H246       -2.5942  -19.9137  -51.0520 H         1 UNK         0.0800 
    247 H247       -2.8657  -18.3008  -51.6504 H         1 UNK         0.0800 
@<TRIPOS>BOND
     1    1    2 1    
     2    1  127 1    
     3    1  128 1    
     4    1  129 1    
     5    2    3 2    
     6    2    4 am   BACKBONE|DICT|INTERRES
     7    4    5 1    
     8    4  130 1    
     9    5    6 1    
    10    5   65 1    
    11    5  131 1    
    12    6    7 1    
    13    6  132 1    
    14    6  133 1    
    15    7    8 1    
    16    8    9 1    
    17    8  134 1    
    18    8  135 1    
    19    9   10 ar   
    20    9   14 ar   
    21   10   11 ar   
    22   10  136 1    
    23   11   12 ar   
    24   11  126 1    
    25   12   13 ar   
    26   12  137 1    
    27   13   14 ar   
    28   13   15 1    
    29   14  138 1    
    30   15   16 1    
    31   15  139 1    
    32   15  140 1    
    33   16   17 1    
    34   17   18 1    
    35   17  141 1    
    36   17  142 1    
    37   18   19 1    
    38   18   67 1    
    39   18  143 1    
    40   19   20 am   BACKBONE|DICT|INTERRES
    41   19  144 1    
    42   20   21 2    
    43   20   22 1    
    44   22   23 1    
    45   22   24 1    
    46   22  145 1    
    47   23  146 1    
    48   23  147 1    
    49   23  148 1    
    50   24   25 am   BACKBONE|DICT|INTERRES
    51   24  149 1    
    52   25   26 2    
    53   25   27 1    
    54   27   28 1    
    55   27   29 1    
    56   27  150 1    
    57   28  151 1    
    58   28  152 1    
    59   28  153 1    
    60   29   30 am   BACKBONE|DICT|INTERRES
    61   29  154 1    
    62   30   31 2    
    63   30   32 1    
    64   32   33 1    
    65   32   34 1    
    66   32  155 1    
    67   33  156 1    
    68   33  157 1    
    69   33  158 1    
    70   34   35 am   BACKBONE|DICT|INTERRES
    71   34  159 1    
    72   35   36 2    
    73   35   37 1    
    74   37   38 1    
    75   37   39 1    
    76   37  160 1    
    77   38  161 1    
    78   38  162 1    
    79   38  163 1    
    80   39   40 am   BACKBONE|DICT|INTERRES
    81   39  164 1    
    82   40   41 2    
    83   40   42 1    
    84   42   43 1    
    85   42   44 1    
    86   42  165 1    
    87   43  166 1    
    88   43  167 1    
    89   43  168 1    
    90   44   45 am   BACKBONE|DICT|INTERRES
    91   44  169 1    
    92   45   46 2    
    93   45   47 1    
    94   47   48 1    
    95   47   49 1    
    96   47  170 1    
    97   48  171 1    
    98   48  172 1    
    99   48  173 1    
   100   49   50 am   BACKBONE|DICT|INTERRES
   101   49  174 1    
   102   50   51 2    
   103   50   52 1    
   104   52   53 1    
   105   52   54 1    
   106   52  175 1    
   107   53  176 1    
   108   53  177 1    
   109   53  178 1    
   110   54   55 am   BACKBONE|DICT|INTERRES
   111   54  179 1    
   112   55   56 2    
   113   55   57 1    
   114   57   58 1    
   115   57   59 1    
   116   57  180 1    
   117   58  181 1    
   118   58  182 1    
   119   58  183 1    
   120   59   60 am   BACKBONE|DICT|INTERRES
   121   59  184 1    
   122   60   61 2    
   123   60   62 1    
   124   62   63 1    
   125   62   64 1    
   126   62  185 1    
   127   63  186 1    
   128   63  187 1    
   129   63  188 1    
   130   64   65 am   BACKBONE|DICT|INTERRES
   131   64  189 1    
   132   65   66 2    
   133   67   68 2    
   134   67   69 am   BACKBONE|DICT|INTERRES
   135   69   70 1    
   136   69  190 1    
   137   70   71 1    
   138   70   72 1    
   139   70  191 1    
   140   71  192 1    
   141   71  193 1    
   142   71  194 1    
   143   72   73 2    
   144   72   74 am   BACKBONE|DICT|INTERRES
   145   74   75 1    
   146   74  195 1    
   147   75   76 1    
   148   75   77 1    
   149   75  196 1    
   150   76  197 1    
   151   76  198 1    
   152   76  199 1    
   153   77   78 2    
   154   77   79 am   BACKBONE|DICT|INTERRES
   155   79   80 1    
   156   79  200 1    
   157   80   81 1    
   158   80   82 1    
   159   80  201 1    
   160   81  202 1    
   161   81  203 1    
   162   81  204 1    
   163   82   83 2    
   164   82   84 am   BACKBONE|DICT|INTERRES
   165   84   85 1    
   166   84  205 1    
   167   85   86 1    
   168   85   87 1    
   169   85  206 1    
   170   86  207 1    
   171   86  208 1    
   172   86  209 1    
   173   87   88 2    
   174   87   89 am   BACKBONE|DICT|INTERRES
   175   89   90 1    
   176   89  210 1    
   177   90   91 1    
   178   90   92 1    
   179   90  211 1    
   180   91  212 1    
   181   91  213 1    
   182   91  214 1    
   183   92   93 2    
   184   92   94 am   BACKBONE|DICT|INTERRES
   185   94   95 1    
   186   94  215 1    
   187   95   96 1    
   188   95   97 1    
   189   95  216 1    
   190   96  217 1    
   191   96  218 1    
   192   96  219 1    
   193   97   98 2    
   194   97   99 am   BACKBONE|DICT|INTERRES
   195   99  100 1    
   196   99  220 1    
   197  100  101 1    
   198  100  102 1    
   199  100  221 1    
   200  101  222 1    
   201  101  223 1    
   202  101  224 1    
   203  102  103 2    
   204  102  104 am   BACKBONE|DICT|INTERRES
   205  104  105 1    
   206  104  225 1    
   207  105  106 1    
   208  105  107 1    
   209  105  226 1    
   210  106  227 1    
   211  106  228 1    
   212  106  229 1    
   213  107  108 2    
   214  107  109 am   BACKBONE|DICT|INTERRES
   215  109  110 1    
   216  109  230 1    
   217  110  111 1    
   218  110  112 1    
   219  110  231 1    
   220  111  232 1    
   221  111  233 1    
   222  111  234 1    
   223  112  113 2    
   224  112  114 am   BACKBONE|DICT|INTERRES
   225  114  115 1    
   226  114  235 1    
   227  115  116 1    
   228  115  117 1    
   229  115  236 1    
   230  116  237 1    
   231  116  238 1    
   232  116  239 1    
   233  117  118 2    
   234  117  119 am   BACKBONE|DICT|INTERRES
   235  119  120 1    
   236  119  240 1    
   237  120  121 1    
   238  120  124 1    
   239  120  241 1    
   240  121  122 am   BACKBONE|DICT|INTERRES
   241  121  123 2    
   242  122  242 1    
   243  122  243 1    
   244  124  125 1    
   245  124  244 1    
   246  124  245 1    
   247  125  126 1    
   248  126  246 1    
   249  126  247 1    
@<TRIPOS>SUBSTRUCTURE
     1 UNK         1 GROUP             0       ****    0 ROOT    
