@<TRIPOS>MOLECULE
3R540
247   249    1
SMALL
USER_CHARGES


@<TRIPOS>ATOM
      1 CA         -0.5567  -11.7173  -43.0014 C.3       0 UNK        -0.1800 
      2 C          -1.8776  -12.0106  -43.6974 C.2       0 UNK         0.5000 
      3 O          -2.7481  -11.1413  -43.7400 O.2       0 UNK        -0.5000 
      4 N          -2.0405  -13.2336  -44.2203 N.am      1 UNK        -0.5000 
      5 CA         -3.2842  -13.7009  -44.8465 C.3       1 UNK         0.1400 
      6 C6         -3.3607  -15.2492  -44.8954 C.3       23 UNK        -0.0398 
      7 S7         -5.0778  -15.8586  -44.7887 S.3       23 UNK        -0.2404 
      8 C8         -5.4756  -16.2199  -46.5300 C.3       23 UNK        -0.0205 
      9 C9         -4.7730  -17.4724  -47.0263 C.ar      23 UNK        -0.0193 
     10 C10        -3.7141  -17.3830  -47.9338 C.ar      23 UNK        -0.1150 
     11 C11        -3.0690  -18.5376  -48.3956 C.ar      23 UNK        -0.0193 
     12 C12        -3.4840  -19.7828  -47.9162 C.ar      23 UNK        -0.1150 
     13 C13        -4.5407  -19.8843  -47.0078 C.ar      23 UNK        -0.0193 
     14 C14        -5.1904  -18.7266  -46.5777 C.ar      23 UNK        -0.1150 
     15 C15        -4.9744  -21.2415  -46.4792 C.3       23 UNK        -0.0205 
     16 S16        -4.5583  -21.4605  -44.7166 S.3       23 UNK        -0.2404 
     17 C17        -2.7539  -21.1615  -44.6742 C.3       23 UNK        -0.0398 
     18 CA         -1.9090  -22.2401  -45.3959 C.3       11 UNK         0.1400 
     19 N          -0.5815  -21.7238  -45.7502 N.am      11 UNK        -0.5000 
     20 C           0.3559  -22.3677  -46.4611 C.2       10 UNK         0.5000 
     21 O           0.2078  -23.4989  -46.9211 O.2       10 UNK        -0.5000 
     22 CA          1.7094  -21.6588  -46.6361 C.3       10 UNK         0.1400 
     23 CB          1.7149  -20.8472  -47.9405 C.3       10 UNK        -0.1800 
     24 N           2.0725  -20.7978  -45.5049 N.am      10 UNK        -0.5000 
     25 C           2.2391  -21.2169  -44.2401 C.2       9 UNK         0.5000 
     26 O           2.1039  -22.3886  -43.8872 O.2       9 UNK        -0.5000 
     27 CA          2.5692  -20.1457  -43.1838 C.3       9 UNK         0.1400 
     28 CB          4.0546  -19.7586  -43.2372 C.3       9 UNK        -0.1800 
     29 N           1.7433  -18.9472  -43.3255 N.am      9 UNK        -0.5000 
     30 C           0.4194  -18.9037  -43.1183 C.2       8 UNK         0.5000 
     31 O          -0.2418  -19.8585  -42.7110 O.2       8 UNK        -0.5000 
     32 CA         -0.2942  -17.5851  -43.4751 C.3       8 UNK         0.1400 
     33 CB         -0.2061  -16.5718  -42.3235 C.3       8 UNK        -0.1800 
     34 N           0.2298  -16.9858  -44.7040 N.am      8 UNK        -0.5000 
     35 C           0.1200  -17.5514  -45.9144 C.2       7 UNK         0.5000 
     36 O          -0.4732  -18.6091  -46.1234 O.2       7 UNK        -0.5000 
     37 CA          0.8308  -16.8347  -47.0750 C.3       7 UNK         0.1400 
     38 CB         -0.0408  -15.6991  -47.6239 C.3       7 UNK        -0.1800 
     39 N           2.1448  -16.3145  -46.6964 N.am      7 UNK        -0.5000 
     40 C           3.1967  -17.0923  -46.4003 C.2       6 UNK         0.5000 
     41 O           3.1747  -18.3198  -46.4669 O.2       6 UNK        -0.5000 
     42 CA          4.4653  -16.3937  -45.8794 C.3       6 UNK         0.1400 
     43 CB          5.3567  -15.9315  -47.0408 C.3       6 UNK        -0.1800 
     44 N           4.1606  -15.2597  -45.0077 N.am      6 UNK        -0.5000 
     45 C           3.5193  -15.3553  -43.8335 C.2       5 UNK         0.5000 
     46 O           3.1745  -16.4259  -43.3349 O.2       5 UNK        -0.5000 
     47 CA          3.1645  -14.0413  -43.1121 C.3       5 UNK         0.1400 
     48 CB          4.1674  -13.7581  -41.9846 C.3       5 UNK        -0.1800 
     49 N           3.1120  -12.8855  -44.0094 N.am      5 UNK        -0.5000 
     50 C           2.2052  -12.7061  -44.9788 C.2       4 UNK         0.5000 
     51 O           1.2643  -13.4817  -45.1758 O.2       4 UNK        -0.5000 
     52 CA          2.3759  -11.4456  -45.8564 C.3       4 UNK         0.1400 
     53 CB          3.8429  -10.9744  -45.9757 C.3       4 UNK        -0.1800 
     54 N           1.7899  -11.5935  -47.1899 N.am      4 UNK        -0.5000 
     55 C           2.0867  -12.5089  -48.1217 C.2       3 UNK         0.5000 
     56 O           2.9156  -13.4071  -47.9639 O.2       3 UNK        -0.5000 
     57 CA          1.2853  -12.4047  -49.4381 C.3       3 UNK         0.1400 
     58 CB          1.8073  -13.3582  -50.5291 C.3       3 UNK        -0.1800 
     59 N          -0.1392  -12.6666  -49.2233 N.am      3 UNK        -0.5000 
     60 C          -1.0116  -11.8406  -48.6318 C.2       2 UNK         0.5000 
     61 O          -0.7257  -10.7059  -48.2462 O.2       2 UNK        -0.5000 
     62 CA         -2.4148  -12.3942  -48.3634 C.3       2 UNK         0.1400 
     63 CB         -2.8628  -13.4830  -49.3632 C.3       2 UNK        -0.1800 
     64 N          -2.4174  -12.9207  -47.0036 N.am      2 UNK        -0.5000 
     65 C          -3.5056  -13.0834  -46.2437 C.2       1 UNK         0.5000 
     66 O          -4.6418  -12.7693  -46.6010 O.2       1 UNK        -0.5000 
     67 C          -1.8854  -23.5813  -44.6212 C.2       11 UNK         0.5000 
     68 O          -2.8796  -24.3068  -44.6490 O.2       11 UNK        -0.5000 
     69 N          -0.7435  -23.9447  -44.0147 N.am      12 UNK        -0.5000 
     70 CA         -0.4928  -25.2656  -43.4281 C.3       12 UNK         0.1400 
     71 CB          0.8859  -25.2623  -42.7523 C.3       12 UNK        -0.1800 
     72 C          -0.5947  -26.4323  -44.4380 C.2       12 UNK         0.5000 
     73 O          -0.8549  -27.5623  -44.0238 O.2       12 UNK        -0.5000 
     74 N          -0.4247  -26.1438  -45.7378 N.am      13 UNK        -0.5000 
     75 CA         -0.6339  -27.0847  -46.8406 C.3       13 UNK         0.1400 
     76 CB          0.1781  -26.6081  -48.0552 C.3       13 UNK        -0.1800 
     77 C          -2.1221  -27.2768  -47.2123 C.2       13 UNK         0.5000 
     78 O          -2.4196  -28.1226  -48.0574 O.2       13 UNK        -0.5000 
     79 N          -3.0299  -26.5045  -46.5931 N.am      14 UNK        -0.5000 
     80 CA         -4.4839  -26.5237  -46.7714 C.3       14 UNK         0.1400 
     81 CB         -5.0818  -27.8230  -46.1865 C.3       14 UNK        -0.1800 
     82 C          -4.8782  -26.2440  -48.2352 C.2       14 UNK         0.5000 
     83 O          -4.5640  -25.1681  -48.7437 O.2       14 UNK        -0.5000 
     84 N          -5.5272  -27.2071  -48.9030 N.am      15 UNK        -0.5000 
     85 CA         -5.9395  -27.1202  -50.3067 C.3       15 UNK         0.1400 
     86 CB         -6.7910  -28.3501  -50.6555 C.3       15 UNK        -0.1800 
     87 C          -4.7631  -26.9810  -51.2944 C.2       15 UNK         0.5000 
     88 O          -4.9328  -26.3788  -52.3552 O.2       15 UNK        -0.5000 
     89 N          -3.5869  -27.5060  -50.9224 N.am      16 UNK        -0.5000 
     90 CA         -2.3568  -27.4211  -51.7108 C.3       16 UNK         0.1400 
     91 CB         -1.4498  -28.6116  -51.3595 C.3       16 UNK        -0.1800 
     92 C          -1.6166  -26.0765  -51.5490 C.2       16 UNK         0.5000 
     93 O          -0.6191  -25.8619  -52.2385 O.2       16 UNK        -0.5000 
     94 N          -2.1032  -25.1868  -50.6681 N.am      17 UNK        -0.5000 
     95 CA         -1.5458  -23.8474  -50.4558 C.3       17 UNK         0.1400 
     96 CB         -2.1041  -23.2670  -49.1501 C.3       17 UNK        -0.1800 
     97 C          -1.8302  -22.8739  -51.6162 C.2       17 UNK         0.5000 
     98 O          -1.1310  -21.8673  -51.7310 O.2       17 UNK        -0.5000 
     99 N          -2.8520  -23.1831  -52.4336 N.am      18 UNK        -0.5000 
    100 CA        -3.3333  -22.4116  -53.5853 C.3       18 UNK         0.1400 
    101 CB        -2.2889  -22.4214  -54.7212 C.3       18 UNK        -0.1800 
    102 C         -3.7692  -20.9885  -53.1841 C.2       18 UNK         0.5000 
    103 O         -3.3214  -20.0101  -53.7832 O.2       18 UNK        -0.5000 
    104 N         -4.6284  -20.9075  -52.1575 N.am      19 UNK        -0.5000 
    105 CA        -5.0436  -19.6958  -51.4352 C.3       19 UNK         0.1400 
    106 CB        -6.0457  -20.1027  -50.3434 C.3       19 UNK        -0.1800 
    107 C         -5.6145  -18.5372  -52.2821 C.2       19 UNK         0.5000 
    108 O         -5.6807  -17.4090  -51.7943 O.2       19 UNK        -0.5000 
    109 N         -6.0068  -18.8199  -53.5305 N.am      20 UNK        -0.5000 
    110 CA        -6.4172  -17.8283  -54.5241 C.3       20 UNK         0.1400 
    111 CB        -7.0799  -18.5588  -55.7024 C.3       20 UNK        -0.1800 
    112 C         -5.2603  -16.9369  -55.0276 C.2       20 UNK         0.5000 
    113 O         -5.5312  -15.8424  -55.5242 O.2       20 UNK        -0.5000 
    114 N         -4.0104  -17.4094  -54.9117 N.am      21 UNK        -0.5000 
    115 CA        -2.8105  -16.7059  -55.3745 C.3       21 UNK         0.1400 
    116 CB        -2.4164  -17.2375  -56.7626 C.3       21 UNK        -0.1800 
    117 C         -1.6282  -16.8177  -54.3957 C.2       21 UNK         0.5000 
    118 O         -0.8182  -15.8921  -54.3334 O.2       21 UNK        -0.5000 
    119 N         -1.5388  -17.9342  -53.6613 N.am      22 UNK        -0.5000 
    120 CA        -0.4877  -18.2673  -52.6821 C.3       22 UNK         0.1400 
    121 C          0.9204  -18.5297  -53.2996 C.2       22 UNK         0.5000 
    122 N          1.0362  -18.7789  -54.5987 N.am      22 UNK        -0.7600 
    123 O          1.9245  -18.5360  -52.5927 O.2       22 UNK        -0.5000 
    124 C124       -0.4382  -17.2974  -51.4674 C.3       23 UNK        -0.0398 
    125 S125       -2.0452  -17.1463  -50.6187 S.3       23 UNK        -0.2404 
    126 C126       -1.9000  -18.4729  -49.3755 C.3       23 UNK        -0.0205 
    127 H127        0.0316  -12.6228  -42.8537 H         1 UNK         0.0600 
    128 H128       -0.7393  -11.2753  -42.0219 H         1 UNK         0.0600 
    129 H129        0.0288  -11.0114  -43.5891 H         1 UNK         0.0600 
    130 H130       -1.2744  -13.8905  -44.1833 H         1 UNK         0.3000 
    131 H131       -4.1000  -13.3466  -44.2116 H         1 UNK         0.0600 
    132 H132       -2.8520  -15.6613  -45.7684 H         1 UNK         0.0800 
    133 H133       -2.8437  -15.6723  -44.0336 H         1 UNK         0.0800 
    134 H134       -6.5537  -16.3600  -46.6199 H         1 UNK         0.0800 
    135 H135       -5.2306  -15.3620  -47.1568 H         1 UNK         0.0800 
    136 H136       -3.3966  -16.4106  -48.2797 H         1 UNK         0.1150 
    137 H137       -2.9782  -20.6764  -48.2467 H         1 UNK         0.1150 
    138 H138       -6.0059  -18.8001  -45.8718 H         1 UNK         0.1150 
    139 H139       -6.0543  -21.3394  -46.5978 H         1 UNK         0.0800 
    140 H140       -4.5365  -22.0500  -47.0659 H         1 UNK         0.0800 
    141 H141       -2.4469  -21.0725  -43.6312 H         1 UNK         0.0800 
    142 H142       -2.5695  -20.1796  -45.1125 H         1 UNK         0.0800 
    143 H143       -2.3877  -22.4580  -46.3501 H         1 UNK         0.0600 
    144 H144       -0.3734  -20.7792  -45.4491 H         1 UNK         0.3000 
    145 H145        2.4741  -22.4339  -46.7152 H         1 UNK         0.0600 
    146 H146        2.6977  -20.4189  -48.1361 H         1 UNK         0.0600 
    147 H147        0.9916  -20.0328  -47.9109 H         1 UNK         0.0600 
    148 H148        1.4611  -21.4772  -48.7943 H         1 UNK         0.0600 
    149 H149        2.2610  -19.8239  -45.7265 H         1 UNK         0.3000 
    150 H150        2.3684  -20.5759  -42.2004 H         1 UNK         0.0600 
    151 H151        4.6907  -20.6328  -43.0938 H         1 UNK         0.0600 
    152 H152        4.3032  -19.0422  -42.4540 H         1 UNK         0.0600 
    153 H153        4.3223  -19.3116  -44.1945 H         1 UNK         0.0600 
    154 H154        2.2220  -18.0918  -43.5917 H         1 UNK         0.3000 
    155 H155       -1.3489  -17.8161  -43.6414 H         1 UNK         0.0600 
    156 H156       -0.6541  -16.9787  -41.4162 H         1 UNK         0.0600 
    157 H157       -0.7371  -15.6505  -42.5618 H         1 UNK         0.0600 
    158 H158        0.8257  -16.3128  -42.0876 H         1 UNK         0.0600 
    159 H159        0.7703  -16.1377  -44.6135 H         1 UNK         0.3000 
    160 H160        0.9798  -17.5639  -47.8730 H         1 UNK         0.0600 
    161 H161       -0.1028  -14.8618  -46.9305 H         1 UNK         0.0600 
    162 H162       -1.0576  -16.0391  -47.8159 H         1 UNK         0.0600 
    163 H163        0.3608  -15.3340  -48.5665 H         1 UNK         0.0600 
    164 H164        2.2424  -15.3090  -46.6266 H         1 UNK         0.3000 
    165 H165        5.0267  -17.1232  -45.2920 H         1 UNK         0.0600 
    166 H166        6.2878  -15.4980  -46.6755 H         1 UNK         0.0600 
    167 H167        5.6204  -16.7705  -47.6860 H         1 UNK         0.0600 
    168 H168        4.8599  -15.1857  -47.6614 H         1 UNK         0.0600 
    169 H169        4.3904  -14.3421  -45.3591 H         1 UNK         0.3000 
    170 H170        2.1760  -14.1699  -42.6666 H         1 UNK         0.0600 
    171 H171        5.1754  -13.6028  -42.3714 H         1 UNK         0.0600 
    172 H172        3.8836  -12.8713  -41.4176 H         1 UNK         0.0600 
    173 H173        4.2101  -14.5913  -41.2817 H         1 UNK         0.0600 
    174 H174        3.8457  -12.2003  -43.9010 H         1 UNK         0.3000 
    175 H175        1.8096  -10.6539  -45.3647 H         1 UNK         0.0600 
    176 H176        4.4925  -11.7615  -46.3610 H         1 UNK         0.0600 
    177 H177        3.9248  -10.1212  -46.6493 H         1 UNK         0.0600 
    178 H178        4.2421  -10.6522  -45.0135 H         1 UNK         0.0600 
    179 H179        1.0229  -10.9635  -47.4054 H         1 UNK         0.3000 
    180 H180        1.3999  -11.3841  -49.8093 H         1 UNK         0.0600 
    181 H181        1.2546  -13.2325  -51.4603 H         1 UNK         0.0600 
    182 H182        1.7287  -14.4041  -50.2322 H         1 UNK         0.0600 
    183 H183        2.8574  -13.1600  -50.7474 H         1 UNK         0.0600 
    184 H184       -0.4655  -13.5808  -49.4976 H         1 UNK         0.3000 
    185 H185       -3.1082  -11.5530  -48.4289 H         1 UNK         0.0600 
    186 H186       -3.9066  -13.7546  -49.2049 H         1 UNK         0.0600 
    187 H187       -2.7768  -13.1320  -50.3923 H         1 UNK         0.0600 
    188 H188       -2.2731  -14.3943  -49.2709 H         1 UNK         0.0600 
    189 H189       -1.5106  -13.1209  -46.6050 H         1 UNK         0.3000 
    190 H190        0.0476  -23.3124  -44.0474 H         1 UNK         0.3000 
    191 H191       -1.2501  -25.4330  -42.6597 H         1 UNK         0.0600 
    192 H192        0.9561  -24.4771  -41.9992 H         1 UNK         0.0600 
    193 H193        1.6860  -25.1047  -43.4768 H         1 UNK         0.0600 
    194 H194        1.0788  -26.2119  -42.2516 H         1 UNK         0.0600 
    195 H195       -0.2033  -25.1888  -46.0069 H         1 UNK         0.3000 
    196 H196       -0.2477  -28.0616  -46.5429 H         1 UNK         0.0600 
    197 H197        1.2265  -26.4596  -47.7964 H         1 UNK         0.0600 
    198 H198       -0.2039  -25.6676  -48.4503 H         1 UNK         0.0600 
    199 H199        0.1467  -27.3391  -48.8621 H         1 UNK         0.0600 
    200 H200       -2.7002  -25.8127  -45.9282 H         1 UNK         0.3000 
    201 H201       -4.8757  -25.6888  -46.1887 H         1 UNK         0.0600 
    202 H202       -4.8203  -27.9269  -45.1333 H         1 UNK         0.0600 
    203 H203       -4.7228  -28.7147  -46.7014 H         1 UNK         0.0600 
    204 H204       -6.1710  -27.8172  -46.2445 H         1 UNK         0.0600 
    205 H205       -5.7282  -28.0728  -48.4241 H         1 UNK         0.3000 
    206 H206       -6.5630  -26.2304  -50.4155 H         1 UNK         0.0600 
    207 H207       -6.2266  -29.2762  -50.5388 H         1 UNK         0.0600 
    208 H208       -7.6748  -28.4119  -50.0203 H         1 UNK         0.0600 
    209 H209       -7.1380  -28.3051  -51.6888 H         1 UNK         0.0600 
    210 H210       -3.5067  -27.9387  -50.0093 H         1 UNK         0.3000 
    211 H211       -2.6137  -27.5100  -52.7685 H         1 UNK         0.0600 
    212 H212       -1.1583  -28.6058  -50.3108 H         1 UNK         0.0600 
    213 H213       -0.5353  -28.5990  -51.9538 H         1 UNK         0.0600 
    214 H214       -1.9512  -29.5586  -51.5597 H         1 UNK         0.0600 
    215 H215       -2.9304  -25.4202  -50.1311 H         1 UNK         0.3000 
    216 H216       -0.4627  -23.9406  -50.3517 H         1 UNK         0.0600 
    217 H217       -1.5519  -22.3705  -48.8682 H         1 UNK         0.0600 
    218 H218       -2.0188  -23.9766  -48.3275 H         1 UNK         0.0600 
    219 H219       -3.1546  -22.9905  -49.2454 H         1 UNK         0.0600 
    220 H220       -3.3589  -24.0349  -52.2360 H         1 UNK         0.3000 
    221 H221       -4.2262  -22.9193  -53.9526 H         1 UNK         0.0600 
    222 H222       -1.3776  -21.8915  -54.4415 H         1 UNK         0.0600 
    223 H223       -2.0131  -23.4402  -54.9934 H         1 UNK         0.0600 
    224 H224       -2.6829  -21.9407  -55.6174 H         1 UNK         0.0600 
    225 H225       -4.9440  -21.7767  -51.7530 H         1 UNK         0.3000 
    226 H226       -4.1505  -19.3073  -50.9473 H         1 UNK         0.0600 
    227 H227       -5.6301  -20.8675  -49.6874 H         1 UNK         0.0600 
    228 H228       -6.3075  -19.2496  -49.7156 H         1 UNK         0.0600 
    229 H229       -6.9691  -20.4935  -50.7722 H         1 UNK         0.0600 
    230 H230       -5.9121  -19.7717  -53.8516 H         1 UNK         0.3000 
    231 H231       -7.1611  -17.1735  -54.0655 H         1 UNK         0.0600 
    232 H232       -7.4308  -17.8505  -56.4542 H         1 UNK         0.0600 
    233 H233       -7.9443  -19.1362  -55.3739 H         1 UNK         0.0600 
    234 H234       -6.3853  -19.2414  -56.1938 H         1 UNK         0.0600 
    235 H235       -3.8727  -18.3197  -54.4834 H         1 UNK         0.3000 
    236 H236       -3.0233  -15.6388  -55.4672 H         1 UNK         0.0600 
    237 H237       -2.2182  -18.3098  -56.7391 H         1 UNK         0.0600 
    238 H238       -3.2077  -17.0594  -57.4910 H         1 UNK         0.0600 
    239 H239       -1.5174  -16.7426  -57.1324 H         1 UNK         0.0600 
    240 H240       -2.2318  -18.6692  -53.7856 H         1 UNK         0.3000 
    241 H241       -0.7817  -19.2402  -52.2885 H         1 UNK         0.0600 
    242 H242        0.2223  -18.7907  -55.1914 H         1 UNK         0.3800 
    243 H243        1.9475  -18.9565  -54.9907 H         1 UNK         0.3800 
    244 H244       -0.1250  -16.3026  -51.7860 H         1 UNK         0.0800 
    245 H245        0.3069  -17.6237  -50.7401 H         1 UNK         0.0800 
    246 H246       -1.8027  -19.4229  -49.9042 H         1 UNK         0.0800 
    247 H247       -0.9825  -18.3448  -48.8064 H         1 UNK         0.0800 
@<TRIPOS>BOND
     1    1    2 1    
     2    1  127 1    
     3    1  128 1    
     4    1  129 1    
     5    2    3 2    
     6    2    4 am   BACKBONE|DICT|INTERRES
     7    4    5 1    
     8    4  130 1    
     9    5    6 1    
    10    5   65 1    
    11    5  131 1    
    12    6    7 1    
    13    6  132 1    
    14    6  133 1    
    15    7    8 1    
    16    8    9 1    
    17    8  134 1    
    18    8  135 1    
    19    9   10 ar   
    20    9   14 ar   
    21   10   11 ar   
    22   10  136 1    
    23   11   12 ar   
    24   11  126 1    
    25   12   13 ar   
    26   12  137 1    
    27   13   14 ar   
    28   13   15 1    
    29   14  138 1    
    30   15   16 1    
    31   15  139 1    
    32   15  140 1    
    33   16   17 1    
    34   17   18 1    
    35   17  141 1    
    36   17  142 1    
    37   18   19 1    
    38   18   67 1    
    39   18  143 1    
    40   19   20 am   BACKBONE|DICT|INTERRES
    41   19  144 1    
    42   20   21 2    
    43   20   22 1    
    44   22   23 1    
    45   22   24 1    
    46   22  145 1    
    47   23  146 1    
    48   23  147 1    
    49   23  148 1    
    50   24   25 am   BACKBONE|DICT|INTERRES
    51   24  149 1    
    52   25   26 2    
    53   25   27 1    
    54   27   28 1    
    55   27   29 1    
    56   27  150 1    
    57   28  151 1    
    58   28  152 1    
    59   28  153 1    
    60   29   30 am   BACKBONE|DICT|INTERRES
    61   29  154 1    
    62   30   31 2    
    63   30   32 1    
    64   32   33 1    
    65   32   34 1    
    66   32  155 1    
    67   33  156 1    
    68   33  157 1    
    69   33  158 1    
    70   34   35 am   BACKBONE|DICT|INTERRES
    71   34  159 1    
    72   35   36 2    
    73   35   37 1    
    74   37   38 1    
    75   37   39 1    
    76   37  160 1    
    77   38  161 1    
    78   38  162 1    
    79   38  163 1    
    80   39   40 am   BACKBONE|DICT|INTERRES
    81   39  164 1    
    82   40   41 2    
    83   40   42 1    
    84   42   43 1    
    85   42   44 1    
    86   42  165 1    
    87   43  166 1    
    88   43  167 1    
    89   43  168 1    
    90   44   45 am   BACKBONE|DICT|INTERRES
    91   44  169 1    
    92   45   46 2    
    93   45   47 1    
    94   47   48 1    
    95   47   49 1    
    96   47  170 1    
    97   48  171 1    
    98   48  172 1    
    99   48  173 1    
   100   49   50 am   BACKBONE|DICT|INTERRES
   101   49  174 1    
   102   50   51 2    
   103   50   52 1    
   104   52   53 1    
   105   52   54 1    
   106   52  175 1    
   107   53  176 1    
   108   53  177 1    
   109   53  178 1    
   110   54   55 am   BACKBONE|DICT|INTERRES
   111   54  179 1    
   112   55   56 2    
   113   55   57 1    
   114   57   58 1    
   115   57   59 1    
   116   57  180 1    
   117   58  181 1    
   118   58  182 1    
   119   58  183 1    
   120   59   60 am   BACKBONE|DICT|INTERRES
   121   59  184 1    
   122   60   61 2    
   123   60   62 1    
   124   62   63 1    
   125   62   64 1    
   126   62  185 1    
   127   63  186 1    
   128   63  187 1    
   129   63  188 1    
   130   64   65 am   BACKBONE|DICT|INTERRES
   131   64  189 1    
   132   65   66 2    
   133   67   68 2    
   134   67   69 am   BACKBONE|DICT|INTERRES
   135   69   70 1    
   136   69  190 1    
   137   70   71 1    
   138   70   72 1    
   139   70  191 1    
   140   71  192 1    
   141   71  193 1    
   142   71  194 1    
   143   72   73 2    
   144   72   74 am   BACKBONE|DICT|INTERRES
   145   74   75 1    
   146   74  195 1    
   147   75   76 1    
   148   75   77 1    
   149   75  196 1    
   150   76  197 1    
   151   76  198 1    
   152   76  199 1    
   153   77   78 2    
   154   77   79 am   BACKBONE|DICT|INTERRES
   155   79   80 1    
   156   79  200 1    
   157   80   81 1    
   158   80   82 1    
   159   80  201 1    
   160   81  202 1    
   161   81  203 1    
   162   81  204 1    
   163   82   83 2    
   164   82   84 am   BACKBONE|DICT|INTERRES
   165   84   85 1    
   166   84  205 1    
   167   85   86 1    
   168   85   87 1    
   169   85  206 1    
   170   86  207 1    
   171   86  208 1    
   172   86  209 1    
   173   87   88 2    
   174   87   89 am   BACKBONE|DICT|INTERRES
   175   89   90 1    
   176   89  210 1    
   177   90   91 1    
   178   90   92 1    
   179   90  211 1    
   180   91  212 1    
   181   91  213 1    
   182   91  214 1    
   183   92   93 2    
   184   92   94 am   BACKBONE|DICT|INTERRES
   185   94   95 1    
   186   94  215 1    
   187   95   96 1    
   188   95   97 1    
   189   95  216 1    
   190   96  217 1    
   191   96  218 1    
   192   96  219 1    
   193   97   98 2    
   194   97   99 am   BACKBONE|DICT|INTERRES
   195   99  100 1    
   196   99  220 1    
   197  100  101 1    
   198  100  102 1    
   199  100  221 1    
   200  101  222 1    
   201  101  223 1    
   202  101  224 1    
   203  102  103 2    
   204  102  104 am   BACKBONE|DICT|INTERRES
   205  104  105 1    
   206  104  225 1    
   207  105  106 1    
   208  105  107 1    
   209  105  226 1    
   210  106  227 1    
   211  106  228 1    
   212  106  229 1    
   213  107  108 2    
   214  107  109 am   BACKBONE|DICT|INTERRES
   215  109  110 1    
   216  109  230 1    
   217  110  111 1    
   218  110  112 1    
   219  110  231 1    
   220  111  232 1    
   221  111  233 1    
   222  111  234 1    
   223  112  113 2    
   224  112  114 am   BACKBONE|DICT|INTERRES
   225  114  115 1    
   226  114  235 1    
   227  115  116 1    
   228  115  117 1    
   229  115  236 1    
   230  116  237 1    
   231  116  238 1    
   232  116  239 1    
   233  117  118 2    
   234  117  119 am   BACKBONE|DICT|INTERRES
   235  119  120 1    
   236  119  240 1    
   237  120  121 1    
   238  120  124 1    
   239  120  241 1    
   240  121  122 am   BACKBONE|DICT|INTERRES
   241  121  123 2    
   242  122  242 1    
   243  122  243 1    
   244  124  125 1    
   245  124  244 1    
   246  124  245 1    
   247  125  126 1    
   248  126  246 1    
   249  126  247 1    
@<TRIPOS>SUBSTRUCTURE
     1 UNK         1 GROUP             0       ****    0 ROOT    
