@<TRIPOS>MOLECULE
3R540
247   249    1
SMALL
USER_CHARGES


@<TRIPOS>ATOM
      1 CA          5.0398  -21.4407  -47.1747 C.3       0 UNK        -0.1800 
      2 C           4.8932  -19.9461  -47.4246 C.2       0 UNK         0.5000 
      3 O           5.8670  -19.2871  -47.7856 O.2       0 UNK        -0.5000 
      4 N           3.6806  -19.4101  -47.2223 N.am      1 UNK        -0.5000 
      5 CA          3.2990  -18.0019  -47.4317 C.3       1 UNK         0.1400 
      6 C6          3.5456  -17.5182  -48.8884 C.3       23 UNK        -0.0398 
      7 S7          2.3047  -16.3094  -49.4684 S.3       23 UNK        -0.2404 
      8 C8          2.3097  -16.6248  -51.2626 C.3       23 UNK        -0.0205 
      9 C9          1.1045  -17.4444  -51.7011 C.ar      23 UNK        -0.0193 
     10 C10         0.0985  -16.8513  -52.4654 C.ar      23 UNK        -0.1150 
     11 C11        -1.0017  -17.5967  -52.8925 C.ar      23 UNK        -0.0193 
     12 C12        -1.1054  -18.9427  -52.5275 C.ar      23 UNK        -0.1150 
     13 C13        -0.1097  -19.5571  -51.7585 C.ar      23 UNK        -0.0193 
     14 C14         1.0007  -18.7961  -51.3631 C.ar      23 UNK        -0.1150 
     15 C15        -0.2769  -21.0393  -51.4033 C.3       23 UNK        -0.0205 
     16 S16         1.0414  -21.7761  -50.3696 S.3       23 UNK        -0.2404 
     17 C17         0.6628  -21.0633  -48.7328 C.3       23 UNK        -0.0398 
     18 CA          0.8974  -22.0743  -47.5837 C.3       11 UNK         0.1400 
     19 N           1.0533  -21.4222  -46.2786 N.am      11 UNK        -0.5000 
     20 C           1.5553  -22.0314  -45.1912 C.2       10 UNK         0.5000 
     21 O           2.0273  -23.1658  -45.2048 O.2       10 UNK        -0.5000 
     22 CA          1.4918  -21.2592  -43.8605 C.3       10 UNK         0.1400 
     23 CB          2.7245  -20.3587  -43.7004 C.3       10 UNK        -0.1800 
     24 N           0.2838  -20.4441  -43.7459 N.am      10 UNK        -0.5000 
     25 C          -0.9550  -20.9391  -43.6251 C.2       9 UNK         0.5000 
     26 O          -1.2007  -22.1406  -43.5272 O.2       9 UNK        -0.5000 
     27 CA         -2.1101  -19.9202  -43.6833 C.3       9 UNK         0.1400 
     28 CB         -2.4768  -19.4473  -42.2698 C.3       9 UNK        -0.1800 
     29 N          -1.8308  -18.7567  -44.5349 N.am      9 UNK        -0.5000 
     30 C          -1.5470  -18.8135  -45.8447 C.2       8 UNK         0.5000 
     31 O          -1.4361  -19.8684  -46.4711 O.2       8 UNK        -0.5000 
     32 CA         -1.3104  -17.4647  -46.5469 C.3       8 UNK         0.1400 
     33 CB         -1.1215  -17.5893  -48.0743 C.3       8 UNK        -0.1800 
     34 N          -2.3458  -16.4857  -46.2050 N.am      8 UNK        -0.5000 
     35 C          -3.6498  -16.5454  -46.5117 C.2       7 UNK         0.5000 
     36 O          -4.1591  -17.4412  -47.1869 O.2       7 UNK        -0.5000 
     37 CA         -4.5136  -15.3733  -46.0060 C.3       7 UNK         0.1400 
     38 CB         -6.0293  -15.6497  -46.0949 C.3       7 UNK        -0.1800 
     39 N          -4.1229  -14.9186  -44.6685 N.am      7 UNK        -0.5000 
     40 C          -4.2168  -15.5928  -43.5118 C.2       6 UNK         0.5000 
     41 O          -4.6968  -16.7224  -43.4194 O.2       6 UNK        -0.5000 
     42 CA         -3.6637  -14.8928  -42.2512 C.3       6 UNK         0.1400 
     43 CB         -3.0564  -15.8948  -41.2541 C.3       6 UNK        -0.1800 
     44 N          -2.6435  -13.9011  -42.5951 N.am      6 UNK        -0.5000 
     45 C          -2.8480  -12.5830  -42.7253 C.2       5 UNK         0.5000 
     46 O          -3.9284  -12.0362  -42.5044 O.2       5 UNK        -0.5000 
     47 CA         -1.6577  -11.7314  -43.2155 C.3       5 UNK         0.1400 
     48 CB         -0.9924  -11.0110  -42.0331 C.3       5 UNK        -0.1800 
     49 N          -0.6365  -12.4963  -43.9375 N.am      5 UNK        -0.5000 
     50 C          -0.8110  -13.1059  -45.1190 C.2       4 UNK         0.5000 
     51 O          -1.8660  -13.0848  -45.7527 O.2       4 UNK        -0.5000 
     52 CA          0.3726  -13.9444  -45.6390 C.3       4 UNK         0.1400 
     53 CB          1.3350  -13.0695  -46.4544 C.3       4 UNK        -0.1800 
     54 N           1.1156  -14.6269  -44.5727 N.am      4 UNK        -0.5000 
     55 C           0.5982  -15.5052  -43.7017 C.2       3 UNK         0.5000 
     56 O          -0.5805  -15.8688  -43.7280 O.2       3 UNK        -0.5000 
     57 CA          1.5683  -16.0782  -42.6527 C.3       3 UNK         0.1400 
     58 CB          0.9267  -17.1774  -41.7879 C.3       3 UNK        -0.1800 
     59 N           2.7467  -16.6281  -43.3188 N.am      3 UNK        -0.5000 
     60 C           3.9647  -16.0727  -43.3442 C.2       2 UNK         0.5000 
     61 O           4.2521  -15.0203  -42.7741 O.2       2 UNK        -0.5000 
     62 CA          5.0357  -16.8103  -44.1733 C.3       2 UNK         0.1400 
     63 CB          5.8423  -17.7642  -43.2792 C.3       2 UNK        -0.1800 
     64 N           4.4790  -17.5708  -45.2974 N.am      2 UNK        -0.5000 
     65 C           3.8806  -17.0317  -46.3704 C.2       1 UNK         0.5000 
     66 O           3.7474  -15.8169  -46.5132 O.2       1 UNK        -0.5000 
     67 C          -0.2132  -23.1376  -47.5179 C.2       11 UNK         0.5000 
     68 O           0.0112  -24.2659  -47.9521 O.2       11 UNK        -0.5000 
     69 N          -1.3497  -22.7785  -46.9002 N.am      12 UNK        -0.5000 
     70 CA         -2.4925  -23.6629  -46.6634 C.3       12 UNK         0.1400 
     71 CB         -3.6142  -22.8862  -45.9576 C.3       12 UNK        -0.1800 
     72 C          -2.1210  -24.9328  -45.8742 C.2       12 UNK         0.5000 
     73 O          -2.5779  -26.0212  -46.2231 O.2       12 UNK        -0.5000 
     74 N          -1.2657  -24.7769  -44.8559 N.am      13 UNK        -0.5000 
     75 CA         -0.6974  -25.8759  -44.0801 C.3       13 UNK         0.1400 
     76 CB         -0.0354  -25.3099  -42.8142 C.3       13 UNK        -0.1800 
     77 C           0.3059  -26.7258  -44.8847 C.2       13 UNK         0.5000 
     78 O           0.2584  -27.9538  -44.8016 O.2       13 UNK        -0.5000 
     79 N           1.2090  -26.0656  -45.6225 N.am      14 UNK        -0.5000 
     80 CA          2.3216  -26.7079  -46.3222 C.3       14 UNK         0.1400 
     81 CB          3.4195  -25.6682  -46.5987 C.3       14 UNK        -0.1800 
     82 C           1.9272  -27.4158  -47.6301 C.2       14 UNK         0.5000 
     83 O           2.4189  -28.5169  -47.8836 O.2       14 UNK        -0.5000 
     84 N           1.1028  -26.7629  -48.4585 N.am      15 UNK        -0.5000 
     85 CA          0.8874  -27.1364  -49.8596 C.3       15 UNK         0.1400 
     86 CB          1.9091  -26.3806  -50.7319 C.3       15 UNK        -0.1800 
     87 C          -0.5559  -26.9053  -50.3448 C.2       15 UNK         0.5000 
     88 O          -0.7940  -26.9702  -51.5525 O.2       15 UNK        -0.5000 
     89 N          -1.4911  -26.6604  -49.4156 N.am      16 UNK        -0.5000 
     90 CA         -2.8993  -26.3189  -49.6532 C.3       16 UNK         0.1400 
     91 CB         -3.6357  -27.4563  -50.3979 C.3       16 UNK        -0.1800 
     92 C          -3.0784  -24.9349  -50.3192 C.2       16 UNK         0.5000 
     93 O          -2.1364  -24.1416  -50.3703 O.2       16 UNK        -0.5000 
     94 N          -4.3099  -24.6509  -50.7663 N.am      17 UNK        -0.5000 
     95 CA         -4.7851  -23.3545  -51.2636 C.3       17 UNK         0.1400 
     96 CB         -4.0172  -22.9279  -52.5364 C.3       17 UNK        -0.1800 
     97 C          -4.8032  -22.2781  -50.1527 C.2       17 UNK         0.5000 
     98 O          -4.8929  -22.6198  -48.9722 O.2       17 UNK        -0.5000 
     99 N          -4.7662  -21.0037  -50.5494 N.am      18 UNK        -0.5000 
    100 CA        -4.8040  -19.8098  -49.7092 C.3       18 UNK         0.1400 
    101 CB        -6.1903  -19.6559  -49.0502 C.3       18 UNK        -0.1800 
    102 C         -4.5046  -18.6079  -50.6167 C.2       18 UNK         0.5000 
    103 O         -4.5000  -18.7614  -51.8413 O.2       18 UNK        -0.5000 
    104 N         -4.3081  -17.4249  -50.0202 N.am      19 UNK        -0.5000 
    105 CA        -4.0149  -16.1661  -50.7198 C.3       19 UNK         0.1400 
    106 CB        -3.8260  -15.0341  -49.7006 C.3       19 UNK        -0.1800 
    107 C         -5.0689  -15.7596  -51.7712 C.2       19 UNK         0.5000 
    108 O         -4.7206  -15.1455  -52.7798 O.2       19 UNK        -0.5000 
    109 N         -6.3309  -16.1409  -51.5332 N.am      20 UNK        -0.5000 
    110 CA        -7.4608  -15.9159  -52.4345 C.3       20 UNK         0.1400 
    111 CB        -8.7612  -16.2530  -51.6895 C.3       20 UNK        -0.1800 
    112 C         -7.3771  -16.7114  -53.7533 C.2       20 UNK         0.5000 
    113 O         -7.9577  -16.2790  -54.7503 O.2       20 UNK        -0.5000 
    114 N         -6.6528  -17.8422  -53.7568 N.am      21 UNK        -0.5000 
    115 CA        -6.5102  -18.7320  -54.9151 C.3       21 UNK         0.1400 
    116 CB        -5.8686  -20.0529  -54.4672 C.3       21 UNK        -0.1800 
    117 C         -5.7072  -18.1126  -56.0751 C.2       21 UNK         0.5000 
    118 O         -5.8619  -18.5473  -57.2171 O.2       21 UNK        -0.5000 
    119 N         -4.8851  -17.1030  -55.7667 N.am      22 UNK        -0.5000 
    120 CA        -4.1403  -16.2974  -56.7445 C.3       22 UNK         0.1400 
    121 C         -5.0022  -15.1979  -57.4371 C.2       22 UNK         0.5000 
    122 N         -6.2563  -14.9784  -57.0546 N.am      22 UNK        -0.7600 
    123 O         -4.5255  -14.5335  -58.3533 O.2       22 UNK        -0.5000 
    124 C124       -2.8573  -15.6890  -56.1233 C.3       23 UNK        -0.0398 
    125 S125       -1.6835  -16.9460  -55.5017 S.3       23 UNK        -0.2404 
    126 C126       -2.0804  -16.9285  -53.7286 C.3       23 UNK        -0.0205 
    127 H127        4.1000  -21.8998  -46.8699 H         1 UNK         0.0600 
    128 H128        5.7743  -21.6198  -46.3896 H         1 UNK         0.0600 
    129 H129        5.3804  -21.9402  -48.0817 H         1 UNK         0.0600 
    130 H130        2.9335  -20.0212  -46.9285 H         1 UNK         0.3000 
    131 H131        2.2216  -17.9918  -47.2598 H         1 UNK         0.0600 
    132 H132        4.5436  -17.0910  -49.0024 H         1 UNK         0.0800 
    133 H133        3.5182  -18.3730  -49.5638 H         1 UNK         0.0800 
    134 H134        2.3180  -15.6619  -51.7756 H         1 UNK         0.0800 
    135 H135        3.2286  -17.1291  -51.5645 H         1 UNK         0.0800 
    136 H136        0.1745  -15.8083  -52.7394 H         1 UNK         0.1150 
    137 H137       -1.9652  -19.5149  -52.8482 H         1 UNK         0.1150 
    138 H138        1.7961  -19.2415  -50.7884 H         1 UNK         0.1150 
    139 H139       -1.2390  -21.1888  -50.9100 H         1 UNK         0.0800 
    140 H140       -0.3229  -21.6078  -52.3330 H         1 UNK         0.0800 
    141 H141        1.3083  -20.1952  -48.6063 H         1 UNK         0.0800 
    142 H142       -0.3590  -20.6808  -48.7211 H         1 UNK         0.0800 
    143 H143        1.8342  -22.5973  -47.7903 H         1 UNK         0.0600 
    144 H144        0.5354  -20.5630  -46.1519 H         1 UNK         0.3000 
    145 H145        1.4925  -21.9914  -43.0500 H         1 UNK         0.0600 
    146 H146        2.7377  -19.8792  -42.7212 H         1 UNK         0.0600 
    147 H147        3.6465  -20.9349  -43.7913 H         1 UNK         0.0600 
    148 H148        2.7456  -19.5782  -44.4583 H         1 UNK         0.0600 
    149 H149        0.3895  -19.4443  -43.8055 H         1 UNK         0.3000 
    150 H150       -2.9773  -20.4308  -44.1052 H         1 UNK         0.0600 
    151 H151       -2.7024  -20.2945  -41.6208 H         1 UNK         0.0600 
    152 H152       -3.3613  -18.8113  -42.2854 H         1 UNK         0.0600 
    153 H153       -1.6654  -18.8867  -41.8059 H         1 UNK         0.0600 
    154 H154       -1.8933  -17.8463  -44.0981 H         1 UNK         0.3000 
    155 H155       -0.3738  -17.0797  -46.1447 H         1 UNK         0.0600 
    156 H156       -0.9887  -16.6129  -48.5396 H         1 UNK         0.0600 
    157 H157       -1.9668  -18.0805  -48.5550 H         1 UNK         0.0600 
    158 H158       -0.2337  -18.1754  -48.3104 H         1 UNK         0.0600 
    159 H159       -2.0467  -15.7299  -45.6038 H         1 UNK         0.3000 
    160 H160       -4.2985  -14.5372  -46.6725 H         1 UNK         0.0600 
    161 H161       -6.3186  -16.5258  -45.5141 H         1 UNK         0.0600 
    162 H162       -6.3324  -15.8313  -47.1267 H         1 UNK         0.0600 
    163 H163       -6.6074  -14.7997  -45.7328 H         1 UNK         0.0600 
    164 H164       -3.6752  -14.0115  -44.6430 H         1 UNK         0.3000 
    165 H165       -4.5087  -14.4058  -41.7608 H         1 UNK         0.0600 
    166 H166       -2.2525  -16.4722  -41.7084 H         1 UNK         0.0600 
    167 H167       -2.6509  -15.3857  -40.3797 H         1 UNK         0.0600 
    168 H168       -3.8074  -16.6005  -40.8970 H         1 UNK         0.0600 
    169 H169       -1.7392  -14.2804  -42.8461 H         1 UNK         0.3000 
    170 H170       -2.0559  -10.9771  -43.8974 H         1 UNK         0.0600 
    171 H171       -1.7160  -10.4038  -41.4873 H         1 UNK         0.0600 
    172 H172       -0.5566  -11.7173  -41.3253 H         1 UNK         0.0600 
    173 H173       -0.2010  -10.3424  -42.3724 H         1 UNK         0.0600 
    174 H174        0.2639  -12.5787  -43.4885 H         1 UNK         0.3000 
    175 H175       -0.0309  -14.7058  -46.3075 H         1 UNK         0.0600 
    176 H176        1.8204  -12.3155  -45.8338 H         1 UNK         0.0600 
    177 H177        2.1135  -13.6718  -46.9228 H         1 UNK         0.0600 
    178 H178        0.8075  -12.5484  -47.2546 H         1 UNK         0.0600 
    179 H179        2.1014  -14.4140  -44.5083 H         1 UNK         0.3000 
    180 H180        1.8487  -15.2559  -41.9916 H         1 UNK         0.0600 
    181 H181        0.5611  -18.0060  -42.3919 H         1 UNK         0.0600 
    182 H182        0.0837  -16.7848  -41.2190 H         1 UNK         0.0600 
    183 H183        1.6408  -17.5784  -41.0686 H         1 UNK         0.0600 
    184 H184        2.6093  -17.4704  -43.8532 H         1 UNK         0.3000 
    185 H185        5.7171  -16.0585  -44.5772 H         1 UNK         0.0600 
    186 H186        6.6500  -18.2392  -43.8365 H         1 UNK         0.0600 
    187 H187        6.2970  -17.2272  -42.4456 H         1 UNK         0.0600 
    188 H188        5.2151  -18.5515  -42.8591 H         1 UNK         0.0600 
    189 H189        4.5998  -18.5718  -45.2716 H         1 UNK         0.3000 
    190 H190       -1.4499  -21.8148  -46.5972 H         1 UNK         0.3000 
    191 H191       -2.8629  -23.9714  -47.6398 H         1 UNK         0.0600 
    192 H192       -3.8373  -21.9518  -46.4736 H         1 UNK         0.0600 
    193 H193       -4.5330  -23.4732  -45.9387 H         1 UNK         0.0600 
    194 H194       -3.3603  -22.6495  -44.9257 H         1 UNK         0.0600 
    195 H195       -0.9994  -23.8362  -44.5839 H         1 UNK         0.3000 
    196 H196       -1.5149  -26.5299  -43.7693 H         1 UNK         0.0600 
    197 H197        0.3841  -26.1086  -42.2013 H         1 UNK         0.0600 
    198 H198       -0.7576  -24.7723  -42.1994 H         1 UNK         0.0600 
    199 H199        0.7742  -24.6203  -43.0563 H         1 UNK         0.0600 
    200 H200        1.2021  -25.0519  -45.6230 H         1 UNK         0.3000 
    201 H201        2.7479  -27.4634  -45.6584 H         1 UNK         0.0600 
    202 H202        3.7964  -25.2369  -45.6713 H         1 UNK         0.0600 
    203 H203        3.0531  -24.8524  -47.2233 H         1 UNK         0.0600 
    204 H204        4.2682  -26.1203  -47.1136 H         1 UNK         0.0600 
    205 H205        0.7359  -25.8504  -48.1831 H         1 UNK         0.3000 
    206 H206        1.0617  -28.2069  -49.9844 H         1 UNK         0.0600 
    207 H207        2.9317  -26.5978  -50.4233 H         1 UNK         0.0600 
    208 H208        1.8242  -26.6639  -51.7816 H         1 UNK         0.0600 
    209 H209        1.7615  -25.3014  -50.6679 H         1 UNK         0.0600 
    210 H210       -1.1871  -26.5898  -48.4546 H         1 UNK         0.3000 
    211 H211       -3.3563  -26.2371  -48.6682 H         1 UNK         0.0600 
    212 H212       -3.3691  -27.4930  -51.4545 H         1 UNK         0.0600 
    213 H213       -4.7173  -27.3341  -50.3389 H         1 UNK         0.0600 
    214 H214       -3.4035  -28.4276  -49.9608 H         1 UNK         0.0600 
    215 H215       -5.0270  -25.3523  -50.6501 H         1 UNK         0.3000 
    216 H216       -5.8268  -23.5098  -51.5473 H         1 UNK         0.0600 
    217 H217       -3.9457  -23.7517  -53.2466 H         1 UNK         0.0600 
    218 H218       -3.0037  -22.5939  -52.3122 H         1 UNK         0.0600 
    219 H219       -4.5240  -22.1124  -53.0495 H         1 UNK         0.0600 
    220 H220       -4.6721  -20.7829  -51.5338 H         1 UNK         0.3000 
    221 H221       -4.0265  -19.8787  -48.9453 H         1 UNK         0.0600 
    222 H222       -6.9851  -19.6074  -49.7956 H         1 UNK         0.0600 
    223 H223       -6.4103  -20.4868  -48.3806 H         1 UNK         0.0600 
    224 H224       -6.2457  -18.7468  -48.4505 H         1 UNK         0.0600 
    225 H225       -4.3189  -17.3925  -49.0020 H         1 UNK         0.3000 
    226 H226       -3.0659  -16.3034  -51.2360 H         1 UNK         0.0600 
    227 H227       -3.6203  -14.0869  -50.2012 H         1 UNK         0.0600 
    228 H228       -4.7175  -14.8942  -49.0890 H         1 UNK         0.0600 
    229 H229       -2.9825  -15.2333  -49.0411 H         1 UNK         0.0600 
    230 H230       -6.5225  -16.6473  -50.6817 H         1 UNK         0.3000 
    231 H231       -7.4795  -14.8552  -52.6935 H         1 UNK         0.0600 
    232 H232       -9.6321  -16.0714  -52.3208 H         1 UNK         0.0600 
    233 H233       -8.8757  -15.6383  -50.7965 H         1 UNK         0.0600 
    234 H234       -8.7898  -17.2998  -51.3838 H         1 UNK         0.0600 
    235 H235       -6.1387  -18.1053  -52.9234 H         1 UNK         0.3000 
    236 H236       -7.5119  -18.9521  -55.2901 H         1 UNK         0.0600 
    237 H237       -6.4078  -20.4924  -53.6279 H         1 UNK         0.0600 
    238 H238       -5.8759  -20.7827  -55.2777 H         1 UNK         0.0600 
    239 H239       -4.8294  -19.9110  -54.1690 H         1 UNK         0.0600 
    240 H240       -4.8398  -16.7951  -54.8060 H         1 UNK         0.3000 
    241 H241       -3.8199  -16.9631  -57.5483 H         1 UNK         0.0600 
    242 H242       -6.7947  -14.2661  -57.5220 H         1 UNK         0.3800 
    243 H243       -6.6831  -15.5161  -56.3108 H         1 UNK         0.3800 
    244 H244       -3.1153  -14.9897  -55.3262 H         1 UNK         0.0800 
    245 H245       -2.3200  -15.1016  -56.8699 H         1 UNK         0.0800 
    246 H246       -2.1965  -15.8960  -53.3975 H         1 UNK         0.0800 
    247 H247       -3.0402  -17.4203  -53.5722 H         1 UNK         0.0800 
@<TRIPOS>BOND
     1    1    2 1    
     2    1  127 1    
     3    1  128 1    
     4    1  129 1    
     5    2    3 2    
     6    2    4 am   BACKBONE|DICT|INTERRES
     7    4    5 1    
     8    4  130 1    
     9    5    6 1    
    10    5   65 1    
    11    5  131 1    
    12    6    7 1    
    13    6  132 1    
    14    6  133 1    
    15    7    8 1    
    16    8    9 1    
    17    8  134 1    
    18    8  135 1    
    19    9   10 ar   
    20    9   14 ar   
    21   10   11 ar   
    22   10  136 1    
    23   11   12 ar   
    24   11  126 1    
    25   12   13 ar   
    26   12  137 1    
    27   13   14 ar   
    28   13   15 1    
    29   14  138 1    
    30   15   16 1    
    31   15  139 1    
    32   15  140 1    
    33   16   17 1    
    34   17   18 1    
    35   17  141 1    
    36   17  142 1    
    37   18   19 1    
    38   18   67 1    
    39   18  143 1    
    40   19   20 am   BACKBONE|DICT|INTERRES
    41   19  144 1    
    42   20   21 2    
    43   20   22 1    
    44   22   23 1    
    45   22   24 1    
    46   22  145 1    
    47   23  146 1    
    48   23  147 1    
    49   23  148 1    
    50   24   25 am   BACKBONE|DICT|INTERRES
    51   24  149 1    
    52   25   26 2    
    53   25   27 1    
    54   27   28 1    
    55   27   29 1    
    56   27  150 1    
    57   28  151 1    
    58   28  152 1    
    59   28  153 1    
    60   29   30 am   BACKBONE|DICT|INTERRES
    61   29  154 1    
    62   30   31 2    
    63   30   32 1    
    64   32   33 1    
    65   32   34 1    
    66   32  155 1    
    67   33  156 1    
    68   33  157 1    
    69   33  158 1    
    70   34   35 am   BACKBONE|DICT|INTERRES
    71   34  159 1    
    72   35   36 2    
    73   35   37 1    
    74   37   38 1    
    75   37   39 1    
    76   37  160 1    
    77   38  161 1    
    78   38  162 1    
    79   38  163 1    
    80   39   40 am   BACKBONE|DICT|INTERRES
    81   39  164 1    
    82   40   41 2    
    83   40   42 1    
    84   42   43 1    
    85   42   44 1    
    86   42  165 1    
    87   43  166 1    
    88   43  167 1    
    89   43  168 1    
    90   44   45 am   BACKBONE|DICT|INTERRES
    91   44  169 1    
    92   45   46 2    
    93   45   47 1    
    94   47   48 1    
    95   47   49 1    
    96   47  170 1    
    97   48  171 1    
    98   48  172 1    
    99   48  173 1    
   100   49   50 am   BACKBONE|DICT|INTERRES
   101   49  174 1    
   102   50   51 2    
   103   50   52 1    
   104   52   53 1    
   105   52   54 1    
   106   52  175 1    
   107   53  176 1    
   108   53  177 1    
   109   53  178 1    
   110   54   55 am   BACKBONE|DICT|INTERRES
   111   54  179 1    
   112   55   56 2    
   113   55   57 1    
   114   57   58 1    
   115   57   59 1    
   116   57  180 1    
   117   58  181 1    
   118   58  182 1    
   119   58  183 1    
   120   59   60 am   BACKBONE|DICT|INTERRES
   121   59  184 1    
   122   60   61 2    
   123   60   62 1    
   124   62   63 1    
   125   62   64 1    
   126   62  185 1    
   127   63  186 1    
   128   63  187 1    
   129   63  188 1    
   130   64   65 am   BACKBONE|DICT|INTERRES
   131   64  189 1    
   132   65   66 2    
   133   67   68 2    
   134   67   69 am   BACKBONE|DICT|INTERRES
   135   69   70 1    
   136   69  190 1    
   137   70   71 1    
   138   70   72 1    
   139   70  191 1    
   140   71  192 1    
   141   71  193 1    
   142   71  194 1    
   143   72   73 2    
   144   72   74 am   BACKBONE|DICT|INTERRES
   145   74   75 1    
   146   74  195 1    
   147   75   76 1    
   148   75   77 1    
   149   75  196 1    
   150   76  197 1    
   151   76  198 1    
   152   76  199 1    
   153   77   78 2    
   154   77   79 am   BACKBONE|DICT|INTERRES
   155   79   80 1    
   156   79  200 1    
   157   80   81 1    
   158   80   82 1    
   159   80  201 1    
   160   81  202 1    
   161   81  203 1    
   162   81  204 1    
   163   82   83 2    
   164   82   84 am   BACKBONE|DICT|INTERRES
   165   84   85 1    
   166   84  205 1    
   167   85   86 1    
   168   85   87 1    
   169   85  206 1    
   170   86  207 1    
   171   86  208 1    
   172   86  209 1    
   173   87   88 2    
   174   87   89 am   BACKBONE|DICT|INTERRES
   175   89   90 1    
   176   89  210 1    
   177   90   91 1    
   178   90   92 1    
   179   90  211 1    
   180   91  212 1    
   181   91  213 1    
   182   91  214 1    
   183   92   93 2    
   184   92   94 am   BACKBONE|DICT|INTERRES
   185   94   95 1    
   186   94  215 1    
   187   95   96 1    
   188   95   97 1    
   189   95  216 1    
   190   96  217 1    
   191   96  218 1    
   192   96  219 1    
   193   97   98 2    
   194   97   99 am   BACKBONE|DICT|INTERRES
   195   99  100 1    
   196   99  220 1    
   197  100  101 1    
   198  100  102 1    
   199  100  221 1    
   200  101  222 1    
   201  101  223 1    
   202  101  224 1    
   203  102  103 2    
   204  102  104 am   BACKBONE|DICT|INTERRES
   205  104  105 1    
   206  104  225 1    
   207  105  106 1    
   208  105  107 1    
   209  105  226 1    
   210  106  227 1    
   211  106  228 1    
   212  106  229 1    
   213  107  108 2    
   214  107  109 am   BACKBONE|DICT|INTERRES
   215  109  110 1    
   216  109  230 1    
   217  110  111 1    
   218  110  112 1    
   219  110  231 1    
   220  111  232 1    
   221  111  233 1    
   222  111  234 1    
   223  112  113 2    
   224  112  114 am   BACKBONE|DICT|INTERRES
   225  114  115 1    
   226  114  235 1    
   227  115  116 1    
   228  115  117 1    
   229  115  236 1    
   230  116  237 1    
   231  116  238 1    
   232  116  239 1    
   233  117  118 2    
   234  117  119 am   BACKBONE|DICT|INTERRES
   235  119  120 1    
   236  119  240 1    
   237  120  121 1    
   238  120  124 1    
   239  120  241 1    
   240  121  122 am   BACKBONE|DICT|INTERRES
   241  121  123 2    
   242  122  242 1    
   243  122  243 1    
   244  124  125 1    
   245  124  244 1    
   246  124  245 1    
   247  125  126 1    
   248  126  246 1    
   249  126  247 1    
@<TRIPOS>SUBSTRUCTURE
     1 UNK         1 GROUP             0       ****    0 ROOT    
