@<TRIPOS>MOLECULE
3R540
247   249    1
SMALL
USER_CHARGES


@<TRIPOS>ATOM
      1 CA         -2.8072  -10.9051  -45.1578 C.3       0 UNK        -0.1800 
      2 C          -1.6982  -11.7702  -45.7364 C.2       0 UNK         0.5000 
      3 O          -1.3922  -12.8238  -45.1779 O.2       0 UNK        -0.5000 
      4 N          -1.0839  -11.3271  -46.8420 N.am      1 UNK        -0.5000 
      5 CA         -0.0206  -11.9850  -47.6205 C.3       1 UNK         0.1400 
      6 C6         -0.4316  -13.3901  -48.1432 C.3       23 UNK        -0.0398 
      7 S7          0.5672  -13.9384  -49.5692 S.3       23 UNK        -0.2404 
      8 C8         -0.7074  -14.3941  -50.7883 C.3       23 UNK        -0.0205 
      9 C9         -1.3155  -15.7618  -50.5086 C.ar      23 UNK        -0.0193 
     10 C10        -2.6895  -15.9028  -50.2897 C.ar      23 UNK        -0.1150 
     11 C11        -3.2563  -17.1695  -50.0990 C.ar      23 UNK        -0.0193 
     12 C12        -2.4252  -18.2935  -50.0847 C.ar      23 UNK        -0.1150 
     13 C13        -1.0482  -18.1650  -50.2911 C.ar      23 UNK        -0.0193 
     14 C14        -0.5042  -16.8993  -50.5184 C.ar      23 UNK        -0.1150 
     15 C15        -0.1459  -19.3914  -50.2695 C.3       23 UNK        -0.0205 
     16 S16         1.0871  -19.3393  -48.9252 S.3       23 UNK        -0.2404 
     17 C17         0.0374  -19.1885  -47.4406 C.3       23 UNK        -0.0398 
     18 CA         -0.2344  -20.5379  -46.7387 C.3       11 UNK         0.1400 
     19 N          -0.6316  -20.3378  -45.3448 N.am      11 UNK        -0.5000 
     20 C          -0.8326  -21.3164  -44.4517 C.2       10 UNK         0.5000 
     21 O          -0.6400  -22.5095  -44.6806 O.2       10 UNK        -0.5000 
     22 CA         -1.3873  -20.8896  -43.0850 C.3       10 UNK         0.1400 
     23 CB         -0.2463  -20.4546  -42.1611 C.3       10 UNK        -0.1800 
     24 N          -2.3619  -19.8060  -43.2116 N.am      10 UNK        -0.5000 
     25 C          -3.5872  -19.9648  -43.7310 C.2       9 UNK         0.5000 
     26 O          -4.0282  -21.0454  -44.1240 O.2       9 UNK        -0.5000 
     27 CA         -4.4446  -18.6950  -43.8740 C.3       9 UNK         0.1400 
     28 CB         -5.0496  -18.2887  -42.5218 C.3       9 UNK        -0.1800 
     29 N          -3.6990  -17.5660  -44.4326 N.am      9 UNK        -0.5000 
     30 C          -3.1892  -17.5328  -45.6717 C.2       8 UNK         0.5000 
     31 O          -3.2824  -18.4591  -46.4742 O.2       8 UNK        -0.5000 
     32 CA         -2.4321  -16.2584  -46.0817 C.3       8 UNK         0.1400 
     33 CB         -3.4307  -15.2076  -46.5900 C.3       8 UNK        -0.1800 
     34 N          -1.6309  -15.6556  -45.0156 N.am      8 UNK        -0.5000 
     35 C          -0.7030  -16.2516  -44.2560 C.2       7 UNK         0.5000 
     36 O          -0.4066  -17.4473  -44.3379 O.2       7 UNK        -0.5000 
     37 CA          0.0002  -15.3097  -43.2582 C.3       7 UNK         0.1400 
     38 CB         -0.9831  -14.7317  -42.2179 C.3       7 UNK        -0.1800 
     39 N           1.1874  -15.8859  -42.6191 N.am      7 UNK        -0.5000 
     40 C           1.2472  -16.8392  -41.6772 C.2       6 UNK         0.5000 
     41 O           0.2568  -17.3547  -41.1585 O.2       6 UNK        -0.5000 
     42 CA          2.6456  -17.2845  -41.2040 C.3       6 UNK         0.1400 
     43 CB          2.9329  -18.7422  -41.6015 C.3       6 UNK        -0.1800 
     44 N           3.7246  -16.4396  -41.7208 N.am      6 UNK        -0.5000 
     45 C           4.7870  -16.0276  -41.0187 C.2       5 UNK         0.5000 
     46 O           4.9429  -16.2474  -39.8156 O.2       5 UNK        -0.5000 
     47 CA          5.8638  -15.2641  -41.8210 C.3       5 UNK         0.1400 
     48 CB          7.1784  -15.0601  -41.0394 C.3       5 UNK        -0.1800 
     49 N           6.1231  -15.8785  -43.1295 N.am      5 UNK        -0.5000 
     50 C           6.5531  -17.1247  -43.3826 C.2       4 UNK         0.5000 
     51 O           6.8791  -17.9258  -42.5050 O.2       4 UNK        -0.5000 
     52 CA          6.5918  -17.5527  -44.8686 C.3       4 UNK         0.1400 
     53 CB          6.7236  -19.0771  -45.0411 C.3       4 UNK        -0.1800 
     54 N           5.4018  -17.1044  -45.5975 N.am      4 UNK        -0.5000 
     55 C           5.2359  -15.8940  -46.1442 C.2       3 UNK         0.5000 
     56 O           6.1114  -15.0266  -46.1351 O.2       3 UNK        -0.5000 
     57 CA          3.8562  -15.5648  -46.7547 C.3       3 UNK         0.1400 
     58 CB          2.7929  -16.6719  -46.5713 C.3       3 UNK        -0.1800 
     59 N           3.3390  -14.2913  -46.2486 N.am      3 UNK        -0.5000 
     60 C           3.1268  -13.9486  -44.9709 C.2       2 UNK         0.5000 
     61 O           3.3539  -14.6942  -44.0162 O.2       2 UNK        -0.5000 
     62 CA          2.4924  -12.5696  -44.7054 C.3       2 UNK         0.1400 
     63 CB          3.5488  -11.4494  -44.7073 C.3       2 UNK        -0.1800 
     64 N           1.3584  -12.2781  -45.5934 N.am      2 UNK        -0.5000 
     65 C           1.3533  -12.0304  -46.9099 C.2       1 UNK         0.5000 
     66 O           2.3796  -11.8775  -47.5735 O.2       1 UNK        -0.5000 
     67 C          -1.2699  -21.3896  -47.5032 C.2       11 UNK         0.5000 
     68 O          -0.8972  -22.3787  -48.1336 O.2       11 UNK        -0.5000 
     69 N          -2.5551  -21.0233  -47.3892 N.am      12 UNK        -0.5000 
     70 CA         -3.6846  -21.7546  -47.9596 C.3       12 UNK         0.1400 
     71 CB         -4.9815  -20.9648  -47.7358 C.3       12 UNK        -0.1800 
     72 C          -3.8178  -23.1782  -47.3962 C.2       12 UNK         0.5000 
     73 O          -4.0518  -24.1055  -48.1695 O.2       12 UNK        -0.5000 
     74 N          -3.6350  -23.3344  -46.0770 N.am      13 UNK        -0.5000 
     75 CA         -3.6437  -24.6281  -45.3926 C.3       13 UNK         0.1400 
     76 CB         -3.5981  -24.4167  -43.8720 C.3       13 UNK        -0.1800 
     77 C          -2.5033  -25.5518  -45.8583 C.2       13 UNK         0.5000 
     78 O          -2.7578  -26.7167  -46.1657 O.2       13 UNK        -0.5000 
     79 N          -1.2816  -25.0073  -45.9538 N.am      14 UNK        -0.5000 
     80 CA         -0.0924  -25.7013  -46.4565 C.3       14 UNK         0.1400 
     81 CB          1.1450  -24.8172  -46.2399 C.3       14 UNK        -0.1800 
     82 C          -0.2147  -26.1107  -47.9367 C.2       14 UNK         0.5000 
     83 O           0.2419  -27.1912  -48.3110 O.2       14 UNK        -0.5000 
     84 N          -0.8633  -25.2580  -48.7394 N.am      15 UNK        -0.5000 
     85 CA         -1.1821  -25.4972  -50.1467 C.3       15 UNK         0.1400 
     86 CB         -1.4057  -24.1411  -50.8318 C.3       15 UNK        -0.1800 
     87 C          -2.4086  -26.4087  -50.3609 C.2       15 UNK         0.5000 
     88 O          -2.7548  -26.6678  -51.5130 O.2       15 UNK        -0.5000 
     89 N          -3.0720  -26.8441  -49.2778 N.am      16 UNK        -0.5000 
     90 CA         -4.2888  -27.6662  -49.2538 C.3       16 UNK         0.1400 
     91 CB         -3.9808  -29.0999  -49.7328 C.3       16 UNK        -0.1800 
     92 C          -5.4691  -27.0162  -50.0105 C.2       16 UNK         0.5000 
     93 O          -6.2168  -27.7034  -50.7081 O.2       16 UNK        -0.5000 
     94 N          -5.5849  -25.6874  -49.8718 N.am      17 UNK        -0.5000 
     95 CA         -6.5451  -24.7829  -50.5121 C.3       17 UNK         0.1400 
     96 CB         -7.9927  -25.1328  -50.1099 C.3       17 UNK        -0.1800 
     97 C          -6.3724  -24.6408  -52.0412 C.2       17 UNK         0.5000 
     98 O          -7.2461  -24.0654  -52.6910 O.2       17 UNK        -0.5000 
     99 N          -5.2486  -25.1216  -52.5920 N.am      18 UNK        -0.5000 
    100 CA        -4.9131  -25.0616  -54.0172 C.3       18 UNK         0.1400 
    101 CB        -4.4583  -26.4570  -54.4811 C.3       18 UNK        -0.1800 
    102 C         -3.8553  -23.9790  -54.3176 C.2       18 UNK         0.5000 
    103 O         -3.1662  -24.0682  -55.3354 O.2       18 UNK        -0.5000 
    104 N         -3.7318  -22.9773  -53.4340 N.am      19 UNK        -0.5000 
    105 CA        -2.8418  -21.8266  -53.5883 C.3       19 UNK         0.1400 
    106 CB        -2.8554  -20.9945  -52.2963 C.3       19 UNK        -0.1800 
    107 C         -3.2653  -20.9481  -54.7769 C.2       19 UNK         0.5000 
    108 O         -4.3976  -20.4624  -54.7918 O.2       19 UNK        -0.5000 
    109 N         -2.3502  -20.7213  -55.7275 N.am      20 UNK        -0.5000 
    110 CA        -2.5877  -19.9401  -56.9485 C.3       20 UNK         0.1400 
    111 CB        -1.3550  -20.0512  -57.8587 C.3       20 UNK        -0.1800 
    112 C         -2.9403  -18.4590  -56.6968 C.2       20 UNK         0.5000 
    113 O         -3.5827  -17.8346  -57.5416 O.2       20 UNK        -0.5000 
    114 N         -2.5265  -17.9324  -55.5373 N.am      21 UNK        -0.5000 
    115 CA        -2.8268  -16.5798  -55.0730 C.3       21 UNK         0.1400 
    116 CB        -1.8613  -16.2339  -53.9310 C.3       21 UNK        -0.1800 
    117 C         -4.2865  -16.3897  -54.6119 C.2       21 UNK         0.5000 
    118 O         -4.7622  -15.2532  -54.6184 O.2       21 UNK        -0.5000 
    119 N         -4.9607  -17.4789  -54.2169 N.am      22 UNK        -0.5000 
    120 CA        -6.3349  -17.4680  -53.6856 C.3       22 UNK         0.1400 
    121 C         -7.3268  -18.3504  -54.4938 C.2       22 UNK         0.5000 
    122 N         -6.8902  -19.3585  -55.2362 N.am      22 UNK        -0.7600 
    123 O         -8.5288  -18.1001  -54.4624 O.2       22 UNK        -0.5000 
    124 C124       -6.3652  -17.8376  -52.1795 C.3       23 UNK        -0.0398 
    125 S125       -5.7685  -16.4714  -51.1241 S.3       23 UNK        -0.2404 
    126 C126       -4.7564  -17.3292  -49.8723 C.3       23 UNK        -0.0205 
    127 H127       -2.9658  -10.0009  -45.7457 H         1 UNK         0.0600 
    128 H128       -2.5585  -10.6108  -44.1383 H         1 UNK         0.0600 
    129 H129       -3.7420  -11.4650  -45.1338 H         1 UNK         0.0600 
    130 H130       -1.3717  -10.4321  -47.2134 H         1 UNK         0.3000 
    131 H131        0.1119  -11.3390  -48.4902 H         1 UNK         0.0600 
    132 H132       -0.3664  -14.1440  -47.3569 H         1 UNK         0.0800 
    133 H133       -1.4761  -13.3667  -48.4532 H         1 UNK         0.0800 
    134 H134       -1.4740  -13.6190  -50.8320 H         1 UNK         0.0800 
    135 H135       -0.2459  -14.4193  -51.7762 H         1 UNK         0.0800 
    136 H136       -3.3251  -15.0287  -50.2894 H         1 UNK         0.1150 
    137 H137       -2.8508  -19.2707  -49.9070 H         1 UNK         0.1150 
    138 H138        0.5581  -16.7977  -50.6910 H         1 UNK         0.1150 
    139 H139       -0.7324  -20.3060  -50.1796 H         1 UNK         0.0800 
    140 H140        0.3779  -19.4604  -51.2237 H         1 UNK         0.0800 
    141 H141        0.5731  -18.5296  -46.7569 H         1 UNK         0.0800 
    142 H142       -0.8896  -18.6656  -47.6714 H         1 UNK         0.0800 
    143 H143        0.6995  -21.1036  -46.7139 H         1 UNK         0.0600 
    144 H144       -0.7819  -19.3799  -45.0465 H         1 UNK         0.3000 
    145 H145       -1.8838  -21.7506  -42.6327 H         1 UNK         0.0600 
    146 H146       -0.6187  -20.1429  -41.1852 H         1 UNK         0.0600 
    147 H147        0.4586  -21.2708  -41.9987 H         1 UNK         0.0600 
    148 H148        0.3082  -19.6223  -42.5936 H         1 UNK         0.0600 
    149 H149       -2.0471  -18.8786  -42.9620 H         1 UNK         0.3000 
    150 H150       -5.2642  -18.9259  -44.5578 H         1 UNK         0.0600 
    151 H151       -5.6201  -19.1106  -42.0872 H         1 UNK         0.0600 
    152 H152       -5.7309  -17.4449  -42.6327 H         1 UNK         0.0600 
    153 H153       -4.2799  -18.0064  -41.8023 H         1 UNK         0.0600 
    154 H154       -3.5673  -16.7620  -43.8373 H         1 UNK         0.3000 
    155 H155       -1.7550  -16.5167  -46.8981 H         1 UNK         0.0600 
    156 H156       -2.9250  -14.3182  -46.9578 H         1 UNK         0.0600 
    157 H157       -4.1191  -14.8936  -45.8044 H         1 UNK         0.0600 
    158 H158       -4.0280  -15.5952  -47.4123 H         1 UNK         0.0600 
    159 H159       -1.7414  -14.6496  -44.9119 H         1 UNK         0.3000 
    160 H160        0.3741  -14.4735  -43.8470 H         1 UNK         0.0600 
    161 H161       -1.5075  -15.5147  -41.6700 H         1 UNK         0.0600 
    162 H162       -1.7420  -14.1103  -42.6944 H         1 UNK         0.0600 
    163 H163       -0.4657  -14.1028  -41.4934 H         1 UNK         0.0600 
    164 H164        2.0627  -15.5263  -42.9851 H         1 UNK         0.3000 
    165 H165        2.6262  -17.2252  -40.1140 H         1 UNK         0.0600 
    166 H166        2.8629  -18.8856  -42.6805 H         1 UNK         0.0600 
    167 H167        3.9309  -19.0489  -41.2873 H         1 UNK         0.0600 
    168 H168        2.2257  -19.4215  -41.1259 H         1 UNK         0.0600 
    169 H169        3.6758  -16.1664  -42.6959 H         1 UNK         0.3000 
    170 H170        5.4463  -14.2770  -42.0245 H         1 UNK         0.0600 
    171 H171        7.0043  -14.4915  -40.1252 H         1 UNK         0.0600 
    172 H172        7.6324  -16.0088  -40.7520 H         1 UNK         0.0600 
    173 H173        7.9064  -14.5057  -41.6315 H         1 UNK         0.0600 
    174 H174        5.8724  -15.3113  -43.9299 H         1 UNK         0.3000 
    175 H175        7.4787  -17.0928  -45.3093 H         1 UNK         0.0600 
    176 H176        5.8837  -19.6069  -44.5898 H         1 UNK         0.0600 
    177 H177        6.7667  -19.3522  -46.0951 H         1 UNK         0.0600 
    178 H178        7.6370  -19.4484  -44.5748 H         1 UNK         0.0600 
    179 H179        4.6235  -17.7471  -45.6145 H         1 UNK         0.3000 
    180 H180        4.0179  -15.4314  -47.8252 H         1 UNK         0.0600 
    181 H181        2.5844  -16.8790  -45.5208 H         1 UNK         0.0600 
    182 H182        3.1048  -17.6042  -47.0435 H         1 UNK         0.0600 
    183 H183        1.8518  -16.3815  -47.0393 H         1 UNK         0.0600 
    184 H184        3.1480  -13.5804  -46.9479 H         1 UNK         0.3000 
    185 H185        2.0705  -12.6090  -43.6999 H         1 UNK         0.0600 
    186 H186        3.0952  -10.4794  -44.5037 H         1 UNK         0.0600 
    187 H187        4.2986  -11.6268  -43.9354 H         1 UNK         0.0600 
    188 H188        4.0774  -11.3810  -45.6582 H         1 UNK         0.0600 
    189 H189        0.4404  -12.4171  -45.1793 H         1 UNK         0.3000 
    190 H190       -2.7841  -20.1686  -46.8853 H         1 UNK         0.3000 
    191 H191       -3.5163  -21.8356  -49.0352 H         1 UNK         0.0600 
    192 H192       -4.9168  -19.9700  -48.1727 H         1 UNK         0.0600 
    193 H193       -5.8324  -21.4696  -48.1950 H         1 UNK         0.0600 
    194 H194       -5.2016  -20.8444  -46.6745 H         1 UNK         0.0600 
    195 H195       -3.4931  -22.5122  -45.5002 H         1 UNK         0.3000 
    196 H196       -4.5875  -25.1215  -45.6341 H         1 UNK         0.0600 
    197 H197       -3.6434  -25.3703  -43.3446 H         1 UNK         0.0600 
    198 H198       -4.4424  -23.8166  -43.5322 H         1 UNK         0.0600 
    199 H199       -2.6834  -23.9133  -43.5604 H         1 UNK         0.0600 
    200 H200       -1.1474  -24.0457  -45.6493 H         1 UNK         0.3000 
    201 H201        0.0335  -26.6136  -45.8701 H         1 UNK         0.0600 
    202 H202        1.2880  -24.5925  -45.1828 H         1 UNK         0.0600 
    203 H203        1.0604  -23.8698  -46.7737 H         1 UNK         0.0600 
    204 H204        2.0492  -25.3149  -46.5924 H         1 UNK         0.0600 
    205 H205       -1.1452  -24.3579  -48.3625 H         1 UNK         0.3000 
    206 H206       -0.3280  -25.9829  -50.6227 H         1 UNK         0.0600 
    207 H207       -0.5438  -23.4852  -50.7076 H         1 UNK         0.0600 
    208 H208       -1.5684  -24.2616  -51.9033 H         1 UNK         0.0600 
    209 H209       -2.2775  -23.6339  -50.4185 H         1 UNK         0.0600 
    210 H210       -2.7358  -26.5496  -48.3692 H         1 UNK         0.3000 
    211 H211       -4.5952  -27.7256  -48.2086 H         1 UNK         0.0600 
    212 H212       -3.7146  -29.1256  -50.7900 H         1 UNK         0.0600 
    213 H213       -4.8442  -29.7520  -49.5967 H         1 UNK         0.0600 
    214 H214       -3.1555  -29.5340  -49.1684 H         1 UNK         0.0600 
    215 H215       -4.9133  -25.2199  -49.2621 H         1 UNK         0.3000 
    216 H216       -6.3272  -23.7959  -50.1018 H         1 UNK         0.0600 
    217 H217       -8.0924  -25.2146  -49.0276 H         1 UNK         0.0600 
    218 H218       -8.3209  -26.0744  -50.5505 H         1 UNK         0.0600 
    219 H219       -8.6885  -24.3606  -50.4399 H         1 UNK         0.0600 
    220 H220       -4.5687  -25.5863  -52.0007 H         1 UNK         0.3000 
    221 H221       -5.7977  -24.7987  -54.6002 H         1 UNK         0.0600 
    222 H222       -3.5078  -26.7430  -54.0309 H         1 UNK         0.0600 
    223 H223       -5.1943  -27.2184  -54.2224 H         1 UNK         0.0600 
    224 H224       -4.3288  -26.4875  -55.5636 H         1 UNK         0.0600 
    225 H225       -4.3608  -22.9623  -52.6465 H         1 UNK         0.3000 
    226 H226       -1.8274  -22.1954  -53.7535 H         1 UNK         0.0600 
    227 H227       -2.2222  -20.1128  -52.4001 H         1 UNK         0.0600 
    228 H228       -3.8591  -20.6474  -52.0471 H         1 UNK         0.0600 
    229 H229       -2.4789  -21.5629  -51.4485 H         1 UNK         0.0600 
    230 H230       -1.4423  -21.1560  -55.6461 H         1 UNK         0.3000 
    231 H231       -3.4370  -20.3893  -57.4676 H         1 UNK         0.0600 
    232 H232       -1.5065  -19.5058  -58.7913 H         1 UNK         0.0600 
    233 H233       -1.1503  -21.0892  -58.1217 H         1 UNK         0.0600 
    234 H234       -0.4640  -19.6424  -57.3805 H         1 UNK         0.0600 
    235 H235       -1.9919  -18.5175  -54.9132 H         1 UNK         0.3000 
    236 H236       -2.6473  -15.8841  -55.8954 H         1 UNK         0.0600 
    237 H237       -0.8234  -16.2676  -54.2624 H         1 UNK         0.0600 
    238 H238       -2.0488  -15.2296  -53.5491 H         1 UNK         0.0600 
    239 H239       -1.9715  -16.9282  -53.0976 H         1 UNK         0.0600 
    240 H240       -4.5206  -18.3863  -54.2955 H         1 UNK         0.3000 
    241 H241       -6.7472  -16.4613  -53.7773 H         1 UNK         0.0600 
    242 H242       -7.5572  -19.9024  -55.7592 H         1 UNK         0.3800 
    243 H243       -5.9227  -19.6729  -55.1895 H         1 UNK         0.3800 
    244 H244       -5.7795  -18.7412  -52.0040 H         1 UNK         0.0800 
    245 H245       -7.3808  -18.0646  -51.8499 H         1 UNK         0.0800 
    246 H246       -5.0105  -16.9322  -48.8912 H         1 UNK         0.0800 
    247 H247       -5.0335  -18.3825  -49.8433 H         1 UNK         0.0800 
@<TRIPOS>BOND
     1    1    2 1    
     2    1  127 1    
     3    1  128 1    
     4    1  129 1    
     5    2    3 2    
     6    2    4 am   BACKBONE|DICT|INTERRES
     7    4    5 1    
     8    4  130 1    
     9    5    6 1    
    10    5   65 1    
    11    5  131 1    
    12    6    7 1    
    13    6  132 1    
    14    6  133 1    
    15    7    8 1    
    16    8    9 1    
    17    8  134 1    
    18    8  135 1    
    19    9   10 ar   
    20    9   14 ar   
    21   10   11 ar   
    22   10  136 1    
    23   11   12 ar   
    24   11  126 1    
    25   12   13 ar   
    26   12  137 1    
    27   13   14 ar   
    28   13   15 1    
    29   14  138 1    
    30   15   16 1    
    31   15  139 1    
    32   15  140 1    
    33   16   17 1    
    34   17   18 1    
    35   17  141 1    
    36   17  142 1    
    37   18   19 1    
    38   18   67 1    
    39   18  143 1    
    40   19   20 am   BACKBONE|DICT|INTERRES
    41   19  144 1    
    42   20   21 2    
    43   20   22 1    
    44   22   23 1    
    45   22   24 1    
    46   22  145 1    
    47   23  146 1    
    48   23  147 1    
    49   23  148 1    
    50   24   25 am   BACKBONE|DICT|INTERRES
    51   24  149 1    
    52   25   26 2    
    53   25   27 1    
    54   27   28 1    
    55   27   29 1    
    56   27  150 1    
    57   28  151 1    
    58   28  152 1    
    59   28  153 1    
    60   29   30 am   BACKBONE|DICT|INTERRES
    61   29  154 1    
    62   30   31 2    
    63   30   32 1    
    64   32   33 1    
    65   32   34 1    
    66   32  155 1    
    67   33  156 1    
    68   33  157 1    
    69   33  158 1    
    70   34   35 am   BACKBONE|DICT|INTERRES
    71   34  159 1    
    72   35   36 2    
    73   35   37 1    
    74   37   38 1    
    75   37   39 1    
    76   37  160 1    
    77   38  161 1    
    78   38  162 1    
    79   38  163 1    
    80   39   40 am   BACKBONE|DICT|INTERRES
    81   39  164 1    
    82   40   41 2    
    83   40   42 1    
    84   42   43 1    
    85   42   44 1    
    86   42  165 1    
    87   43  166 1    
    88   43  167 1    
    89   43  168 1    
    90   44   45 am   BACKBONE|DICT|INTERRES
    91   44  169 1    
    92   45   46 2    
    93   45   47 1    
    94   47   48 1    
    95   47   49 1    
    96   47  170 1    
    97   48  171 1    
    98   48  172 1    
    99   48  173 1    
   100   49   50 am   BACKBONE|DICT|INTERRES
   101   49  174 1    
   102   50   51 2    
   103   50   52 1    
   104   52   53 1    
   105   52   54 1    
   106   52  175 1    
   107   53  176 1    
   108   53  177 1    
   109   53  178 1    
   110   54   55 am   BACKBONE|DICT|INTERRES
   111   54  179 1    
   112   55   56 2    
   113   55   57 1    
   114   57   58 1    
   115   57   59 1    
   116   57  180 1    
   117   58  181 1    
   118   58  182 1    
   119   58  183 1    
   120   59   60 am   BACKBONE|DICT|INTERRES
   121   59  184 1    
   122   60   61 2    
   123   60   62 1    
   124   62   63 1    
   125   62   64 1    
   126   62  185 1    
   127   63  186 1    
   128   63  187 1    
   129   63  188 1    
   130   64   65 am   BACKBONE|DICT|INTERRES
   131   64  189 1    
   132   65   66 2    
   133   67   68 2    
   134   67   69 am   BACKBONE|DICT|INTERRES
   135   69   70 1    
   136   69  190 1    
   137   70   71 1    
   138   70   72 1    
   139   70  191 1    
   140   71  192 1    
   141   71  193 1    
   142   71  194 1    
   143   72   73 2    
   144   72   74 am   BACKBONE|DICT|INTERRES
   145   74   75 1    
   146   74  195 1    
   147   75   76 1    
   148   75   77 1    
   149   75  196 1    
   150   76  197 1    
   151   76  198 1    
   152   76  199 1    
   153   77   78 2    
   154   77   79 am   BACKBONE|DICT|INTERRES
   155   79   80 1    
   156   79  200 1    
   157   80   81 1    
   158   80   82 1    
   159   80  201 1    
   160   81  202 1    
   161   81  203 1    
   162   81  204 1    
   163   82   83 2    
   164   82   84 am   BACKBONE|DICT|INTERRES
   165   84   85 1    
   166   84  205 1    
   167   85   86 1    
   168   85   87 1    
   169   85  206 1    
   170   86  207 1    
   171   86  208 1    
   172   86  209 1    
   173   87   88 2    
   174   87   89 am   BACKBONE|DICT|INTERRES
   175   89   90 1    
   176   89  210 1    
   177   90   91 1    
   178   90   92 1    
   179   90  211 1    
   180   91  212 1    
   181   91  213 1    
   182   91  214 1    
   183   92   93 2    
   184   92   94 am   BACKBONE|DICT|INTERRES
   185   94   95 1    
   186   94  215 1    
   187   95   96 1    
   188   95   97 1    
   189   95  216 1    
   190   96  217 1    
   191   96  218 1    
   192   96  219 1    
   193   97   98 2    
   194   97   99 am   BACKBONE|DICT|INTERRES
   195   99  100 1    
   196   99  220 1    
   197  100  101 1    
   198  100  102 1    
   199  100  221 1    
   200  101  222 1    
   201  101  223 1    
   202  101  224 1    
   203  102  103 2    
   204  102  104 am   BACKBONE|DICT|INTERRES
   205  104  105 1    
   206  104  225 1    
   207  105  106 1    
   208  105  107 1    
   209  105  226 1    
   210  106  227 1    
   211  106  228 1    
   212  106  229 1    
   213  107  108 2    
   214  107  109 am   BACKBONE|DICT|INTERRES
   215  109  110 1    
   216  109  230 1    
   217  110  111 1    
   218  110  112 1    
   219  110  231 1    
   220  111  232 1    
   221  111  233 1    
   222  111  234 1    
   223  112  113 2    
   224  112  114 am   BACKBONE|DICT|INTERRES
   225  114  115 1    
   226  114  235 1    
   227  115  116 1    
   228  115  117 1    
   229  115  236 1    
   230  116  237 1    
   231  116  238 1    
   232  116  239 1    
   233  117  118 2    
   234  117  119 am   BACKBONE|DICT|INTERRES
   235  119  120 1    
   236  119  240 1    
   237  120  121 1    
   238  120  124 1    
   239  120  241 1    
   240  121  122 am   BACKBONE|DICT|INTERRES
   241  121  123 2    
   242  122  242 1    
   243  122  243 1    
   244  124  125 1    
   245  124  244 1    
   246  124  245 1    
   247  125  126 1    
   248  126  246 1    
   249  126  247 1    
@<TRIPOS>SUBSTRUCTURE
     1 UNK         1 GROUP             0       ****    0 ROOT    
