@<TRIPOS>MOLECULE
3R540
247   249    1
SMALL
USER_CHARGES


@<TRIPOS>ATOM
      1 CA          3.3952  -14.0693  -47.1904 C.3       0 UNK        -0.1800 
      2 C           1.9340  -14.4920  -47.1589 C.2       0 UNK         0.5000 
      3 O           1.5981  -15.4718  -46.4988 O.2       0 UNK        -0.5000 
      4 N           1.0704  -13.7658  -47.8808 N.am      1 UNK        -0.5000 
      5 CA         -0.3752  -14.0199  -47.9564 C.3       1 UNK         0.1400 
      6 C6         -0.9672  -13.4837  -49.2883 C.3       23 UNK        -0.0398 
      7 S7         -2.3422  -14.5053  -49.9289 S.3       23 UNK        -0.2404 
      8 C8         -1.6355  -15.2115  -51.4565 C.3       23 UNK        -0.0205 
      9 C9         -0.9051  -16.5259  -51.2111 C.ar      23 UNK        -0.0193 
     10 C10        -1.4509  -17.7299  -51.6680 C.ar      23 UNK        -0.1150 
     11 C11        -0.7738  -18.9369  -51.4709 C.ar      23 UNK        -0.0193 
     12 C12         0.4533  -18.9374  -50.8017 C.ar      23 UNK        -0.1150 
     13 C13         1.0031  -17.7432  -50.3237 C.ar      23 UNK        -0.0193 
     14 C14         0.3255  -16.5413  -50.5481 C.ar      23 UNK        -0.1150 
     15 C15         2.3198  -17.7319  -49.5525 C.3       23 UNK        -0.0205 
     16 S16         2.4302  -18.9840  -48.2255 S.3       23 UNK        -0.2404 
     17 C17         0.8548  -18.7837  -47.3220 C.3       23 UNK        -0.0398 
     18 CA          0.2728  -20.1589  -46.9240 C.3       11 UNK         0.1400 
     19 N           1.0703  -20.8160  -45.8871 N.am      11 UNK        -0.5000 
     20 C           0.9216  -22.0782  -45.4651 C.2       10 UNK         0.5000 
     21 O           0.1055  -22.8596  -45.9584 O.2       10 UNK        -0.5000 
     22 CA          1.7537  -22.5051  -44.2375 C.3       10 UNK         0.1400 
     23 CB          2.3531  -23.9172  -44.3911 C.3       10 UNK        -0.1800 
     24 N           2.7589  -21.5092  -43.8375 N.am      10 UNK        -0.5000 
     25 C           3.9053  -21.1888  -44.4571 C.2       9 UNK         0.5000 
     26 O           4.3418  -21.7764  -45.4464 O.2       9 UNK        -0.5000 
     27 CA          4.6787  -19.9719  -43.9094 C.3       9 UNK         0.1400 
     28 CB          4.5265  -18.7755  -44.8634 C.3       9 UNK        -0.1800 
     29 N           4.2600  -19.5521  -42.5698 N.am      9 UNK        -0.5000 
     30 C           4.5510  -20.1989  -41.4328 C.2       8 UNK         0.5000 
     31 O           5.1954  -21.2471  -41.3868 O.2       8 UNK        -0.5000 
     32 CA          4.0203  -19.5736  -40.1316 C.3       8 UNK         0.1400 
     33 CB          4.9445  -18.4423  -39.6541 C.3       8 UNK        -0.1800 
     34 N           2.6640  -19.0519  -40.3000 N.am      8 UNK        -0.5000 
     35 C           1.5488  -19.7820  -40.1605 C.2       7 UNK         0.5000 
     36 O           1.5465  -20.9723  -39.8460 O.2       7 UNK        -0.5000 
     37 CA          0.2077  -19.0697  -40.4273 C.3       7 UNK         0.1400 
     38 CB         -0.3368  -18.4429  -39.1356 C.3       7 UNK        -0.1800 
     39 N           0.3026  -18.0355  -41.4567 N.am      7 UNK        -0.5000 
     40 C           0.5474  -18.2791  -42.7502 C.2       6 UNK         0.5000 
     41 O           0.6462  -19.4089  -43.2305 O.2       6 UNK        -0.5000 
     42 CA          0.7308  -17.0619  -43.6663 C.3       6 UNK         0.1400 
     43 CB         -0.6139  -16.6467  -44.2788 C.3       6 UNK        -0.1800 
     44 N           1.3439  -15.9087  -43.0143 N.am      6 UNK        -0.5000 
     45 C           2.5701  -15.8773  -42.4771 C.2       5 UNK         0.5000 
     46 O           3.2921  -16.8673  -42.3598 O.2       5 UNK        -0.5000 
     47 CA          3.0566  -14.5133  -41.9674 C.3       5 UNK         0.1400 
     48 CB          3.5492  -13.6458  -43.1359 C.3       5 UNK        -0.1800 
     49 N           1.9842  -13.8143  -41.2634 N.am      5 UNK        -0.5000 
     50 C           1.7324  -13.9427  -39.9547 C.2       4 UNK         0.5000 
     51 O           2.4354  -14.5950  -39.1821 O.2       4 UNK        -0.5000 
     52 CA          0.4729  -13.2361  -39.4165 C.3       4 UNK         0.1400 
     53 CB          0.8110  -11.8094  -38.9580 C.3       4 UNK        -0.1800 
     54 N          -0.6284  -13.1804  -40.3806 N.am      4 UNK        -0.5000 
     55 C          -1.2810  -14.2493  -40.8571 C.2       3 UNK         0.5000 
     56 O          -1.0120  -15.4123  -40.5527 O.2       3 UNK        -0.5000 
     57 CA         -2.4057  -13.9724  -41.8733 C.3       3 UNK         0.1400 
     58 CB         -3.7049  -13.6051  -41.1402 C.3       3 UNK        -0.1800 
     59 N          -2.1198  -12.9475  -42.8874 N.am      3 UNK        -0.5000 
     60 C          -1.0193  -12.8583  -43.6477 C.2       2 UNK         0.5000 
     61 O           0.0089  -13.5091  -43.4594 O.2       2 UNK        -0.5000 
     62 CA         -1.0601  -11.8599  -44.8161 C.3       2 UNK         0.1400 
     63 CB         -0.2320  -10.6104  -44.4808 C.3       2 UNK        -0.1800 
     64 N          -0.5354  -12.4677  -46.0407 N.am      2 UNK        -0.5000 
     65 C          -1.1315  -13.4540  -46.7299 C.2       1 UNK         0.5000 
     66 O          -2.2355  -13.9125  -46.4334 O.2       1 UNK        -0.5000 
     67 C          -1.2130  -20.0524  -46.5269 C.2       11 UNK         0.5000 
     68 O          -2.0667  -20.0654  -47.4096 O.2       11 UNK        -0.5000 
     69 N          -1.5057  -20.0164  -45.2173 N.am      12 UNK        -0.5000 
     70 CA         -2.8636  -20.0481  -44.6702 C.3       12 UNK         0.1400 
     71 CB         -2.8101  -19.7677  -43.1605 C.3       12 UNK        -0.1800 
     72 C          -3.5972  -21.3752  -44.9481 C.2       12 UNK         0.5000 
     73 O          -4.8193  -21.3674  -45.0956 O.2       12 UNK        -0.5000 
     74 N          -2.8438  -22.4812  -45.0329 N.am      13 UNK        -0.5000 
     75 CA         -3.3571  -23.7936  -45.4196 C.3       13 UNK         0.1400 
     76 CB         -2.4838  -24.8969  -44.8015 C.3       13 UNK        -0.1800 
     77 C          -3.4165  -23.9257  -46.9495 C.2       13 UNK         0.5000 
     78 O          -4.4336  -24.3701  -47.4820 O.2       13 UNK        -0.5000 
     79 N          -2.3415  -23.5052  -47.6349 N.am      14 UNK        -0.5000 
     80 CA         -2.2141  -23.5604  -49.0955 C.3       14 UNK         0.1400 
     81 CB         -0.7735  -23.2192  -49.4974 C.3       14 UNK        -0.1800 
     82 C          -3.2251  -22.6713  -49.8489 C.2       14 UNK         0.5000 
     83 O          -3.5549  -22.9721  -50.9960 O.2       14 UNK        -0.5000 
     84 N          -3.7432  -21.6261  -49.1874 N.am      15 UNK        -0.5000 
     85 CA         -4.8223  -20.7529  -49.6600 C.3       15 UNK         0.1400 
     86 CB         -5.0774  -19.6499  -48.6219 C.3       15 UNK        -0.1800 
     87 C          -6.1384  -21.4837  -49.9991 C.2       15 UNK         0.5000 
     88 O          -6.9393  -20.9436  -50.7624 O.2       15 UNK        -0.5000 
     89 N          -6.3247  -22.7129  -49.4919 N.am      16 UNK        -0.5000 
     90 CA         -7.4135  -23.6202  -49.8686 C.3       16 UNK         0.1400 
     91 CB         -7.3623  -24.8669  -48.9738 C.3       16 UNK        -0.1800 
     92 C          -7.3936  -24.0260  -51.3593 C.2       16 UNK         0.5000 
     93 O          -8.4410  -24.3819  -51.8995 O.2       16 UNK        -0.5000 
     94 N          -6.2226  -23.9277  -52.0075 N.am      17 UNK        -0.5000 
     95 CA         -6.0322  -24.1152  -53.4476 C.3       17 UNK         0.1400 
     96 CB         -4.6199  -24.6726  -53.6822 C.3       17 UNK        -0.1800 
     97 C          -6.2948  -22.8254  -54.2627 C.2       17 UNK         0.5000 
     98 O          -6.0029  -22.7946  -55.4599 O.2       17 UNK        -0.5000 
     99 N          -6.8349  -21.7825  -53.6093 N.am      18 UNK        -0.5000 
    100 CA        -7.3475  -20.5280  -54.1754 C.3       18 UNK         0.1400 
    101 CB        -8.6050  -20.8063  -55.0250 C.3       18 UNK        -0.1800 
    102 C         -6.2943  -19.6990  -54.9370 C.2       18 UNK         0.5000 
    103 O         -6.6401  -18.9847  -55.8799 O.2       18 UNK        -0.5000 
    104 N         -5.0218  -19.8366  -54.5363 N.am      19 UNK        -0.5000 
    105 CA        -3.8009  -19.2698  -55.1271 C.3       19 UNK         0.1400 
    106 CB        -3.8247  -17.7300  -55.1273 C.3       19 UNK        -0.1800 
    107 C         -3.4558  -19.8298  -56.5228 C.2       19 UNK         0.5000 
    108 O         -2.2979  -20.1683  -56.7691 O.2       19 UNK        -0.5000 
    109 N         -4.4630  -19.9548  -57.3948 N.am      20 UNK        -0.5000 
    110 CA        -4.3717  -20.4274  -58.7755 C.3       20 UNK         0.1400 
    111 CB        -5.7619  -20.3485  -59.4244 C.3       20 UNK        -0.1800 
    112 C         -3.7887  -21.8446  -58.9155 C.2       20 UNK         0.5000 
    113 O         -2.9786  -22.0711  -59.8153 O.2       20 UNK        -0.5000 
    114 N         -4.1857  -22.7592  -58.0192 N.am      21 UNK        -0.5000 
    115 CA        -3.6503  -24.1215  -57.9596 C.3       21 UNK         0.1400 
    116 CB        -4.8011  -25.1136  -57.7227 C.3       21 UNK        -0.1800 
    117 C         -2.5344  -24.2696  -56.9058 C.2       21 UNK         0.5000 
    118 O         -1.8743  -25.3094  -56.8838 O.2       21 UNK        -0.5000 
    119 N         -2.3270  -23.2454  -56.0638 N.am      22 UNK        -0.5000 
    120 CA        -1.1954  -23.1610  -55.1234 C.3       22 UNK         0.1400 
    121 C          0.1338  -22.7868  -55.8446 C.2       22 UNK         0.5000 
    122 N          0.1068  -21.8887  -56.8230 N.am      22 UNK        -0.7600 
    123 O          1.1882  -23.3331  -55.5313 O.2       22 UNK        -0.5000 
    124 C124       -1.5458  -22.3095  -53.8553 C.3       23 UNK        -0.0398 
    125 S125       -0.6106  -20.7687  -53.5310 S.3       23 UNK        -0.2404 
    126 C126       -1.3702  -20.2430  -51.9669 C.3       23 UNK        -0.0205 
    127 H127        3.5586  -13.2198  -47.8537 H         1 UNK         0.0600 
    128 H128        3.7267  -13.7904  -46.1908 H         1 UNK         0.0600 
    129 H129        4.0152  -14.8962  -47.5370 H         1 UNK         0.0600 
    130 H130        1.4105  -12.9747  -48.4092 H         1 UNK         0.3000 
    131 H131       -0.5135  -15.1037  -47.9360 H         1 UNK         0.0600 
    132 H132       -0.1925  -13.4393  -50.0541 H         1 UNK         0.0800 
    133 H133       -1.3148  -12.4538  -49.1863 H         1 UNK         0.0800 
    134 H134       -0.9651  -14.4977  -51.9368 H         1 UNK         0.0800 
    135 H135       -2.4523  -15.3674  -52.1629 H         1 UNK         0.0800 
    136 H136       -2.4005  -17.7283  -52.1840 H         1 UNK         0.1150 
    137 H137        0.9751  -19.8707  -50.6430 H         1 UNK         0.1150 
    138 H138        0.7543  -15.6149  -50.1965 H         1 UNK         0.1150 
    139 H139        3.1382  -17.8926  -50.2550 H         1 UNK         0.0800 
    140 H140        2.4896  -16.7527  -49.1035 H         1 UNK         0.0800 
    141 H141        0.1425  -18.2288  -47.9328 H         1 UNK         0.0800 
    142 H142        1.0318  -18.1633  -46.4479 H         1 UNK         0.0800 
    143 H143        0.3081  -20.7988  -47.8047 H         1 UNK         0.0600 
    144 H144        1.7358  -20.2379  -45.3971 H         1 UNK         0.3000 
    145 H145        1.0463  -22.5455  -43.4081 H         1 UNK         0.0600 
    146 H146        2.9472  -24.1914  -43.5194 H         1 UNK         0.0600 
    147 H147        1.5644  -24.6634  -44.4940 H         1 UNK         0.0600 
    148 H148        2.9885  -23.9985  -45.2730 H         1 UNK         0.0600 
    149 H149        2.4809  -20.9184  -43.0645 H         1 UNK         0.3000 
    150 H150        5.7349  -20.2461  -43.8697 H         1 UNK         0.0600 
    151 H151        4.8699  -19.0262  -45.8680 H         1 UNK         0.0600 
    152 H152        5.1136  -17.9220  -44.5238 H         1 UNK         0.0600 
    153 H153        3.4880  -18.4541  -44.9444 H         1 UNK         0.0600 
    154 H154        3.7816  -18.6563  -42.5065 H         1 UNK         0.3000 
    155 H155        4.0172  -20.3489  -39.3623 H         1 UNK         0.0600 
    156 H156        4.9999  -17.6286  -40.3780 H         1 UNK         0.0600 
    157 H157        5.9592  -18.8094  -39.4954 H         1 UNK         0.0600 
    158 H158        4.5983  -18.0246  -38.7086 H         1 UNK         0.0600 
    159 H159        2.5839  -18.0949  -40.6176 H         1 UNK         0.3000 
    160 H160       -0.5050  -19.8234  -40.7684 H         1 UNK         0.0600 
    161 H161       -1.3266  -18.0142  -39.2941 H         1 UNK         0.0600 
    162 H162        0.3154  -17.6494  -38.7682 H         1 UNK         0.0600 
    163 H163       -0.4282  -19.1890  -38.3451 H         1 UNK         0.0600 
    164 H164        0.1671  -17.0757  -41.1571 H         1 UNK         0.3000 
    165 H165        1.4086  -17.3535  -44.4662 H         1 UNK         0.0600 
    166 H166       -0.5118  -15.7568  -44.8973 H         1 UNK         0.0600 
    167 H167       -1.0175  -17.4276  -44.9189 H         1 UNK         0.0600 
    168 H168       -1.3552  -16.4375  -43.5099 H         1 UNK         0.0600 
    169 H169        0.8352  -15.0307  -43.1008 H         1 UNK         0.3000 
    170 H170        3.8986  -14.6827  -41.2928 H         1 UNK         0.0600 
    171 H171        4.3543  -14.1441  -43.6775 H         1 UNK         0.0600 
    172 H172        2.7519  -13.4374  -43.8506 H         1 UNK         0.0600 
    173 H173        3.9373  -12.6913  -42.7806 H         1 UNK         0.0600 
    174 H174        1.3123  -13.3239  -41.8419 H         1 UNK         0.3000 
    175 H175        0.1269  -13.8008  -38.5481 H         1 UNK         0.0600 
    176 H176       -0.0507  -11.3290  -38.4942 H         1 UNK         0.0600 
    177 H177        1.6140  -11.8163  -38.2197 H         1 UNK         0.0600 
    178 H178        1.1364  -11.1855  -39.7915 H         1 UNK         0.0600 
    179 H179       -0.9066  -12.2656  -40.7040 H         1 UNK         0.3000 
    180 H180       -2.5884  -14.9031  -42.4105 H         1 UNK         0.0600 
    181 H181       -3.6211  -12.6453  -40.6290 H         1 UNK         0.0600 
    182 H182       -3.9577  -14.3559  -40.3901 H         1 UNK         0.0600 
    183 H183       -4.5457  -13.5452  -41.8315 H         1 UNK         0.0600 
    184 H184       -2.8946  -12.3401  -43.1118 H         1 UNK         0.3000 
    185 H185       -2.0935  -11.5572  -44.9973 H         1 UNK         0.0600 
    186 H186        0.8161  -10.8569  -44.3039 H         1 UNK         0.0600 
    187 H187       -0.2733   -9.8806  -45.2895 H         1 UNK         0.0600 
    188 H188       -0.6099  -10.1209  -43.5823 H         1 UNK         0.0600 
    189 H189        0.3917  -12.1855  -46.3202 H         1 UNK         0.3000 
    190 H190       -0.7432  -20.0019  -44.5476 H         1 UNK         0.3000 
    191 H191       -3.4376  -19.2503  -45.1465 H         1 UNK         0.0600 
    192 H192       -2.4216  -18.7705  -42.9569 H         1 UNK         0.0600 
    193 H193       -2.1788  -20.4886  -42.6397 H         1 UNK         0.0600 
    194 H194       -3.8050  -19.8202  -42.7164 H         1 UNK         0.0600 
    195 H195       -1.8401  -22.3970  -44.9478 H         1 UNK         0.3000 
    196 H196       -4.3705  -23.9151  -45.0304 H         1 UNK         0.0600 
    197 H197       -2.8741  -25.8845  -45.0501 H         1 UNK         0.0600 
    198 H198       -2.4644  -24.8198  -43.7143 H         1 UNK         0.0600 
    199 H199       -1.4545  -24.8542  -45.1578 H         1 UNK         0.0600 
    200 H200       -1.5315  -23.1803  -47.1172 H         1 UNK         0.3000 
    201 H201       -2.4092  -24.5912  -49.3983 H         1 UNK         0.0600 
    202 H202       -0.0535  -23.8409  -48.9647 H         1 UNK         0.0600 
    203 H203       -0.5377  -22.1780  -49.2895 H         1 UNK         0.0600 
    204 H204       -0.6178  -23.3834  -50.5643 H         1 UNK         0.0600 
    205 H205       -3.3396  -21.3829  -48.2893 H         1 UNK         0.3000 
    206 H206       -4.4783  -20.2786  -50.5808 H         1 UNK         0.0600 
    207 H207       -4.2074  -19.0026  -48.5135 H         1 UNK         0.0600 
    208 H208       -5.9121  -19.0132  -48.9182 H         1 UNK         0.0600 
    209 H209       -5.3123  -20.0673  -47.6421 H         1 UNK         0.0600 
    210 H210       -5.6219  -23.0924  -48.8682 H         1 UNK         0.3000 
    211 H211       -8.3566  -23.1026  -49.6824 H         1 UNK         0.0600 
    212 H212       -6.4388  -25.4283  -49.1216 H         1 UNK         0.0600 
    213 H213       -8.1937  -25.5389  -49.1905 H         1 UNK         0.0600 
    214 H214       -7.4265  -24.5996  -47.9188 H         1 UNK         0.0600 
    215 H215       -5.4015  -23.6228  -51.4937 H         1 UNK         0.3000 
    216 H216       -6.7433  -24.8621  -53.8059 H         1 UNK         0.0600 
    217 H217       -4.4660  -24.9410  -54.7250 H         1 UNK         0.0600 
    218 H218       -4.4493  -25.5738  -53.0933 H         1 UNK         0.0600 
    219 H219       -3.8526  -23.9508  -53.4124 H         1 UNK         0.0600 
    220 H220       -6.9771  -21.8744  -52.6098 H         1 UNK         0.3000 
    221 H221       -7.6531  -19.9149  -53.3266 H         1 UNK         0.0600 
    222 H222       -8.3649  -21.3669  -55.9291 H         1 UNK         0.0600 
    223 H223       -9.3421  -21.3785  -54.4615 H         1 UNK         0.0600 
    224 H224       -9.0861  -19.8773  -55.3334 H         1 UNK         0.0600 
    225 H225       -4.8692  -20.4772  -53.7714 H         1 UNK         0.3000 
    226 H226       -2.9934  -19.5696  -54.4635 H         1 UNK         0.0600 
    227 H227       -4.0332  -17.3383  -54.1319 H         1 UNK         0.0600 
    228 H228       -4.5753  -17.3304  -55.8094 H         1 UNK         0.0600 
    229 H229       -2.8588  -17.3299  -55.4380 H         1 UNK         0.0600 
    230 H230       -5.3783  -19.6445  -57.0786 H         1 UNK         0.3000 
    231 H231       -3.7069  -19.7447  -59.3085 H         1 UNK         0.0600 
    232 H232       -6.1410  -19.3264  -59.4207 H         1 UNK         0.0600 
    233 H233       -6.4853  -20.9754  -58.9011 H         1 UNK         0.0600 
    234 H234       -5.7291  -20.6792  -60.4633 H         1 UNK         0.0600 
    235 H235       -4.8631  -22.5080  -57.3067 H         1 UNK         0.3000 
    236 H236       -3.1990  -24.3881  -58.9175 H         1 UNK         0.0600 
    237 H237       -4.4296  -26.1356  -57.6384 H         1 UNK         0.0600 
    238 H238       -5.3590  -24.8917  -56.8158 H         1 UNK         0.0600 
    239 H239       -5.5061  -25.0948  -58.5539 H         1 UNK         0.0600 
    240 H240       -2.8623  -22.4019  -56.2022 H         1 UNK         0.3000 
    241 H241       -1.0358  -24.1755  -54.7511 H         1 UNK         0.0600 
    242 H242        0.9595  -21.6460  -57.3008 H         1 UNK         0.3800 
    243 H243       -0.7424  -21.3639  -57.0076 H         1 UNK         0.3800 
    244 H244       -2.6038  -22.0468  -53.8558 H         1 UNK         0.0800 
    245 H245       -1.4195  -22.9389  -52.9732 H         1 UNK         0.0800 
    246 H246       -1.2151  -21.0157  -51.2175 H         1 UNK         0.0800 
    247 H247       -2.4493  -20.1479  -52.0937 H         1 UNK         0.0800 
@<TRIPOS>BOND
     1    1    2 1    
     2    1  127 1    
     3    1  128 1    
     4    1  129 1    
     5    2    3 2    
     6    2    4 am   BACKBONE|DICT|INTERRES
     7    4    5 1    
     8    4  130 1    
     9    5    6 1    
    10    5   65 1    
    11    5  131 1    
    12    6    7 1    
    13    6  132 1    
    14    6  133 1    
    15    7    8 1    
    16    8    9 1    
    17    8  134 1    
    18    8  135 1    
    19    9   10 ar   
    20    9   14 ar   
    21   10   11 ar   
    22   10  136 1    
    23   11   12 ar   
    24   11  126 1    
    25   12   13 ar   
    26   12  137 1    
    27   13   14 ar   
    28   13   15 1    
    29   14  138 1    
    30   15   16 1    
    31   15  139 1    
    32   15  140 1    
    33   16   17 1    
    34   17   18 1    
    35   17  141 1    
    36   17  142 1    
    37   18   19 1    
    38   18   67 1    
    39   18  143 1    
    40   19   20 am   BACKBONE|DICT|INTERRES
    41   19  144 1    
    42   20   21 2    
    43   20   22 1    
    44   22   23 1    
    45   22   24 1    
    46   22  145 1    
    47   23  146 1    
    48   23  147 1    
    49   23  148 1    
    50   24   25 am   BACKBONE|DICT|INTERRES
    51   24  149 1    
    52   25   26 2    
    53   25   27 1    
    54   27   28 1    
    55   27   29 1    
    56   27  150 1    
    57   28  151 1    
    58   28  152 1    
    59   28  153 1    
    60   29   30 am   BACKBONE|DICT|INTERRES
    61   29  154 1    
    62   30   31 2    
    63   30   32 1    
    64   32   33 1    
    65   32   34 1    
    66   32  155 1    
    67   33  156 1    
    68   33  157 1    
    69   33  158 1    
    70   34   35 am   BACKBONE|DICT|INTERRES
    71   34  159 1    
    72   35   36 2    
    73   35   37 1    
    74   37   38 1    
    75   37   39 1    
    76   37  160 1    
    77   38  161 1    
    78   38  162 1    
    79   38  163 1    
    80   39   40 am   BACKBONE|DICT|INTERRES
    81   39  164 1    
    82   40   41 2    
    83   40   42 1    
    84   42   43 1    
    85   42   44 1    
    86   42  165 1    
    87   43  166 1    
    88   43  167 1    
    89   43  168 1    
    90   44   45 am   BACKBONE|DICT|INTERRES
    91   44  169 1    
    92   45   46 2    
    93   45   47 1    
    94   47   48 1    
    95   47   49 1    
    96   47  170 1    
    97   48  171 1    
    98   48  172 1    
    99   48  173 1    
   100   49   50 am   BACKBONE|DICT|INTERRES
   101   49  174 1    
   102   50   51 2    
   103   50   52 1    
   104   52   53 1    
   105   52   54 1    
   106   52  175 1    
   107   53  176 1    
   108   53  177 1    
   109   53  178 1    
   110   54   55 am   BACKBONE|DICT|INTERRES
   111   54  179 1    
   112   55   56 2    
   113   55   57 1    
   114   57   58 1    
   115   57   59 1    
   116   57  180 1    
   117   58  181 1    
   118   58  182 1    
   119   58  183 1    
   120   59   60 am   BACKBONE|DICT|INTERRES
   121   59  184 1    
   122   60   61 2    
   123   60   62 1    
   124   62   63 1    
   125   62   64 1    
   126   62  185 1    
   127   63  186 1    
   128   63  187 1    
   129   63  188 1    
   130   64   65 am   BACKBONE|DICT|INTERRES
   131   64  189 1    
   132   65   66 2    
   133   67   68 2    
   134   67   69 am   BACKBONE|DICT|INTERRES
   135   69   70 1    
   136   69  190 1    
   137   70   71 1    
   138   70   72 1    
   139   70  191 1    
   140   71  192 1    
   141   71  193 1    
   142   71  194 1    
   143   72   73 2    
   144   72   74 am   BACKBONE|DICT|INTERRES
   145   74   75 1    
   146   74  195 1    
   147   75   76 1    
   148   75   77 1    
   149   75  196 1    
   150   76  197 1    
   151   76  198 1    
   152   76  199 1    
   153   77   78 2    
   154   77   79 am   BACKBONE|DICT|INTERRES
   155   79   80 1    
   156   79  200 1    
   157   80   81 1    
   158   80   82 1    
   159   80  201 1    
   160   81  202 1    
   161   81  203 1    
   162   81  204 1    
   163   82   83 2    
   164   82   84 am   BACKBONE|DICT|INTERRES
   165   84   85 1    
   166   84  205 1    
   167   85   86 1    
   168   85   87 1    
   169   85  206 1    
   170   86  207 1    
   171   86  208 1    
   172   86  209 1    
   173   87   88 2    
   174   87   89 am   BACKBONE|DICT|INTERRES
   175   89   90 1    
   176   89  210 1    
   177   90   91 1    
   178   90   92 1    
   179   90  211 1    
   180   91  212 1    
   181   91  213 1    
   182   91  214 1    
   183   92   93 2    
   184   92   94 am   BACKBONE|DICT|INTERRES
   185   94   95 1    
   186   94  215 1    
   187   95   96 1    
   188   95   97 1    
   189   95  216 1    
   190   96  217 1    
   191   96  218 1    
   192   96  219 1    
   193   97   98 2    
   194   97   99 am   BACKBONE|DICT|INTERRES
   195   99  100 1    
   196   99  220 1    
   197  100  101 1    
   198  100  102 1    
   199  100  221 1    
   200  101  222 1    
   201  101  223 1    
   202  101  224 1    
   203  102  103 2    
   204  102  104 am   BACKBONE|DICT|INTERRES
   205  104  105 1    
   206  104  225 1    
   207  105  106 1    
   208  105  107 1    
   209  105  226 1    
   210  106  227 1    
   211  106  228 1    
   212  106  229 1    
   213  107  108 2    
   214  107  109 am   BACKBONE|DICT|INTERRES
   215  109  110 1    
   216  109  230 1    
   217  110  111 1    
   218  110  112 1    
   219  110  231 1    
   220  111  232 1    
   221  111  233 1    
   222  111  234 1    
   223  112  113 2    
   224  112  114 am   BACKBONE|DICT|INTERRES
   225  114  115 1    
   226  114  235 1    
   227  115  116 1    
   228  115  117 1    
   229  115  236 1    
   230  116  237 1    
   231  116  238 1    
   232  116  239 1    
   233  117  118 2    
   234  117  119 am   BACKBONE|DICT|INTERRES
   235  119  120 1    
   236  119  240 1    
   237  120  121 1    
   238  120  124 1    
   239  120  241 1    
   240  121  122 am   BACKBONE|DICT|INTERRES
   241  121  123 2    
   242  122  242 1    
   243  122  243 1    
   244  124  125 1    
   245  124  244 1    
   246  124  245 1    
   247  125  126 1    
   248  126  246 1    
   249  126  247 1    
@<TRIPOS>SUBSTRUCTURE
     1 UNK         1 GROUP             0       ****    0 ROOT    
