@<TRIPOS>MOLECULE
3R540
247   249    1
SMALL
USER_CHARGES


@<TRIPOS>ATOM
      1 CA         -0.8549  -10.2401  -51.0645 C.3       0 UNK        -0.1800 
      2 C          -1.0483  -11.4102  -50.1126 C.2       0 UNK         0.5000 
      3 O          -0.3932  -11.4686  -49.0693 O.2       0 UNK        -0.5000 
      4 N          -1.9622  -12.3337  -50.4441 N.am      1 UNK        -0.5000 
      5 CA         -2.2736  -13.5593  -49.6912 C.3       1 UNK         0.1400 
      6 C6         -2.8449  -14.6691  -50.6128 C.3       23 UNK        -0.0398 
      7 S7         -2.2460  -16.3259  -50.1410 S.3       23 UNK        -0.2404 
      8 C8         -0.6596  -16.3491  -51.0281 C.3       23 UNK        -0.0205 
      9 C9          0.0844  -17.6627  -50.8498 C.ar      23 UNK        -0.0193 
     10 C10         0.2458  -18.5229  -51.9372 C.ar      23 UNK        -0.1150 
     11 C11         0.9919  -19.6983  -51.8144 C.ar      23 UNK        -0.0193 
     12 C12         1.5791  -20.0087  -50.5834 C.ar      23 UNK        -0.1150 
     13 C13         1.4258  -19.1582  -49.4804 C.ar      23 UNK        -0.0193 
     14 C14         0.6717  -17.9880  -49.6231 C.ar      23 UNK        -0.1150 
     15 C15         2.1401  -19.4317  -48.1571 C.3       23 UNK        -0.0205 
     16 S16         2.1822  -21.1882  -47.6596 S.3       23 UNK        -0.2404 
     17 C17         0.4544  -21.4375  -47.1510 C.3       23 UNK        -0.0398 
     18 CA          0.1516  -22.9044  -46.7664 C.3       11 UNK         0.1400 
     19 N           0.9707  -23.3969  -45.6549 N.am      11 UNK        -0.5000 
     20 C           1.0884  -24.6889  -45.3168 C.2       10 UNK         0.5000 
     21 O           0.5241  -25.6051  -45.9135 O.2       10 UNK        -0.5000 
     22 CA          1.9392  -25.0047  -44.0736 C.3       10 UNK         0.1400 
     23 CB          3.4359  -24.9774  -44.4174 C.3       10 UNK        -0.1800 
     24 N           1.6751  -24.0827  -42.9686 N.am      10 UNK        -0.5000 
     25 C           0.5046  -23.9932  -42.3214 C.2       9 UNK         0.5000 
     26 O          -0.4617  -24.7182  -42.5536 O.2       9 UNK        -0.5000 
     27 CA          0.3717  -22.8686  -41.2780 C.3       9 UNK         0.1400 
     28 CB          0.8601  -23.3462  -39.9029 C.3       9 UNK        -0.1800 
     29 N           1.0771  -21.6364  -41.6408 N.am      9 UNK        -0.5000 
     30 C           0.8769  -20.9229  -42.7564 C.2       8 UNK         0.5000 
     31 O           0.0840  -21.2496  -43.6416 O.2       8 UNK        -0.5000 
     32 CA          1.6914  -19.6230  -42.8786 C.3       8 UNK         0.1400 
     33 CB          1.6170  -19.0074  -44.2853 C.3       8 UNK        -0.1800 
     34 N           1.2293  -18.6419  -41.8993 N.am      8 UNK        -0.5000 
     35 C           1.6154  -18.5984  -40.6159 C.2       7 UNK         0.5000 
     36 O           2.4006  -19.4138  -40.1269 O.2       7 UNK        -0.5000 
     37 CA          1.0111  -17.4904  -39.7230 C.3       7 UNK         0.1400 
     38 CB          2.0001  -16.9937  -38.6476 C.3       7 UNK        -0.1800 
     39 N           0.4397  -16.3627  -40.4698 N.am      7 UNK        -0.5000 
     40 C           1.0837  -15.5104  -41.2801 C.2       6 UNK         0.5000 
     41 O           2.2975  -15.5310  -41.4934 O.2       6 UNK        -0.5000 
     42 CA          0.1974  -14.4839  -42.0084 C.3       6 UNK         0.1400 
     43 CB          0.7263  -13.0546  -41.8091 C.3       6 UNK        -0.1800 
     44 N           0.0843  -14.7714  -43.4397 N.am      6 UNK        -0.5000 
     45 C          -0.4233  -15.8935  -43.9738 C.2       5 UNK         0.5000 
     46 O          -0.8146  -16.8469  -43.2985 O.2       5 UNK        -0.5000 
     47 CA         -0.5418  -15.9737  -45.5100 C.3       5 UNK         0.1400 
     48 CB         -2.0170  -15.9525  -45.9383 C.3       5 UNK        -0.1800 
     49 N           0.1592  -14.8884  -46.1951 N.am      5 UNK        -0.5000 
     50 C           1.4404  -14.9316  -46.5832 C.2       4 UNK         0.5000 
     51 O           2.1667  -15.9140  -46.4352 O.2       4 UNK        -0.5000 
     52 CA          2.0062  -13.6621  -47.2501 C.3       4 UNK         0.1400 
     53 CB          2.0245  -13.8208  -48.7779 C.3       4 UNK        -0.1800 
     54 N           1.2610  -12.4481  -46.9010 N.am      4 UNK        -0.5000 
     55 C           1.3280  -11.8413  -45.7066 C.2       3 UNK         0.5000 
     56 O           2.0403  -12.2348  -44.7846 O.2       3 UNK        -0.5000 
     57 CA          0.4127  -10.6226  -45.4918 C.3       3 UNK         0.1400 
     58 CB          1.0110   -9.3702  -46.1502 C.3       3 UNK        -0.1800 
     59 N          -0.9308  -10.8529  -46.0215 N.am      3 UNK        -0.5000 
     60 C          -1.8370  -11.6780  -45.4737 C.2       2 UNK         0.5000 
     61 O          -1.6671  -12.2770  -44.4139 O.2       2 UNK        -0.5000 
     62 CA         -3.0972  -11.9516  -46.3033 C.3       2 UNK         0.1400 
     63 CB         -4.0315  -10.7321  -46.3503 C.3       2 UNK        -0.1800 
     64 N          -2.6589  -12.3051  -47.6453 N.am      2 UNK        -0.5000 
     65 C          -3.1131  -13.2918  -48.4171 C.2       1 UNK         0.5000 
     66 O          -4.1116  -13.9615  -48.1528 O.2       1 UNK        -0.5000 
     67 C          -1.3499  -23.0743  -46.4775 C.2       11 UNK         0.5000 
     68 O          -2.1075  -23.3690  -47.4009 O.2       11 UNK        -0.5000 
     69 N          -1.7554  -22.9001  -45.2130 N.am      12 UNK        -0.5000 
     70 CA         -3.1185  -23.1457  -44.7464 C.3       12 UNK         0.1400 
     71 CB         -3.2859  -22.5969  -43.3220 C.3       12 UNK        -0.1800 
     72 C          -3.4937  -24.6370  -44.8222 C.2       12 UNK         0.5000 
     73 O          -4.5588  -24.9647  -45.3449 O.2       12 UNK        -0.5000 
     74 N          -2.5962  -25.5122  -44.3450 N.am      13 UNK        -0.5000 
     75 CA         -2.7504  -26.9691  -44.3700 C.3       13 UNK         0.1400 
     76 CB         -1.6269  -27.6180  -43.5475 C.3       13 UNK        -0.1800 
     77 C          -2.7836  -27.5524  -45.7947 C.2       13 UNK         0.5000 
     78 O          -3.5829  -28.4492  -46.0657 O.2       13 UNK        -0.5000 
     79 N          -1.9369  -27.0171  -46.6847 N.am      14 UNK        -0.5000 
     80 CA         -1.8754  -27.3850  -48.1015 C.3       14 UNK         0.1400 
     81 CB         -0.5313  -26.9075  -48.6751 C.3       14 UNK        -0.1800 
     82 C          -3.0365  -26.8149  -48.9417 C.2       14 UNK         0.5000 
     83 O          -3.2049  -27.2342  -50.0869 O.2       14 UNK        -0.5000 
     84 N          -3.7773  -25.8452  -48.3823 N.am      15 UNK        -0.5000 
     85 CA         -4.8142  -25.0215  -49.0177 C.3       15 UNK         0.1400 
     86 CB         -5.9928  -25.8767  -49.5248 C.3       15 UNK        -0.1800 
     87 C          -4.2608  -24.0679  -50.0995 C.2       15 UNK         0.5000 
     88 O          -5.0293  -23.5086  -50.8811 O.2       15 UNK        -0.5000 
     89 N          -2.9414  -23.8457  -50.0897 N.am      16 UNK        -0.5000 
     90 CA         -2.2256  -22.8958  -50.9356 C.3       16 UNK         0.1400 
     91 CB         -0.7176  -23.1329  -50.7748 C.3       16 UNK        -0.1800 
     92 C          -2.5969  -21.4422  -50.5968 C.2       16 UNK         0.5000 
     93 O          -2.7754  -20.6337  -51.5053 O.2       16 UNK        -0.5000 
     94 N          -2.7831  -21.1573  -49.2989 N.am      17 UNK        -0.5000 
     95 CA         -3.2452  -19.8575  -48.8055 C.3       17 UNK         0.1400 
     96 CB         -3.0423  -19.7802  -47.2841 C.3       17 UNK        -0.1800 
     97 C          -4.7145  -19.5640  -49.1708 C.2       17 UNK         0.5000 
     98 O          -5.0859  -18.3988  -49.3050 O.2       17 UNK        -0.5000 
     99 N          -5.5234  -20.6220  -49.3280 N.am      18 UNK        -0.5000 
    100 CA        -6.9071  -20.5330  -49.7923 C.3       18 UNK         0.1400 
    101 CB        -7.6856  -21.7806  -49.3454 C.3       18 UNK        -0.1800 
    102 C         -6.9771  -20.3499  -51.3188 C.2       18 UNK         0.5000 
    103 O         -7.7949  -19.5625  -51.7960 O.2       18 UNK        -0.5000 
    104 N         -6.1152  -21.0696  -52.0526 N.am      19 UNK        -0.5000 
    105 CA        -5.9793  -20.9830  -53.5060 C.3       19 UNK         0.1400 
    106 CB        -5.0882  -22.1293  -54.0097 C.3       19 UNK        -0.1800 
    107 C         -5.4270  -19.6239  -53.9693 C.2       19 UNK         0.5000 
    108 O         -5.9708  -19.0416  -54.9081 O.2       19 UNK        -0.5000 
    109 N         -4.3561  -19.1554  -53.3105 N.am      20 UNK        -0.5000 
    110 CA        -3.6342  -17.8847  -53.4717 C.3       20 UNK         0.1400 
    111 CB        -4.5524  -16.6894  -53.1596 C.3       20 UNK        -0.1800 
    112 C         -2.9130  -17.6860  -54.8221 C.2       20 UNK         0.5000 
    113 O         -1.8433  -17.0751  -54.8485 O.2       20 UNK        -0.5000 
    114 N         -3.4847  -18.2142  -55.9119 N.am      21 UNK        -0.5000 
    115 CA        -3.0170  -18.1183  -57.2987 C.3       21 UNK         0.1400 
    116 CB        -4.0520  -18.7955  -58.2102 C.3       21 UNK        -0.1800 
    117 C         -1.6123  -18.7011  -57.5539 C.2       21 UNK         0.5000 
    118 O         -0.9849  -18.3488  -58.5538 O.2       21 UNK        -0.5000 
    119 N         -1.1370  -19.5588  -56.6438 N.am      22 UNK        -0.5000 
    120 CA         0.2510  -20.0349  -56.5700 C.3       22 UNK         0.1400 
    121 C          1.3006  -18.9339  -56.2243 C.2       22 UNK         0.5000 
    122 N          0.9122  -17.7739  -55.7046 N.am      22 UNK        -0.7600 
    123 O          2.4922  -19.1381  -56.4392 O.2       22 UNK        -0.5000 
    124 C124        0.3784  -21.2646  -55.6308 C.3       23 UNK        -0.0398 
    125 S125       -0.2853  -20.9776  -53.9508 S.3       23 UNK        -0.2404 
    126 C126        1.2411  -20.5814  -53.0316 C.3       23 UNK        -0.0205 
    127 H127       -1.5046  -10.3149  -51.9366 H         1 UNK         0.0600 
    128 H128        0.1782  -10.2078  -51.4103 H         1 UNK         0.0600 
    129 H129       -1.0742   -9.3025  -50.5541 H         1 UNK         0.0600 
    130 H130       -2.5010  -12.1969  -51.2876 H         1 UNK         0.3000 
    131 H131       -1.3157  -13.9205  -49.3136 H         1 UNK         0.0600 
    132 H132       -3.9360  -14.6696  -50.6272 H         1 UNK         0.0800 
    133 H133       -2.5473  -14.4969  -51.6479 H         1 UNK         0.0800 
    134 H134       -0.0294  -15.5336  -50.6733 H         1 UNK         0.0800 
    135 H135       -0.8408  -16.1579  -52.0873 H         1 UNK         0.0800 
    136 H136       -0.1856  -18.2643  -52.8938 H         1 UNK         0.1150 
    137 H137        2.1862  -20.8982  -50.4936 H         1 UNK         0.1150 
    138 H138        0.5666  -17.3088  -48.7882 H         1 UNK         0.1150 
    139 H139        1.6896  -18.8474  -47.3530 H         1 UNK         0.0800 
    140 H140        3.1672  -19.0773  -48.2498 H         1 UNK         0.0800 
    141 H141       -0.1779  -21.1249  -47.9837 H         1 UNK         0.0800 
    142 H142        0.2315  -20.7650  -46.3216 H         1 UNK         0.0800 
    143 H143        0.3803  -23.5292  -47.6319 H         1 UNK         0.0600 
    144 H144        1.4206  -22.6962  -45.0849 H         1 UNK         0.3000 
    145 H145        1.6830  -26.0132  -43.7419 H         1 UNK         0.0600 
    146 H146        3.6612  -25.6693  -45.2302 H         1 UNK         0.0600 
    147 H147        4.0423  -25.2747  -43.5617 H         1 UNK         0.0600 
    148 H148        3.7614  -23.9849  -44.7316 H         1 UNK         0.0600 
    149 H149        2.4154  -23.4461  -42.7135 H         1 UNK         0.3000 
    150 H150       -0.6887  -22.6232  -41.1956 H         1 UNK         0.0600 
    151 H151        1.9273  -23.5713  -39.9105 H         1 UNK         0.0600 
    152 H152        0.3349  -24.2511  -39.5941 H         1 UNK         0.0600 
    153 H153        0.6820  -22.5910  -39.1371 H         1 UNK         0.0600 
    154 H154        1.7167  -21.2565  -40.9520 H         1 UNK         0.3000 
    155 H155        2.7386  -19.8627  -42.6823 H         1 UNK         0.0600 
    156 H156        2.1449  -18.0545  -44.3326 H         1 UNK         0.0600 
    157 H157        0.5873  -18.8380  -44.5995 H         1 UNK         0.0600 
    158 H158        2.0801  -19.6699  -45.0157 H         1 UNK         0.0600 
    159 H159        0.5392  -17.9734  -42.2260 H         1 UNK         0.3000 
    160 H160        0.1739  -17.9577  -39.2030 H         1 UNK         0.0600 
    161 H161        2.9079  -16.5824  -39.0897 H         1 UNK         0.0600 
    162 H162        2.3007  -17.8068  -37.9858 H         1 UNK         0.0600 
    163 H163        1.5501  -16.2212  -38.0241 H         1 UNK         0.0600 
    164 H164       -0.5658  -16.2789  -40.4072 H         1 UNK         0.3000 
    165 H165       -0.8097  -14.5241  -41.5882 H         1 UNK         0.0600 
    166 H166        0.0821  -12.3209  -42.2935 H         1 UNK         0.0600 
    167 H167        0.7687  -12.8003  -40.7494 H         1 UNK         0.0600 
    168 H168        1.7321  -12.9366  -42.2133 H         1 UNK         0.0600 
    169 H169        0.4040  -14.0437  -44.0623 H         1 UNK         0.3000 
    170 H170       -0.1205  -16.9305  -45.8235 H         1 UNK         0.0600 
    171 H171       -2.1168  -16.0635  -47.0181 H         1 UNK         0.0600 
    172 H172       -2.5079  -15.0235  -45.6476 H         1 UNK         0.0600 
    173 H173       -2.5699  -16.7725  -45.4786 H         1 UNK         0.0600 
    174 H174       -0.3544  -14.0327  -46.3379 H         1 UNK         0.3000 
    175 H175        3.0373  -13.5452  -46.9097 H         1 UNK         0.0600 
    176 H176        2.5934  -14.7031  -49.0744 H         1 UNK         0.0600 
    177 H177        1.0195  -13.9279  -49.1829 H         1 UNK         0.0600 
    178 H178        2.4869  -12.9582  -49.2580 H         1 UNK         0.0600 
    179 H179        0.6780  -12.0465  -47.6311 H         1 UNK         0.3000 
    180 H180        0.3369  -10.4419  -44.4172 H         1 UNK         0.0600 
    181 H181        1.0882   -9.4801  -47.2329 H         1 UNK         0.0600 
    182 H182        2.0125   -9.1692  -45.7677 H         1 UNK         0.0600 
    183 H183        0.4026   -8.4892  -45.9453 H         1 UNK         0.0600 
    184 H184       -1.1457  -10.3912  -46.8931 H         1 UNK         0.3000 
    185 H185       -3.6290  -12.7899  -45.8483 H         1 UNK         0.0600 
    186 H186       -4.3418  -10.4406  -45.3462 H         1 UNK         0.0600 
    187 H187       -3.5523   -9.8684  -46.8124 H         1 UNK         0.0600 
    188 H188       -4.9346  -10.9549  -46.9187 H         1 UNK         0.0600 
    189 H189       -1.8195  -11.8393  -47.9788 H         1 UNK         0.3000 
    190 H190       -1.0805  -22.5784  -44.5258 H         1 UNK         0.3000 
    191 H191       -3.8014  -22.5984  -45.3991 H         1 UNK         0.0600 
    192 H192       -3.0400  -21.5356  -43.2775 H         1 UNK         0.0600 
    193 H193       -4.3159  -22.7085  -42.9813 H         1 UNK         0.0600 
    194 H194       -2.6477  -23.1177  -42.6091 H         1 UNK         0.0600 
    195 H195       -1.7591  -25.1573  -43.8900 H         1 UNK         0.3000 
    196 H196       -3.7023  -27.2104  -43.8926 H         1 UNK         0.0600 
    197 H197       -1.7206  -28.7046  -43.5437 H         1 UNK         0.0600 
    198 H198       -1.6569  -27.2857  -42.5097 H         1 UNK         0.0600 
    199 H199       -0.6425  -27.3730  -43.9483 H         1 UNK         0.0600 
    200 H200       -1.2554  -26.3350  -46.3642 H         1 UNK         0.3000 
    201 H201       -1.9149  -28.4733  -48.1815 H         1 UNK         0.0600 
    202 H202       -0.4274  -27.1883  -49.7240 H         1 UNK         0.0600 
    203 H203        0.3066  -27.3516  -48.1374 H         1 UNK         0.0600 
    204 H204       -0.4313  -25.8231  -48.6139 H         1 UNK         0.0600 
    205 H205       -3.5483  -25.5794  -47.4332 H         1 UNK         0.3000 
    206 H206       -5.1987  -24.3766  -48.2263 H         1 UNK         0.0600 
    207 H207       -6.3592  -26.5445  -48.7452 H         1 UNK         0.0600 
    208 H208       -6.8287  -25.2465  -49.8302 H         1 UNK         0.0600 
    209 H209       -5.7153  -26.4840  -50.3865 H         1 UNK         0.0600 
    210 H210       -2.4126  -24.2626  -49.3352 H         1 UNK         0.3000 
    211 H211       -2.4985  -23.0855  -51.9755 H         1 UNK         0.0600 
    212 H212       -0.3860  -22.9495  -49.7545 H         1 UNK         0.0600 
    213 H213       -0.1481  -22.4693  -51.4216 H         1 UNK         0.0600 
    214 H214       -0.4467  -24.1551  -51.0391 H         1 UNK         0.0600 
    215 H215       -2.6448  -21.8959  -48.6172 H         1 UNK         0.3000 
    216 H216       -2.6289  -19.0857  -49.2693 H         1 UNK         0.0600 
    217 H217       -3.4105  -18.8318  -46.8907 H         1 UNK         0.0600 
    218 H218       -1.9885  -19.8450  -47.0190 H         1 UNK         0.0600 
    219 H219       -3.5732  -20.5785  -46.7656 H         1 UNK         0.0600 
    220 H220       -5.1339  -21.5461  -49.2259 H         1 UNK         0.3000 
    221 H221       -7.3784  -19.6638  -49.3280 H         1 UNK         0.0600 
    222 H222       -7.2903  -22.6921  -49.7926 H         1 UNK         0.0600 
    223 H223       -7.6553  -21.8977  -48.2621 H         1 UNK         0.0600 
    224 H224       -8.7345  -21.7056  -49.6347 H         1 UNK         0.0600 
    225 H225       -5.5316  -21.7564  -51.5858 H         1 UNK         0.3000 
    226 H226       -6.9719  -21.1081  -53.9437 H         1 UNK         0.0600 
    227 H227       -4.9983  -22.1057  -55.0964 H         1 UNK         0.0600 
    228 H228       -4.0810  -22.0702  -53.5961 H         1 UNK         0.0600 
    229 H229       -5.5036  -23.1000  -53.7380 H         1 UNK         0.0600 
    230 H230       -3.9463  -19.7613  -52.6005 H         1 UNK         0.3000 
    231 H231       -2.8516  -17.9050  -52.7120 H         1 UNK         0.0600 
    232 H232       -5.3869  -16.6215  -53.8577 H         1 UNK         0.0600 
    233 H233       -4.0027  -15.7500  -53.2200 H         1 UNK         0.0600 
    234 H234       -4.9614  -16.7643  -52.1516 H         1 UNK         0.0600 
    235 H235       -4.3920  -18.6514  -55.7731 H         1 UNK         0.3000 
    236 H236       -2.9748  -17.0579  -57.5544 H         1 UNK         0.0600 
    237 H237       -4.1593  -19.8553  -57.9753 H         1 UNK         0.0600 
    238 H238       -5.0322  -18.3289  -58.1092 H         1 UNK         0.0600 
    239 H239       -3.7630  -18.7180  -59.2592 H         1 UNK         0.0600 
    240 H240       -1.7168  -19.7802  -55.8477 H         1 UNK         0.3000 
    241 H241        0.5149  -20.3771  -57.5725 H         1 UNK         0.0600 
    242 H242       -0.0651  -17.5901  -55.4991 H         1 UNK         0.3800 
    243 H243        1.6037  -17.0727  -55.4941 H         1 UNK         0.3800 
    244 H244        1.4121  -21.6099  -55.5710 H         1 UNK         0.0800 
    245 H245       -0.1786  -22.0982  -56.0602 H         1 UNK         0.0800 
    246 H246        1.9444  -20.0585  -53.6790 H         1 UNK         0.0800 
    247 H247        1.7265  -21.5150  -52.7438 H         1 UNK         0.0800 
@<TRIPOS>BOND
     1    1    2 1    
     2    1  127 1    
     3    1  128 1    
     4    1  129 1    
     5    2    3 2    
     6    2    4 am   BACKBONE|DICT|INTERRES
     7    4    5 1    
     8    4  130 1    
     9    5    6 1    
    10    5   65 1    
    11    5  131 1    
    12    6    7 1    
    13    6  132 1    
    14    6  133 1    
    15    7    8 1    
    16    8    9 1    
    17    8  134 1    
    18    8  135 1    
    19    9   10 ar   
    20    9   14 ar   
    21   10   11 ar   
    22   10  136 1    
    23   11   12 ar   
    24   11  126 1    
    25   12   13 ar   
    26   12  137 1    
    27   13   14 ar   
    28   13   15 1    
    29   14  138 1    
    30   15   16 1    
    31   15  139 1    
    32   15  140 1    
    33   16   17 1    
    34   17   18 1    
    35   17  141 1    
    36   17  142 1    
    37   18   19 1    
    38   18   67 1    
    39   18  143 1    
    40   19   20 am   BACKBONE|DICT|INTERRES
    41   19  144 1    
    42   20   21 2    
    43   20   22 1    
    44   22   23 1    
    45   22   24 1    
    46   22  145 1    
    47   23  146 1    
    48   23  147 1    
    49   23  148 1    
    50   24   25 am   BACKBONE|DICT|INTERRES
    51   24  149 1    
    52   25   26 2    
    53   25   27 1    
    54   27   28 1    
    55   27   29 1    
    56   27  150 1    
    57   28  151 1    
    58   28  152 1    
    59   28  153 1    
    60   29   30 am   BACKBONE|DICT|INTERRES
    61   29  154 1    
    62   30   31 2    
    63   30   32 1    
    64   32   33 1    
    65   32   34 1    
    66   32  155 1    
    67   33  156 1    
    68   33  157 1    
    69   33  158 1    
    70   34   35 am   BACKBONE|DICT|INTERRES
    71   34  159 1    
    72   35   36 2    
    73   35   37 1    
    74   37   38 1    
    75   37   39 1    
    76   37  160 1    
    77   38  161 1    
    78   38  162 1    
    79   38  163 1    
    80   39   40 am   BACKBONE|DICT|INTERRES
    81   39  164 1    
    82   40   41 2    
    83   40   42 1    
    84   42   43 1    
    85   42   44 1    
    86   42  165 1    
    87   43  166 1    
    88   43  167 1    
    89   43  168 1    
    90   44   45 am   BACKBONE|DICT|INTERRES
    91   44  169 1    
    92   45   46 2    
    93   45   47 1    
    94   47   48 1    
    95   47   49 1    
    96   47  170 1    
    97   48  171 1    
    98   48  172 1    
    99   48  173 1    
   100   49   50 am   BACKBONE|DICT|INTERRES
   101   49  174 1    
   102   50   51 2    
   103   50   52 1    
   104   52   53 1    
   105   52   54 1    
   106   52  175 1    
   107   53  176 1    
   108   53  177 1    
   109   53  178 1    
   110   54   55 am   BACKBONE|DICT|INTERRES
   111   54  179 1    
   112   55   56 2    
   113   55   57 1    
   114   57   58 1    
   115   57   59 1    
   116   57  180 1    
   117   58  181 1    
   118   58  182 1    
   119   58  183 1    
   120   59   60 am   BACKBONE|DICT|INTERRES
   121   59  184 1    
   122   60   61 2    
   123   60   62 1    
   124   62   63 1    
   125   62   64 1    
   126   62  185 1    
   127   63  186 1    
   128   63  187 1    
   129   63  188 1    
   130   64   65 am   BACKBONE|DICT|INTERRES
   131   64  189 1    
   132   65   66 2    
   133   67   68 2    
   134   67   69 am   BACKBONE|DICT|INTERRES
   135   69   70 1    
   136   69  190 1    
   137   70   71 1    
   138   70   72 1    
   139   70  191 1    
   140   71  192 1    
   141   71  193 1    
   142   71  194 1    
   143   72   73 2    
   144   72   74 am   BACKBONE|DICT|INTERRES
   145   74   75 1    
   146   74  195 1    
   147   75   76 1    
   148   75   77 1    
   149   75  196 1    
   150   76  197 1    
   151   76  198 1    
   152   76  199 1    
   153   77   78 2    
   154   77   79 am   BACKBONE|DICT|INTERRES
   155   79   80 1    
   156   79  200 1    
   157   80   81 1    
   158   80   82 1    
   159   80  201 1    
   160   81  202 1    
   161   81  203 1    
   162   81  204 1    
   163   82   83 2    
   164   82   84 am   BACKBONE|DICT|INTERRES
   165   84   85 1    
   166   84  205 1    
   167   85   86 1    
   168   85   87 1    
   169   85  206 1    
   170   86  207 1    
   171   86  208 1    
   172   86  209 1    
   173   87   88 2    
   174   87   89 am   BACKBONE|DICT|INTERRES
   175   89   90 1    
   176   89  210 1    
   177   90   91 1    
   178   90   92 1    
   179   90  211 1    
   180   91  212 1    
   181   91  213 1    
   182   91  214 1    
   183   92   93 2    
   184   92   94 am   BACKBONE|DICT|INTERRES
   185   94   95 1    
   186   94  215 1    
   187   95   96 1    
   188   95   97 1    
   189   95  216 1    
   190   96  217 1    
   191   96  218 1    
   192   96  219 1    
   193   97   98 2    
   194   97   99 am   BACKBONE|DICT|INTERRES
   195   99  100 1    
   196   99  220 1    
   197  100  101 1    
   198  100  102 1    
   199  100  221 1    
   200  101  222 1    
   201  101  223 1    
   202  101  224 1    
   203  102  103 2    
   204  102  104 am   BACKBONE|DICT|INTERRES
   205  104  105 1    
   206  104  225 1    
   207  105  106 1    
   208  105  107 1    
   209  105  226 1    
   210  106  227 1    
   211  106  228 1    
   212  106  229 1    
   213  107  108 2    
   214  107  109 am   BACKBONE|DICT|INTERRES
   215  109  110 1    
   216  109  230 1    
   217  110  111 1    
   218  110  112 1    
   219  110  231 1    
   220  111  232 1    
   221  111  233 1    
   222  111  234 1    
   223  112  113 2    
   224  112  114 am   BACKBONE|DICT|INTERRES
   225  114  115 1    
   226  114  235 1    
   227  115  116 1    
   228  115  117 1    
   229  115  236 1    
   230  116  237 1    
   231  116  238 1    
   232  116  239 1    
   233  117  118 2    
   234  117  119 am   BACKBONE|DICT|INTERRES
   235  119  120 1    
   236  119  240 1    
   237  120  121 1    
   238  120  124 1    
   239  120  241 1    
   240  121  122 am   BACKBONE|DICT|INTERRES
   241  121  123 2    
   242  122  242 1    
   243  122  243 1    
   244  124  125 1    
   245  124  244 1    
   246  124  245 1    
   247  125  126 1    
   248  126  246 1    
   249  126  247 1    
@<TRIPOS>SUBSTRUCTURE
     1 UNK         1 GROUP             0       ****    0 ROOT    
