@<TRIPOS>MOLECULE
3R540
247   249    1
SMALL
USER_CHARGES


@<TRIPOS>ATOM
      1 CA          5.0961  -15.2748  -44.2262 C.3       0 UNK        -0.1800 
      2 C           4.1433  -14.2876  -44.8797 C.2       0 UNK         0.5000 
      3 O           3.5954  -13.4227  -44.1960 O.2       0 UNK        -0.5000 
      4 N           3.9439  -14.4111  -46.1986 N.am      1 UNK        -0.5000 
      5 CA          3.0112  -13.6041  -46.9994 C.3       1 UNK         0.1400 
      6 C6          2.8494  -14.1530  -48.4377 C.3       23 UNK        -0.0398 
      7 S7          2.2000  -15.8555  -48.4569 S.3       23 UNK        -0.2404 
      8 C8          2.4904  -16.3131  -50.1923 C.3       23 UNK        -0.0205 
      9 C9          1.8883  -17.6758  -50.4914 C.ar      23 UNK        -0.0193 
     10 C10         0.6244  -17.7767  -51.0805 C.ar      23 UNK        -0.1150 
     11 C11         0.0449  -19.0288  -51.3134 C.ar      23 UNK        -0.0193 
     12 C12         0.7474  -20.1810  -50.9523 C.ar      23 UNK        -0.1150 
     13 C13         2.0195  -20.0971  -50.3801 C.ar      23 UNK        -0.0193 
     14 C14         2.5897  -18.8388  -50.1633 C.ar      23 UNK        -0.1150 
     15 C15         2.7676  -21.3750  -50.0170 C.3       23 UNK        -0.0205 
     16 S16         3.4929  -21.3744  -48.3417 S.3       23 UNK        -0.2404 
     17 C17         2.1118  -20.8397  -47.2750 C.3       23 UNK        -0.0398 
     18 CA          1.1602  -21.9931  -46.8669 C.3       11 UNK         0.1400 
     19 N           0.6987  -21.8671  -45.4813 N.am      11 UNK        -0.5000 
     20 C          -0.0023  -22.7974  -44.8167 C.2       10 UNK         0.5000 
     21 O          -0.2928  -23.8979  -45.2851 O.2       10 UNK        -0.5000 
     22 CA         -0.5128  -22.4117  -43.4147 C.3       10 UNK         0.1400 
     23 CB          0.5913  -22.5721  -42.3596 C.3       10 UNK        -0.1800 
     24 N          -1.0445  -21.0480  -43.3747 N.am      10 UNK        -0.5000 
     25 C          -2.1245  -20.6437  -44.0593 C.2       9 UNK         0.5000 
     26 O          -2.8284  -21.3972  -44.7305 O.2       9 UNK        -0.5000 
     27 CA         -2.4375  -19.1379  -44.0394 C.3       9 UNK         0.1400 
     28 CB         -3.2733  -18.7616  -42.8070 C.3       9 UNK        -0.1800 
     29 N          -1.2241  -18.3225  -44.0856 N.am      9 UNK        -0.5000 
     30 C          -0.4015  -18.2478  -45.1424 C.2       8 UNK         0.5000 
     31 O          -0.5907  -18.8423  -46.2023 O.2       8 UNK        -0.5000 
     32 CA          0.8722  -17.4067  -44.9587 C.3       8 UNK         0.1400 
     33 CB          0.5473  -15.9154  -45.1301 C.3       8 UNK        -0.1800 
     34 N           1.4903  -17.6351  -43.6498 N.am      8 UNK        -0.5000 
     35 C           2.0406  -18.8010  -43.2722 C.2       7 UNK         0.5000 
     36 O           2.1240  -19.7779  -44.0139 O.2       7 UNK        -0.5000 
     37 CA          2.5370  -18.9327  -41.8178 C.3       7 UNK         0.1400 
     38 CB          4.0371  -18.6193  -41.7236 C.3       7 UNK        -0.1800 
     39 N           1.8118  -18.0855  -40.8742 N.am      7 UNK        -0.5000 
     40 C           0.4980  -18.1592  -40.6197 C.2       6 UNK         0.5000 
     41 O          -0.2361  -19.0317  -41.0853 O.2       6 UNK        -0.5000 
     42 CA         -0.1014  -17.0301  -39.7540 C.3       6 UNK         0.1400 
     43 CB         -0.2531  -17.4938  -38.2980 C.3       6 UNK        -0.1800 
     44 N           0.6758  -15.7816  -39.7853 N.am      6 UNK        -0.5000 
     45 C           0.9258  -15.0624  -40.8890 C.2       5 UNK         0.5000 
     46 O           0.5112  -15.3754  -42.0063 O.2       5 UNK        -0.5000 
     47 CA          1.8643  -13.8544  -40.7250 C.3       5 UNK         0.1400 
     48 CB          3.3211  -14.3269  -40.5871 C.3       5 UNK        -0.1800 
     49 N           1.7880  -12.9498  -41.8691 N.am      5 UNK        -0.5000 
     50 C           0.8045  -12.0700  -42.0977 C.2       4 UNK         0.5000 
     51 O          -0.1563  -11.9062  -41.3428 O.2       4 UNK        -0.5000 
     52 CA          0.9541  -11.2174  -43.3773 C.3       4 UNK         0.1400 
     53 CB          0.0137   -9.9951  -43.4185 C.3       4 UNK        -0.1800 
     54 N           2.3494  -10.8275  -43.6086 N.am      4 UNK        -0.5000 
     55 C           3.1322  -10.0761  -42.8184 C.2       3 UNK         0.5000 
     56 O           2.7275   -9.4487  -41.8391 O.2       3 UNK        -0.5000 
     57 CA          4.6364  -10.0538  -43.1514 C.3       3 UNK         0.1400 
     58 CB          5.4072  -10.9453  -42.1639 C.3       3 UNK        -0.1800 
     59 N           4.9189  -10.5206  -44.5093 N.am      3 UNK        -0.5000 
     60 C           4.9605   -9.7367  -45.5945 C.2       2 UNK         0.5000 
     61 O           4.7994   -8.5162  -45.5658 O.2       2 UNK        -0.5000 
     62 CA          5.2197  -10.4383  -46.9422 C.3       2 UNK         0.1400 
     63 CB          6.7245  -10.4746  -47.2492 C.3       2 UNK        -0.1800 
     64 N           4.6890  -11.8034  -46.9868 N.am      2 UNK        -0.5000 
     65 C           3.3841  -12.1078  -47.0342 C.2       1 UNK         0.5000 
     66 O           2.4887  -11.2640  -47.0731 O.2       1 UNK        -0.5000 
     67 C          -0.0232  -22.1194  -47.8484 C.2       11 UNK         0.5000 
     68 O          -0.0181  -23.0137  -48.6925 O.2       11 UNK        -0.5000 
     69 N          -1.0368  -21.2565  -47.6892 N.am      12 UNK        -0.5000 
     70 CA         -2.2766  -21.2657  -48.4668 C.3       12 UNK         0.1400 
     71 CB         -3.1301  -20.0515  -48.0724 C.3       12 UNK        -0.1800 
     72 C          -3.0736  -22.5743  -48.3078 C.2       12 UNK         0.5000 
     73 O          -3.5807  -23.1015  -49.2984 O.2       12 UNK        -0.5000 
     74 N          -3.1387  -23.0993  -47.0765 N.am      13 UNK        -0.5000 
     75 CA         -3.7424  -24.3938  -46.7630 C.3       13 UNK         0.1400 
     76 CB         -3.8427  -24.5683  -45.2403 C.3       13 UNK        -0.1800 
     77 C          -2.9821  -25.5675  -47.4072 C.2       13 UNK         0.5000 
     78 O          -3.6153  -26.4404  -48.0009 O.2       13 UNK        -0.5000 
     79 N          -1.6438  -25.5468  -47.3206 N.am      14 UNK        -0.5000 
     80 CA         -0.7520  -26.5375  -47.9307 C.3       14 UNK         0.1400 
     81 CB          0.6842  -26.3093  -47.4354 C.3       14 UNK        -0.1800 
     82 C          -0.8061  -26.5339  -49.4711 C.2       14 UNK         0.5000 
     83 O          -0.7784  -27.6017  -50.0839 O.2       14 UNK        -0.5000 
     84 N          -0.9162  -25.3382  -50.0646 N.am      15 UNK        -0.5000 
     85 CA         -1.0857  -25.1185  -51.5027 C.3       15 UNK         0.1400 
     86 CB         -0.7273  -23.6604  -51.8243 C.3       15 UNK        -0.1800 
     87 C          -2.5004  -25.4469  -52.0210 C.2       15 UNK         0.5000 
     88 O          -2.6878  -25.5030  -53.2363 O.2       15 UNK        -0.5000 
     89 N          -3.4566  -25.6519  -51.1034 N.am      16 UNK        -0.5000 
     90 CA         -4.8750  -25.9252  -51.3310 C.3       16 UNK         0.1400 
     91 CB         -5.0786  -27.2617  -52.0750 C.3       16 UNK        -0.1800 
     92 C          -5.5854  -24.7397  -52.0087 C.2       16 UNK         0.5000 
     93 O          -6.1431  -24.8844  -53.0985 O.2       16 UNK        -0.5000 
     94 N          -5.5728  -23.5817  -51.3324 N.am      17 UNK        -0.5000 
     95 CA         -6.2043  -22.3178  -51.7386 C.3       17 UNK         0.1400 
     96 CB         -5.9846  -21.2731  -50.6370 C.3       17 UNK        -0.1800 
     97 C          -7.7020  -22.3972  -52.1026 C.2       17 UNK         0.5000 
     98 O          -8.1862  -21.5287  -52.8252 O.2       17 UNK        -0.5000 
     99 N          -8.4022  -23.4472  -51.6529 N.am      18 UNK        -0.5000 
    100 CA        -9.7621  -23.7860  -52.0809 C.3       18 UNK         0.1400 
    101 CB       -10.2662  -24.9717  -51.2443 C.3       18 UNK        -0.1800 
    102 C         -9.8716  -24.1050  -53.5893 C.2       18 UNK         0.5000 
    103 O        -10.9299  -23.8748  -54.1757 O.2       18 UNK        -0.5000 
    104 N         -8.7824  -24.6103  -54.1851 N.am      19 UNK        -0.5000 
    105 CA        -8.6519  -24.8900  -55.6144 C.3       19 UNK         0.1400 
    106 CB        -8.1887  -26.3440  -55.7984 C.3       19 UNK        -0.1800 
    107 C         -7.6582  -23.9238  -56.2831 C.2       19 UNK         0.5000 
    108 O         -7.9099  -23.4774  -57.4025 O.2       19 UNK        -0.5000 
    109 N         -6.5512  -23.6114  -55.5932 N.am      20 UNK        -0.5000 
    110 CA        -5.4575  -22.7718  -56.0939 C.3       20 UNK         0.1400 
    111 CB        -4.1785  -23.1080  -55.3095 C.3       20 UNK        -0.1800 
    112 C         -5.7432  -21.2563  -56.0452 C.2       20 UNK         0.5000 
    113 O         -4.9357  -20.4793  -56.5570 O.2       20 UNK        -0.5000 
    114 N         -6.8567  -20.8566  -55.4155 N.am      21 UNK        -0.5000 
    115 CA        -7.3623  -19.4963  -55.1884 C.3       21 UNK         0.1400 
    116 CB        -7.5686  -18.7268  -56.5073 C.3       21 UNK        -0.1800 
    117 C         -6.5315  -18.6811  -54.1798 C.2       21 UNK         0.5000 
    118 O         -7.1040  -18.1223  -53.2434 O.2       21 UNK        -0.5000 
    119 N         -5.2088  -18.6259  -54.3815 N.am      22 UNK        -0.5000 
    120 CA        -4.1866  -17.9473  -53.5616 C.3       22 UNK         0.1400 
    121 C         -4.2941  -16.3915  -53.5081 C.2       22 UNK         0.5000 
    122 N         -5.4829  -15.8145  -53.4077 N.am      22 UNK        -0.7600 
    123 O         -3.2847  -15.6977  -53.5931 O.2       22 UNK        -0.5000 
    124 C124       -4.0733  -18.5910  -52.1519 C.3       23 UNK        -0.0398 
    125 S125       -2.5921  -18.1236  -51.1940 S.3       23 UNK        -0.2404 
    126 C126       -1.3167  -19.1519  -51.9880 C.3       23 UNK        -0.0205 
    127 H127        4.5285  -16.0080  -43.6555 H         1 UNK         0.0600 
    128 H128        5.7708  -14.7551  -43.5459 H         1 UNK         0.0600 
    129 H129        5.6974  -15.8056  -44.9645 H         1 UNK         0.0600 
    130 H130        4.4116  -15.1530  -46.6997 H         1 UNK         0.3000 
    131 H131        2.0361  -13.6613  -46.5118 H         1 UNK         0.0600 
    132 H132        3.8041  -14.1298  -48.9663 H         1 UNK         0.0800 
    133 H133        2.1608  -13.5303  -49.0122 H         1 UNK         0.0800 
    134 H134        2.0575  -15.5555  -50.8476 H         1 UNK         0.0800 
    135 H135        3.5625  -16.3259  -50.3942 H         1 UNK         0.0800 
    136 H136        0.0849  -16.8793  -51.3490 H         1 UNK         0.1150 
    137 H137        0.3052  -21.1498  -51.1263 H         1 UNK         0.1150 
    138 H138        3.5705  -18.7629  -49.7152 H         1 UNK         0.1150 
    139 H139        2.1148  -22.2438  -50.1087 H         1 UNK         0.0800 
    140 H140        3.5691  -21.5237  -50.7414 H         1 UNK         0.0800 
    141 H141        1.5787  -19.9931  -47.7111 H         1 UNK         0.0800 
    142 H142        2.5973  -20.4308  -46.3909 H         1 UNK         0.0800 
    143 H143        1.7164  -22.9320  -46.9104 H         1 UNK         0.0600 
    144 H144        0.9442  -21.0076  -45.0001 H         1 UNK         0.3000 
    145 H145       -1.3266  -23.0929  -43.1575 H         1 UNK         0.0600 
    146 H146        0.2322  -22.3017  -41.3663 H         1 UNK         0.0600 
    147 H147        0.9337  -23.6065  -42.3126 H         1 UNK         0.0600 
    148 H148        1.4591  -21.9527  -42.5831 H         1 UNK         0.0600 
    149 H149       -0.5460  -20.3696  -42.8116 H         1 UNK         0.3000 
    150 H150       -3.0283  -18.9085  -44.9283 H         1 UNK         0.0600 
    151 H151       -4.2102  -19.3198  -42.7901 H         1 UNK         0.0600 
    152 H152       -3.5270  -17.7015  -42.8107 H         1 UNK         0.0600 
    153 H153       -2.7489  -18.9782  -41.8766 H         1 UNK         0.0600 
    154 H154       -0.9686  -17.8363  -43.2381 H         1 UNK         0.3000 
    155 H155        1.5908  -17.6940  -45.7295 H         1 UNK         0.0600 
    156 H156       -0.2718  -15.5989  -44.4838 H         1 UNK         0.0600 
    157 H157        0.2482  -15.6988  -46.1557 H         1 UNK         0.0600 
    158 H158        1.4088  -15.2932  -44.8970 H         1 UNK         0.0600 
    159 H159        1.3929  -16.8839  -42.9745 H         1 UNK         0.3000 
    160 H160        2.3868  -19.9703  -41.5143 H         1 UNK         0.0600 
    161 H161        4.2432  -17.5691  -41.9287 H         1 UNK         0.0600 
    162 H162        4.6085  -19.2142  -42.4376 H         1 UNK         0.0600 
    163 H163        4.4240  -18.8472  -40.7303 H         1 UNK         0.0600 
    164 H164        2.3361  -17.3414  -40.4399 H         1 UNK         0.3000 
    165 H165       -1.0953  -16.8127  -40.1505 H         1 UNK         0.0600 
    166 H166       -0.7579  -16.7398  -37.6938 H         1 UNK         0.0600 
    167 H167       -0.8478  -18.4065  -38.2387 H         1 UNK         0.0600 
    168 H168        0.7141  -17.7018  -37.8388 H         1 UNK         0.0600 
    169 H169        1.0591  -15.4725  -38.9033 H         1 UNK         0.3000 
    170 H170        1.5792  -13.3101  -39.8224 H         1 UNK         0.0600 
    171 H171        3.4484  -14.9784  -39.7219 H         1 UNK         0.0600 
    172 H172        3.6494  -14.8800  -41.4680 H         1 UNK         0.0600 
    173 H173        3.9967  -13.4817  -40.4542 H         1 UNK         0.0600 
    174 H174        2.5009  -13.0629  -42.5833 H         1 UNK         0.3000 
    175 H175        0.6817  -11.8699  -44.2082 H         1 UNK         0.0600 
    176 H176        0.1752   -9.3264  -42.5729 H         1 UNK         0.0600 
    177 H177        0.1561   -9.4204  -44.3337 H         1 UNK         0.0600 
    178 H178       -1.0307  -10.3076  -43.3910 H         1 UNK         0.0600 
    179 H179        2.8119  -11.3343  -44.3514 H         1 UNK         0.3000 
    180 H180        4.9890   -9.0272  -43.0320 H         1 UNK         0.0600 
    181 H181        5.0990  -11.9889  -42.2386 H         1 UNK         0.0600 
    182 H182        5.2396  -10.6269  -41.1341 H         1 UNK         0.0600 
    183 H183        6.4808  -10.8989  -42.3467 H         1 UNK         0.0600 
    184 H184        5.0358  -11.5173  -44.6261 H         1 UNK         0.3000 
    185 H185        4.7269   -9.8523  -47.7211 H         1 UNK         0.0600 
    186 H186        7.1475   -9.4691  -47.2473 H         1 UNK         0.0600 
    187 H187        7.2727  -11.0626  -46.5119 H         1 UNK         0.0600 
    188 H188        6.9163  -10.9044  -48.2325 H         1 UNK         0.0600 
    189 H189        5.3600  -12.5572  -46.9509 H         1 UNK         0.3000 
    190 H190       -0.9402  -20.5102  -47.0049 H         1 UNK         0.3000 
    191 H191       -2.0067  -21.1653  -49.5197 H         1 UNK         0.0600 
    192 H192       -2.5787  -19.1217  -48.2136 H         1 UNK         0.0600 
    193 H193       -4.0323  -19.9859  -48.6790 H         1 UNK         0.0600 
    194 H194       -3.4419  -20.0990  -47.0297 H         1 UNK         0.0600 
    195 H195       -2.7539  -22.5732  -46.2975 H         1 UNK         0.3000 
    196 H196       -4.7565  -24.3939  -47.1682 H         1 UNK         0.0600 
    197 H197       -4.3114  -25.5198  -44.9864 H         1 UNK         0.0600 
    198 H198       -4.4465  -23.7784  -44.7932 H         1 UNK         0.0600 
    199 H199       -2.8625  -24.5476  -44.7644 H         1 UNK         0.0600 
    200 H200       -1.1997  -24.8078  -46.7829 H         1 UNK         0.3000 
    201 H201       -1.0732  -27.5246  -47.5923 H         1 UNK         0.0600 
    202 H202        0.7433  -26.3867  -46.3496 H         1 UNK         0.0600 
    203 H203        1.0579  -25.3256  -47.7204 H         1 UNK         0.0600 
    204 H204        1.3644  -27.0528  -47.8526 H         1 UNK         0.0600 
    205 H205       -0.8456  -24.5035  -49.4868 H         1 UNK         0.3000 
    206 H206       -0.3865  -25.7664  -52.0352 H         1 UNK         0.0600 
    207 H207        0.3037  -23.4452  -51.5445 H         1 UNK         0.0600 
    208 H208       -0.8239  -23.4539  -52.8909 H         1 UNK         0.0600 
    209 H209       -1.3771  -22.9638  -51.2931 H         1 UNK         0.0600 
    210 H210       -3.1889  -25.5574  -50.1323 H         1 UNK         0.3000 
    211 H211       -5.3259  -26.0322  -50.3433 H         1 UNK         0.0600 
    212 H212       -4.6918  -27.2287  -53.0938 H         1 UNK         0.0600 
    213 H213       -6.1383  -27.5111  -52.1400 H         1 UNK         0.0600 
    214 H214       -4.5828  -28.0809  -51.5542 H         1 UNK         0.0600 
    215 H215       -5.0070  -23.5333  -50.4880 H         1 UNK         0.3000 
    216 H216       -5.6866  -21.9708  -52.6336 H         1 UNK         0.0600 
    217 H217       -6.4568  -20.3228  -50.8909 H         1 UNK         0.0600 
    218 H218       -4.9226  -21.0789  -50.4991 H         1 UNK         0.0600 
    219 H219       -6.3946  -21.6022  -49.6816 H         1 UNK         0.0600 
    220 H220       -7.9347  -24.1122  -51.0556 H         1 UNK         0.3000 
    221 H221      -10.4021  -22.9247  -51.8786 H         1 UNK         0.0600 
    222 H222       -9.6475  -25.8583  -51.3897 H         1 UNK         0.0600 
    223 H223      -10.2677  -24.7325  -50.1807 H         1 UNK         0.0600 
    224 H224      -11.2884  -25.2362  -51.5181 H         1 UNK         0.0600 
    225 H225       -7.9458  -24.7558  -53.6272 H         1 UNK         0.3000 
    226 H226       -9.6137  -24.7754  -56.1184 H         1 UNK         0.0600 
    227 H227       -8.9145  -27.0421  -55.3812 H         1 UNK         0.0600 
    228 H228       -8.0731  -26.5873  -56.8553 H         1 UNK         0.0600 
    229 H229       -7.2303  -26.5276  -55.3105 H         1 UNK         0.0600 
    230 H230       -6.3960  -24.0567  -54.6915 H         1 UNK         0.3000 
    231 H231       -5.2815  -23.0267  -57.1410 H         1 UNK         0.0600 
    232 H232       -3.9351  -24.1674  -55.3918 H         1 UNK         0.0600 
    233 H233       -4.2744  -22.8724  -54.2503 H         1 UNK         0.0600 
    234 H234       -3.3226  -22.5506  -55.6920 H         1 UNK         0.0600 
    235 H235       -7.4140  -21.5765  -54.9747 H         1 UNK         0.3000 
    236 H236       -8.3492  -19.6268  -54.7419 H         1 UNK         0.0600 
    237 H237       -8.0598  -17.7706  -56.3232 H         1 UNK         0.0600 
    238 H238       -6.6270  -18.5129  -57.0131 H         1 UNK         0.0600 
    239 H239       -8.1994  -19.2889  -57.1960 H         1 UNK         0.0600 
    240 H240       -4.8607  -19.1131  -55.2026 H         1 UNK         0.3000 
    241 H241       -3.2529  -18.1561  -54.0846 H         1 UNK         0.0600 
    242 H242       -5.5631  -14.8104  -53.3850 H         1 UNK         0.3800 
    243 H243       -6.3059  -16.4025  -53.3161 H         1 UNK         0.3800 
    244 H244       -4.9505  -18.3428  -51.5528 H         1 UNK         0.0800 
    245 H245       -4.0754  -19.6769  -52.2479 H         1 UNK         0.0800 
    246 H246       -1.2116  -18.8575  -53.0325 H         1 UNK         0.0800 
    247 H247       -1.6518  -20.1904  -51.9872 H         1 UNK         0.0800 
@<TRIPOS>BOND
     1    1    2 1    
     2    1  127 1    
     3    1  128 1    
     4    1  129 1    
     5    2    3 2    
     6    2    4 am   BACKBONE|DICT|INTERRES
     7    4    5 1    
     8    4  130 1    
     9    5    6 1    
    10    5   65 1    
    11    5  131 1    
    12    6    7 1    
    13    6  132 1    
    14    6  133 1    
    15    7    8 1    
    16    8    9 1    
    17    8  134 1    
    18    8  135 1    
    19    9   10 ar   
    20    9   14 ar   
    21   10   11 ar   
    22   10  136 1    
    23   11   12 ar   
    24   11  126 1    
    25   12   13 ar   
    26   12  137 1    
    27   13   14 ar   
    28   13   15 1    
    29   14  138 1    
    30   15   16 1    
    31   15  139 1    
    32   15  140 1    
    33   16   17 1    
    34   17   18 1    
    35   17  141 1    
    36   17  142 1    
    37   18   19 1    
    38   18   67 1    
    39   18  143 1    
    40   19   20 am   BACKBONE|DICT|INTERRES
    41   19  144 1    
    42   20   21 2    
    43   20   22 1    
    44   22   23 1    
    45   22   24 1    
    46   22  145 1    
    47   23  146 1    
    48   23  147 1    
    49   23  148 1    
    50   24   25 am   BACKBONE|DICT|INTERRES
    51   24  149 1    
    52   25   26 2    
    53   25   27 1    
    54   27   28 1    
    55   27   29 1    
    56   27  150 1    
    57   28  151 1    
    58   28  152 1    
    59   28  153 1    
    60   29   30 am   BACKBONE|DICT|INTERRES
    61   29  154 1    
    62   30   31 2    
    63   30   32 1    
    64   32   33 1    
    65   32   34 1    
    66   32  155 1    
    67   33  156 1    
    68   33  157 1    
    69   33  158 1    
    70   34   35 am   BACKBONE|DICT|INTERRES
    71   34  159 1    
    72   35   36 2    
    73   35   37 1    
    74   37   38 1    
    75   37   39 1    
    76   37  160 1    
    77   38  161 1    
    78   38  162 1    
    79   38  163 1    
    80   39   40 am   BACKBONE|DICT|INTERRES
    81   39  164 1    
    82   40   41 2    
    83   40   42 1    
    84   42   43 1    
    85   42   44 1    
    86   42  165 1    
    87   43  166 1    
    88   43  167 1    
    89   43  168 1    
    90   44   45 am   BACKBONE|DICT|INTERRES
    91   44  169 1    
    92   45   46 2    
    93   45   47 1    
    94   47   48 1    
    95   47   49 1    
    96   47  170 1    
    97   48  171 1    
    98   48  172 1    
    99   48  173 1    
   100   49   50 am   BACKBONE|DICT|INTERRES
   101   49  174 1    
   102   50   51 2    
   103   50   52 1    
   104   52   53 1    
   105   52   54 1    
   106   52  175 1    
   107   53  176 1    
   108   53  177 1    
   109   53  178 1    
   110   54   55 am   BACKBONE|DICT|INTERRES
   111   54  179 1    
   112   55   56 2    
   113   55   57 1    
   114   57   58 1    
   115   57   59 1    
   116   57  180 1    
   117   58  181 1    
   118   58  182 1    
   119   58  183 1    
   120   59   60 am   BACKBONE|DICT|INTERRES
   121   59  184 1    
   122   60   61 2    
   123   60   62 1    
   124   62   63 1    
   125   62   64 1    
   126   62  185 1    
   127   63  186 1    
   128   63  187 1    
   129   63  188 1    
   130   64   65 am   BACKBONE|DICT|INTERRES
   131   64  189 1    
   132   65   66 2    
   133   67   68 2    
   134   67   69 am   BACKBONE|DICT|INTERRES
   135   69   70 1    
   136   69  190 1    
   137   70   71 1    
   138   70   72 1    
   139   70  191 1    
   140   71  192 1    
   141   71  193 1    
   142   71  194 1    
   143   72   73 2    
   144   72   74 am   BACKBONE|DICT|INTERRES
   145   74   75 1    
   146   74  195 1    
   147   75   76 1    
   148   75   77 1    
   149   75  196 1    
   150   76  197 1    
   151   76  198 1    
   152   76  199 1    
   153   77   78 2    
   154   77   79 am   BACKBONE|DICT|INTERRES
   155   79   80 1    
   156   79  200 1    
   157   80   81 1    
   158   80   82 1    
   159   80  201 1    
   160   81  202 1    
   161   81  203 1    
   162   81  204 1    
   163   82   83 2    
   164   82   84 am   BACKBONE|DICT|INTERRES
   165   84   85 1    
   166   84  205 1    
   167   85   86 1    
   168   85   87 1    
   169   85  206 1    
   170   86  207 1    
   171   86  208 1    
   172   86  209 1    
   173   87   88 2    
   174   87   89 am   BACKBONE|DICT|INTERRES
   175   89   90 1    
   176   89  210 1    
   177   90   91 1    
   178   90   92 1    
   179   90  211 1    
   180   91  212 1    
   181   91  213 1    
   182   91  214 1    
   183   92   93 2    
   184   92   94 am   BACKBONE|DICT|INTERRES
   185   94   95 1    
   186   94  215 1    
   187   95   96 1    
   188   95   97 1    
   189   95  216 1    
   190   96  217 1    
   191   96  218 1    
   192   96  219 1    
   193   97   98 2    
   194   97   99 am   BACKBONE|DICT|INTERRES
   195   99  100 1    
   196   99  220 1    
   197  100  101 1    
   198  100  102 1    
   199  100  221 1    
   200  101  222 1    
   201  101  223 1    
   202  101  224 1    
   203  102  103 2    
   204  102  104 am   BACKBONE|DICT|INTERRES
   205  104  105 1    
   206  104  225 1    
   207  105  106 1    
   208  105  107 1    
   209  105  226 1    
   210  106  227 1    
   211  106  228 1    
   212  106  229 1    
   213  107  108 2    
   214  107  109 am   BACKBONE|DICT|INTERRES
   215  109  110 1    
   216  109  230 1    
   217  110  111 1    
   218  110  112 1    
   219  110  231 1    
   220  111  232 1    
   221  111  233 1    
   222  111  234 1    
   223  112  113 2    
   224  112  114 am   BACKBONE|DICT|INTERRES
   225  114  115 1    
   226  114  235 1    
   227  115  116 1    
   228  115  117 1    
   229  115  236 1    
   230  116  237 1    
   231  116  238 1    
   232  116  239 1    
   233  117  118 2    
   234  117  119 am   BACKBONE|DICT|INTERRES
   235  119  120 1    
   236  119  240 1    
   237  120  121 1    
   238  120  124 1    
   239  120  241 1    
   240  121  122 am   BACKBONE|DICT|INTERRES
   241  121  123 2    
   242  122  242 1    
   243  122  243 1    
   244  124  125 1    
   245  124  244 1    
   246  124  245 1    
   247  125  126 1    
   248  126  246 1    
   249  126  247 1    
@<TRIPOS>SUBSTRUCTURE
     1 UNK         1 GROUP             0       ****    0 ROOT    
