@<TRIPOS>MOLECULE
3R540
247   249    1
SMALL
USER_CHARGES


@<TRIPOS>ATOM
      1 CA         -4.5917  -16.2270  -48.5810 C.3       0 UNK        -0.1800 
      2 C          -3.2324  -16.3866  -47.9148 C.2       0 UNK         0.5000 
      3 O          -2.8069  -17.5141  -47.6804 O.2       0 UNK        -0.5000 
      4 N          -2.5831  -15.2581  -47.5871 N.am      1 UNK        -0.5000 
      5 CA         -1.2434  -15.0935  -46.9886 C.3       1 UNK         0.1400 
      6 C6         -0.0665  -15.2274  -47.9975 C.3       23 UNK        -0.0398 
      7 S7          0.1871  -16.8794  -48.7200 S.3       23 UNK        -0.2404 
      8 C8          1.7751  -16.6445  -49.5698 C.3       23 UNK        -0.0205 
      9 C9          2.1166  -17.8631  -50.4111 C.ar      23 UNK        -0.0193 
     10 C10         1.9172  -17.8515  -51.7938 C.ar      23 UNK        -0.1150 
     11 C11         2.2201  -18.9788  -52.5626 C.ar      23 UNK        -0.0193 
     12 C12         2.7125  -20.1270  -51.9341 C.ar      23 UNK        -0.1150 
     13 C13         2.8910  -20.1644  -50.5484 C.ar      23 UNK        -0.0193 
     14 C14         2.6172  -19.0143  -49.8000 C.ar      23 UNK        -0.1150 
     15 C15         3.3792  -21.4571  -49.8935 C.3       23 UNK        -0.0205 
     16 S16         2.7201  -21.7662  -48.2160 S.3       23 UNK        -0.2404 
     17 C17         0.9141  -21.6417  -48.4735 C.3       23 UNK        -0.0398 
     18 CA          0.1156  -22.7685  -47.7764 C.3       11 UNK         0.1400 
     19 N           0.4473  -22.8903  -46.3527 N.am      11 UNK        -0.5000 
     20 C           0.1945  -23.9714  -45.6030 C.2       10 UNK         0.5000 
     21 O          -0.3653  -24.9791  -46.0319 O.2       10 UNK        -0.5000 
     22 CA          0.5940  -23.8995  -44.1159 C.3       10 UNK         0.1400 
     23 CB          2.0581  -24.3250  -43.9322 C.3       10 UNK        -0.1800 
     24 N           0.4014  -22.5698  -43.5343 N.am      10 UNK        -0.5000 
     25 C          -0.7833  -21.9536  -43.4218 C.2       9 UNK         0.5000 
     26 O          -1.8504  -22.4733  -43.7426 O.2       9 UNK        -0.5000 
     27 CA         -0.7785  -20.4949  -42.9298 C.3       9 UNK         0.1400 
     28 CB         -1.0662  -20.4213  -41.4242 C.3       9 UNK        -0.1800 
     29 N           0.4592  -19.7678  -43.2203 N.am      9 UNK        -0.5000 
     30 C           0.9483  -19.5249  -44.4440 C.2       8 UNK         0.5000 
     31 O           0.4315  -19.9569  -45.4758 O.2       8 UNK        -0.5000 
     32 CA          2.2260  -18.6669  -44.5029 C.3       8 UNK         0.1400 
     33 CB          2.6224  -18.2854  -45.9359 C.3       8 UNK        -0.1800 
     34 N           2.0810  -17.4447  -43.7135 N.am      8 UNK        -0.5000 
     35 C           2.3917  -17.3219  -42.4175 C.2       7 UNK         0.5000 
     36 O           2.7597  -18.2747  -41.7279 O.2       7 UNK        -0.5000 
     37 CA          2.2421  -15.9238  -41.7798 C.3       7 UNK         0.1400 
     38 CB          3.1874  -15.7162  -40.5786 C.3       7 UNK        -0.1800 
     39 N           2.3684  -14.8104  -42.7260 N.am      7 UNK        -0.5000 
     40 C           3.4248  -14.4845  -43.4865 C.2       6 UNK         0.5000 
     41 O           4.4723  -15.1306  -43.5240 O.2       6 UNK        -0.5000 
     42 CA          3.3051  -13.2014  -44.3267 C.3       6 UNK         0.1400 
     43 CB          2.5656  -13.4692  -45.6458 C.3       6 UNK        -0.1800 
     44 N           2.6110  -12.1434  -43.5906 N.am      6 UNK        -0.5000 
     45 C           3.0879  -10.9092  -43.3791 C.2       5 UNK         0.5000 
     46 O           4.1554  -10.4987  -43.8369 O.2       5 UNK        -0.5000 
     47 CA          2.2367   -9.9647  -42.5021 C.3       5 UNK         0.1400 
     48 CB          1.3663   -9.0555  -43.3832 C.3       5 UNK        -0.1800 
     49 N           1.3725  -10.6673  -41.5514 N.am      5 UNK        -0.5000 
     50 C           1.8031  -11.4200  -40.5303 C.2       4 UNK         0.5000 
     51 O           2.9875  -11.5092  -40.2054 O.2       4 UNK        -0.5000 
     52 CA          0.7479  -12.2310  -39.7480 C.3       4 UNK         0.1400 
     53 CB          0.4912  -11.5857  -38.3771 C.3       4 UNK        -0.1800 
     54 N          -0.5456  -12.4467  -40.4127 N.am      4 UNK        -0.5000 
     55 C          -0.7498  -13.0007  -41.6152 C.2       3 UNK         0.5000 
     56 O           0.1452  -13.2356  -42.4300 O.2       3 UNK        -0.5000 
     57 CA         -2.2095  -13.3149  -41.9840 C.3       3 UNK         0.1400 
     58 CB         -2.8459  -12.1147  -42.7009 C.3       3 UNK        -0.1800 
     59 N          -2.3113  -14.4897  -42.8501 N.am      3 UNK        -0.5000 
     60 C          -1.9502  -15.7393  -42.5213 C.2       2 UNK         0.5000 
     61 O          -1.5454  -16.0665  -41.4054 O.2       2 UNK        -0.5000 
     62 CA         -2.0703  -16.8103  -43.6219 C.3       2 UNK         0.1400 
     63 CB         -3.3453  -17.6418  -43.4181 C.3       2 UNK        -0.1800 
     64 N          -2.0864  -16.2404  -44.9699 N.am      2 UNK        -0.5000 
     65 C          -1.0062  -15.7978  -45.6280 C.2       1 UNK         0.5000 
     66 O           0.1324  -15.8630  -45.1617 O.2       1 UNK        -0.5000 
     67 C          -1.3998  -22.5605  -47.9828 C.2       11 UNK         0.5000 
     68 O          -1.9398  -22.9711  -49.0129 O.2       11 UNK        -0.5000 
     69 N          -2.0576  -21.9326  -46.9972 N.am      12 UNK        -0.5000 
     70 CA         -3.5068  -21.7623  -46.9418 C.3       12 UNK         0.1400 
     71 CB         -3.8588  -20.6110  -45.9910 C.3       12 UNK        -0.1800 
     72 C          -4.2068  -23.0630  -46.5156 C.2       12 UNK         0.5000 
     73 O          -5.2164  -23.4257  -47.1158 O.2       12 UNK        -0.5000 
     74 N          -3.6388  -23.7698  -45.5265 N.am      13 UNK        -0.5000 
     75 CA         -4.0998  -25.0792  -45.0518 C.3       13 UNK         0.1400 
     76 CB         -3.3119  -25.4754  -43.7947 C.3       13 UNK        -0.1800 
     77 C          -3.9963  -26.1792  -46.1260 C.2       13 UNK         0.5000 
     78 O          -4.8539  -27.0605  -46.1818 O.2       13 UNK        -0.5000 
     79 N          -2.9814  -26.0719  -46.9944 N.am      14 UNK        -0.5000 
     80 CA         -2.8009  -26.8834  -48.2003 C.3       14 UNK         0.1400 
     81 CB         -1.3430  -26.7437  -48.6692 C.3       14 UNK        -0.1800 
     82 C          -3.7720  -26.5192  -49.3462 C.2       14 UNK         0.5000 
     83 O          -3.7187  -27.1572  -50.3970 O.2       14 UNK        -0.5000 
     84 N          -4.6050  -25.4856  -49.1503 N.am      15 UNK        -0.5000 
     85 CA         -5.6109  -24.9057  -50.0487 C.3       15 UNK         0.1400 
     86 CB         -6.6193  -25.9623  -50.5389 C.3       15 UNK        -0.1800 
     87 C          -5.0356  -24.0925  -51.2221 C.2       15 UNK         0.5000 
     88 O          -5.7623  -23.2767  -51.7861 O.2       15 UNK        -0.5000 
     89 N          -3.7582  -24.2996  -51.5616 N.am      16 UNK        -0.5000 
     90 CA         -3.0667  -23.7136  -52.7073 C.3       16 UNK         0.1400 
     91 CB         -1.6328  -24.2624  -52.7589 C.3       16 UNK        -0.1800 
     92 C          -3.0696  -22.1764  -52.7140 C.2       16 UNK         0.5000 
     93 O          -3.4605  -21.5770  -53.7174 O.2       16 UNK        -0.5000 
     94 N          -2.6511  -21.5664  -51.5964 N.am      17 UNK        -0.5000 
     95 CA         -2.6176  -20.1089  -51.4557 C.3       17 UNK         0.1400 
     96 CB         -1.6248  -19.7024  -50.3617 C.3       17 UNK        -0.1800 
     97 C          -4.0079  -19.5152  -51.1763 C.2       17 UNK         0.5000 
     98 O          -4.2697  -18.3858  -51.5870 O.2       17 UNK        -0.5000 
     99 N          -4.8880  -20.2923  -50.5273 N.am      18 UNK        -0.5000 
    100 CA        -6.2723  -19.9101  -50.2356 C.3       18 UNK         0.1400 
    101 CB        -6.8808  -20.8997  -49.2311 C.3       18 UNK        -0.1800 
    102 C         -7.1326  -19.8150  -51.5100 C.2       18 UNK         0.5000 
    103 O         -7.9343  -18.8895  -51.6383 O.2       18 UNK        -0.5000 
    104 N         -6.9129  -20.7464  -52.4479 N.am      19 UNK        -0.5000 
    105 CA        -7.4942  -20.7457  -53.7918 C.3       19 UNK         0.1400 
    106 CB        -7.3874  -22.1657  -54.3712 C.3       19 UNK        -0.1800 
    107 C         -6.8221  -19.7342  -54.7434 C.2       19 UNK         0.5000 
    108 O         -7.3488  -19.4962  -55.8310 O.2       19 UNK        -0.5000 
    109 N         -5.6715  -19.1807  -54.3298 N.am      20 UNK        -0.5000 
    110 CA        -4.7893  -18.2767  -55.0734 C.3       20 UNK         0.1400 
    111 CB        -5.4796  -16.9221  -55.3353 C.3       20 UNK        -0.1800 
    112 C         -4.2138  -18.9299  -56.3476 C.2       20 UNK         0.5000 
    113 O         -4.0860  -18.2707  -57.3813 O.2       20 UNK        -0.5000 
    114 N         -3.8852  -20.2235  -56.2425 N.am      21 UNK        -0.5000 
    115 CA        -3.2385  -21.0152  -57.2799 C.3       21 UNK         0.1400 
    116 CB        -3.7907  -22.4540  -57.2253 C.3       21 UNK        -0.1800 
    117 C         -1.7191  -20.9256  -57.0642 C.2       21 UNK         0.5000 
    118 O         -1.0922  -20.0097  -57.5958 O.2       21 UNK        -0.5000 
    119 N         -1.1805  -21.8659  -56.2769 N.am      22 UNK        -0.5000 
    120 CA         0.1812  -21.9835  -55.7141 C.3       22 UNK         0.1400 
    121 C          1.4232  -21.8426  -56.6499 C.2       22 UNK         0.5000 
    122 N          1.2880  -21.4281  -57.8995 N.am      22 UNK        -0.7600 
    123 O          2.5354  -22.1614  -56.2382 O.2       22 UNK        -0.5000 
    124 C124        0.3404  -21.2037  -54.3801 C.3       23 UNK        -0.0398 
    125 S125        0.3080  -19.3829  -54.5263 S.3       23 UNK        -0.2404 
    126 C126        2.0157  -18.9487  -54.0702 C.3       23 UNK        -0.0205 
    127 H127       -4.5351  -16.5400  -49.6229 H         1 UNK         0.0600 
    128 H128       -4.9396  -15.1943  -48.5538 H         1 UNK         0.0600 
    129 H129       -5.3328  -16.8483  -48.0784 H         1 UNK         0.0600 
    130 H130       -3.0407  -14.3836  -47.8039 H         1 UNK         0.3000 
    131 H131       -1.2378  -14.0405  -46.7027 H         1 UNK         0.0600 
    132 H132       -0.2245  -14.5308  -48.8216 H         1 UNK         0.0800 
    133 H133        0.8673  -14.9141  -47.5299 H         1 UNK         0.0800 
    134 H134        2.5606  -16.4698  -48.8328 H         1 UNK         0.0800 
    135 H135        1.7264  -15.7515  -50.1948 H         1 UNK         0.0800 
    136 H136        1.5233  -16.9663  -52.2732 H         1 UNK         0.1150 
    137 H137        2.9536  -20.9997  -52.5235 H         1 UNK         0.1150 
    138 H138        2.7648  -19.0165  -48.7322 H         1 UNK         0.1150 
    139 H139        4.4680  -21.4291  -49.8404 H         1 UNK         0.0800 
    140 H140        3.1219  -22.3133  -50.5190 H         1 UNK         0.0800 
    141 H141        0.7108  -21.6641  -49.5449 H         1 UNK         0.0800 
    142 H142        0.5934  -20.6593  -48.1201 H         1 UNK         0.0800 
    143 H143        0.3800  -23.7098  -48.2631 H         1 UNK         0.0600 
    144 H144        0.8595  -22.0710  -45.9242 H         1 UNK         0.3000 
    145 H145       -0.0372  -24.6007  -43.5669 H         1 UNK         0.0600 
    146 H146        2.2274  -25.3237  -44.3371 H         1 UNK         0.0600 
    147 H147        2.3320  -24.3526  -42.8774 H         1 UNK         0.0600 
    148 H148        2.7426  -23.6444  -44.4404 H         1 UNK         0.0600 
    149 H149        1.2305  -22.0704  -43.2487 H         1 UNK         0.3000 
    150 H150       -1.5867  -19.9848  -43.4558 H         1 UNK         0.0600 
    151 H151       -0.2709  -20.8854  -40.8396 H         1 UNK         0.0600 
    152 H152       -1.9977  -20.9334  -41.1787 H         1 UNK         0.0600 
    153 H153       -1.1685  -19.3873  -41.0931 H         1 UNK         0.0600 
    154 H154        0.9714  -19.3989  -42.4286 H         1 UNK         0.3000 
    155 H155        3.0374  -19.2715  -44.0927 H         1 UNK         0.0600 
    156 H156        2.8296  -19.1805  -46.5208 H         1 UNK         0.0600 
    157 H157        3.5225  -17.6708  -45.9499 H         1 UNK         0.0600 
    158 H158        1.8290  -17.7318  -46.4371 H         1 UNK         0.0600 
    159 H159        1.6632  -16.6539  -44.1962 H         1 UNK         0.3000 
    160 H160        1.2201  -15.8765  -41.4024 H         1 UNK         0.0600 
    161 H161        4.2332  -15.8328  -40.8642 H         1 UNK         0.0600 
    162 H162        2.9817  -16.4382  -39.7875 H         1 UNK         0.0600 
    163 H163        3.0683  -14.7222  -40.1480 H         1 UNK         0.0600 
    164 H164        1.5351  -14.2277  -42.7854 H         1 UNK         0.3000 
    165 H165        4.3240  -12.8923  -44.5689 H         1 UNK         0.0600 
    166 H166        2.9784  -14.3363  -46.1633 H         1 UNK         0.0600 
    167 H167        1.5058  -13.6551  -45.4749 H         1 UNK         0.0600 
    168 H168        2.6471  -12.6160  -46.3192 H         1 UNK         0.0600 
    169 H169        1.7272  -12.3973  -43.1599 H         1 UNK         0.3000 
    170 H170        2.9239   -9.3358  -41.9323 H         1 UNK         0.0600 
    171 H171        0.8173   -8.3306  -42.7819 H         1 UNK         0.0600 
    172 H172        0.6424   -9.6306  -43.9621 H         1 UNK         0.0600 
    173 H173        1.9788   -8.4929  -44.0891 H         1 UNK         0.0600 
    174 H174        0.3826  -10.6588  -41.7470 H         1 UNK         0.3000 
    175 H175        1.1807  -13.2186  -39.5787 H         1 UNK         0.0600 
    176 H176        1.4233  -11.4405  -37.8291 H         1 UNK         0.0600 
    177 H177        0.0140  -10.6100  -38.4771 H         1 UNK         0.0600 
    178 H178       -0.1505  -12.2128  -37.7580 H         1 UNK         0.0600 
    179 H179       -1.3557  -12.2528  -39.8417 H         1 UNK         0.3000 
    180 H180       -2.7688  -13.5208  -41.0691 H         1 UNK         0.0600 
    181 H181       -2.3251  -11.8787  -43.6301 H         1 UNK         0.0600 
    182 H182       -2.8181  -11.2227  -42.0737 H         1 UNK         0.0600 
    183 H183       -3.8916  -12.3074  -42.9415 H         1 UNK         0.0600 
    184 H184       -2.6080  -14.3216  -43.7987 H         1 UNK         0.3000 
    185 H185       -1.2074  -17.4719  -43.5330 H         1 UNK         0.0600 
    186 H186       -3.3414  -18.1316  -42.4435 H         1 UNK         0.0600 
    187 H187       -4.2426  -17.0243  -43.4729 H         1 UNK         0.0600 
    188 H188       -3.4307  -18.4217  -44.1729 H         1 UNK         0.0600 
    189 H189       -2.9809  -16.1829  -45.4338 H         1 UNK         0.3000 
    190 H190       -1.5294  -21.6105  -46.1982 H         1 UNK         0.3000 
    191 H191       -3.8617  -21.4953  -47.9392 H         1 UNK         0.0600 
    192 H192       -3.3514  -19.6931  -46.2855 H         1 UNK         0.0600 
    193 H193       -4.9305  -20.4096  -46.0038 H         1 UNK         0.0600 
    194 H194       -3.5792  -20.8320  -44.9611 H         1 UNK         0.0600 
    195 H195       -2.8522  -23.3630  -45.0261 H         1 UNK         0.3000 
    196 H196       -5.1524  -24.9814  -44.7787 H         1 UNK         0.0600 
    197 H197       -3.6648  -26.4274  -43.3963 H         1 UNK         0.0600 
    198 H198       -3.4250  -24.7308  -43.0065 H         1 UNK         0.0600 
    199 H199       -2.2478  -25.5819  -44.0053 H         1 UNK         0.0600 
    200 H200       -2.2716  -25.3701  -46.8167 H         1 UNK         0.3000 
    201 H201       -2.9799  -27.9293  -47.9436 H         1 UNK         0.0600 
    202 H202       -1.1453  -27.3703  -49.5397 H         1 UNK         0.0600 
    203 H203       -0.6468  -27.0500  -47.8883 H         1 UNK         0.0600 
    204 H204       -1.1071  -25.7152  -48.9441 H         1 UNK         0.0600 
    205 H205       -4.5444  -25.0075  -48.2588 H         1 UNK         0.3000 
    206 H206       -6.1694  -24.1957  -49.4391 H         1 UNK         0.0600 
    207 H207       -7.0500  -26.5144  -49.7035 H         1 UNK         0.0600 
    208 H208       -7.4433  -25.4902  -51.0754 H         1 UNK         0.0600 
    209 H209       -6.1625  -26.6809  -51.2195 H         1 UNK         0.0600 
    210 H210       -3.2505  -24.9972  -51.0373 H         1 UNK         0.3000 
    211 H211       -3.5908  -24.0456  -53.6057 H         1 UNK         0.0600 
    212 H212       -1.6306  -25.3507  -52.8238 H         1 UNK         0.0600 
    213 H213       -1.1010  -23.8882  -53.6324 H         1 UNK         0.0600 
    214 H214       -1.0589  -23.9804  -51.8749 H         1 UNK         0.0600 
    215 H215       -2.3695  -22.1245  -50.7955 H         1 UNK         0.3000 
    216 H216       -2.2602  -19.6769  -52.3936 H         1 UNK         0.0600 
    217 H217       -1.9139  -20.0838  -49.3832 H         1 UNK         0.0600 
    218 H218       -1.5770  -18.6165  -50.2801 H         1 UNK         0.0600 
    219 H219       -0.6182  -20.0492  -50.5916 H         1 UNK         0.0600 
    220 H220       -4.6067  -21.2274  -50.2751 H         1 UNK         0.3000 
    221 H221       -6.2573  -18.9223  -49.7700 H         1 UNK         0.0600 
    222 H222       -6.9186  -21.9119  -49.6326 H         1 UNK         0.0600 
    223 H223       -6.3090  -20.9260  -48.3037 H         1 UNK         0.0600 
    224 H224       -7.9010  -20.6131  -48.9734 H         1 UNK         0.0600 
    225 H225       -6.2953  -21.5256  -52.2317 H         1 UNK         0.3000 
    226 H226       -8.5509  -20.4811  -53.7179 H         1 UNK         0.0600 
    227 H227       -7.8917  -22.8915  -53.7330 H         1 UNK         0.0600 
    228 H228       -7.8486  -22.2244  -55.3578 H         1 UNK         0.0600 
    229 H229       -6.3469  -22.4777  -54.4754 H         1 UNK         0.0600 
    230 H230       -5.3398  -19.4437  -53.4125 H         1 UNK         0.3000 
    231 H231       -3.9345  -18.0870  -54.4227 H         1 UNK         0.0600 
    232 H232       -6.3129  -17.0175  -56.0319 H         1 UNK         0.0600 
    233 H233       -4.7789  -16.2032  -55.7613 H         1 UNK         0.0600 
    234 H234       -5.8624  -16.4913  -54.4100 H         1 UNK         0.0600 
    235 H235       -3.9528  -20.6651  -55.3289 H         1 UNK         0.3000 
    236 H236       -3.4615  -20.6064  -58.2676 H         1 UNK         0.0600 
    237 H237       -3.7042  -22.8973  -56.2327 H         1 UNK         0.0600 
    238 H238       -4.8470  -22.4697  -57.4946 H         1 UNK         0.0600 
    239 H239       -3.2692  -23.1024  -57.9306 H         1 UNK         0.0600 
    240 H240       -1.8206  -22.5726  -55.9476 H         1 UNK         0.3000 
    241 H241        0.2257  -23.0373  -55.4376 H         1 UNK         0.0600 
    242 H242        0.4004  -21.0220  -58.1766 H         1 UNK         0.3800 
    243 H243        2.0940  -21.3540  -58.4994 H         1 UNK         0.3800 
    244 H244       -0.4600  -21.4809  -53.6968 H         1 UNK         0.0800 
    245 H245        1.2536  -21.5227  -53.8812 H         1 UNK         0.0800 
    246 H246        2.7168  -19.6193  -54.5697 H         1 UNK         0.0800 
    247 H247        2.2342  -17.9487  -54.4476 H         1 UNK         0.0800 
@<TRIPOS>BOND
     1    1    2 1    
     2    1  127 1    
     3    1  128 1    
     4    1  129 1    
     5    2    3 2    
     6    2    4 am   BACKBONE|DICT|INTERRES
     7    4    5 1    
     8    4  130 1    
     9    5    6 1    
    10    5   65 1    
    11    5  131 1    
    12    6    7 1    
    13    6  132 1    
    14    6  133 1    
    15    7    8 1    
    16    8    9 1    
    17    8  134 1    
    18    8  135 1    
    19    9   10 ar   
    20    9   14 ar   
    21   10   11 ar   
    22   10  136 1    
    23   11   12 ar   
    24   11  126 1    
    25   12   13 ar   
    26   12  137 1    
    27   13   14 ar   
    28   13   15 1    
    29   14  138 1    
    30   15   16 1    
    31   15  139 1    
    32   15  140 1    
    33   16   17 1    
    34   17   18 1    
    35   17  141 1    
    36   17  142 1    
    37   18   19 1    
    38   18   67 1    
    39   18  143 1    
    40   19   20 am   BACKBONE|DICT|INTERRES
    41   19  144 1    
    42   20   21 2    
    43   20   22 1    
    44   22   23 1    
    45   22   24 1    
    46   22  145 1    
    47   23  146 1    
    48   23  147 1    
    49   23  148 1    
    50   24   25 am   BACKBONE|DICT|INTERRES
    51   24  149 1    
    52   25   26 2    
    53   25   27 1    
    54   27   28 1    
    55   27   29 1    
    56   27  150 1    
    57   28  151 1    
    58   28  152 1    
    59   28  153 1    
    60   29   30 am   BACKBONE|DICT|INTERRES
    61   29  154 1    
    62   30   31 2    
    63   30   32 1    
    64   32   33 1    
    65   32   34 1    
    66   32  155 1    
    67   33  156 1    
    68   33  157 1    
    69   33  158 1    
    70   34   35 am   BACKBONE|DICT|INTERRES
    71   34  159 1    
    72   35   36 2    
    73   35   37 1    
    74   37   38 1    
    75   37   39 1    
    76   37  160 1    
    77   38  161 1    
    78   38  162 1    
    79   38  163 1    
    80   39   40 am   BACKBONE|DICT|INTERRES
    81   39  164 1    
    82   40   41 2    
    83   40   42 1    
    84   42   43 1    
    85   42   44 1    
    86   42  165 1    
    87   43  166 1    
    88   43  167 1    
    89   43  168 1    
    90   44   45 am   BACKBONE|DICT|INTERRES
    91   44  169 1    
    92   45   46 2    
    93   45   47 1    
    94   47   48 1    
    95   47   49 1    
    96   47  170 1    
    97   48  171 1    
    98   48  172 1    
    99   48  173 1    
   100   49   50 am   BACKBONE|DICT|INTERRES
   101   49  174 1    
   102   50   51 2    
   103   50   52 1    
   104   52   53 1    
   105   52   54 1    
   106   52  175 1    
   107   53  176 1    
   108   53  177 1    
   109   53  178 1    
   110   54   55 am   BACKBONE|DICT|INTERRES
   111   54  179 1    
   112   55   56 2    
   113   55   57 1    
   114   57   58 1    
   115   57   59 1    
   116   57  180 1    
   117   58  181 1    
   118   58  182 1    
   119   58  183 1    
   120   59   60 am   BACKBONE|DICT|INTERRES
   121   59  184 1    
   122   60   61 2    
   123   60   62 1    
   124   62   63 1    
   125   62   64 1    
   126   62  185 1    
   127   63  186 1    
   128   63  187 1    
   129   63  188 1    
   130   64   65 am   BACKBONE|DICT|INTERRES
   131   64  189 1    
   132   65   66 2    
   133   67   68 2    
   134   67   69 am   BACKBONE|DICT|INTERRES
   135   69   70 1    
   136   69  190 1    
   137   70   71 1    
   138   70   72 1    
   139   70  191 1    
   140   71  192 1    
   141   71  193 1    
   142   71  194 1    
   143   72   73 2    
   144   72   74 am   BACKBONE|DICT|INTERRES
   145   74   75 1    
   146   74  195 1    
   147   75   76 1    
   148   75   77 1    
   149   75  196 1    
   150   76  197 1    
   151   76  198 1    
   152   76  199 1    
   153   77   78 2    
   154   77   79 am   BACKBONE|DICT|INTERRES
   155   79   80 1    
   156   79  200 1    
   157   80   81 1    
   158   80   82 1    
   159   80  201 1    
   160   81  202 1    
   161   81  203 1    
   162   81  204 1    
   163   82   83 2    
   164   82   84 am   BACKBONE|DICT|INTERRES
   165   84   85 1    
   166   84  205 1    
   167   85   86 1    
   168   85   87 1    
   169   85  206 1    
   170   86  207 1    
   171   86  208 1    
   172   86  209 1    
   173   87   88 2    
   174   87   89 am   BACKBONE|DICT|INTERRES
   175   89   90 1    
   176   89  210 1    
   177   90   91 1    
   178   90   92 1    
   179   90  211 1    
   180   91  212 1    
   181   91  213 1    
   182   91  214 1    
   183   92   93 2    
   184   92   94 am   BACKBONE|DICT|INTERRES
   185   94   95 1    
   186   94  215 1    
   187   95   96 1    
   188   95   97 1    
   189   95  216 1    
   190   96  217 1    
   191   96  218 1    
   192   96  219 1    
   193   97   98 2    
   194   97   99 am   BACKBONE|DICT|INTERRES
   195   99  100 1    
   196   99  220 1    
   197  100  101 1    
   198  100  102 1    
   199  100  221 1    
   200  101  222 1    
   201  101  223 1    
   202  101  224 1    
   203  102  103 2    
   204  102  104 am   BACKBONE|DICT|INTERRES
   205  104  105 1    
   206  104  225 1    
   207  105  106 1    
   208  105  107 1    
   209  105  226 1    
   210  106  227 1    
   211  106  228 1    
   212  106  229 1    
   213  107  108 2    
   214  107  109 am   BACKBONE|DICT|INTERRES
   215  109  110 1    
   216  109  230 1    
   217  110  111 1    
   218  110  112 1    
   219  110  231 1    
   220  111  232 1    
   221  111  233 1    
   222  111  234 1    
   223  112  113 2    
   224  112  114 am   BACKBONE|DICT|INTERRES
   225  114  115 1    
   226  114  235 1    
   227  115  116 1    
   228  115  117 1    
   229  115  236 1    
   230  116  237 1    
   231  116  238 1    
   232  116  239 1    
   233  117  118 2    
   234  117  119 am   BACKBONE|DICT|INTERRES
   235  119  120 1    
   236  119  240 1    
   237  120  121 1    
   238  120  124 1    
   239  120  241 1    
   240  121  122 am   BACKBONE|DICT|INTERRES
   241  121  123 2    
   242  122  242 1    
   243  122  243 1    
   244  124  125 1    
   245  124  244 1    
   246  124  245 1    
   247  125  126 1    
   248  126  246 1    
   249  126  247 1    
@<TRIPOS>SUBSTRUCTURE
     1 UNK         1 GROUP             0       ****    0 ROOT    
