@<TRIPOS>MOLECULE
3R540
247   249    1
SMALL
USER_CHARGES


@<TRIPOS>ATOM
      1 CA         -0.7502   -8.5474  -49.5014 C.3       0 UNK        -0.1800 
      2 C          -0.1082   -9.9268  -49.5062 C.2       0 UNK         0.5000 
      3 O           1.0887  -10.0457  -49.7684 O.2       0 UNK        -0.5000 
      4 N          -0.8911  -10.9698  -49.1977 N.am      1 UNK        -0.5000 
      5 CA         -0.4652  -12.3773  -49.1682 C.3       1 UNK         0.1400 
      6 C6         -1.6615  -13.3439  -49.0044 C.3       23 UNK        -0.0398 
      7 S7         -2.6531  -13.0743  -47.4874 S.3       23 UNK        -0.2404 
      8 C8         -2.0563  -14.3973  -46.3824 C.3       23 UNK        -0.0205 
      9 C9         -2.3653  -15.7798  -46.9338 C.ar      23 UNK        -0.0193 
     10 C10        -3.6775  -16.2569  -46.9439 C.ar      23 UNK        -0.1150 
     11 C11        -3.9707  -17.5022  -47.5041 C.ar      23 UNK        -0.0193 
     12 C12        -2.9370  -18.2813  -48.0316 C.ar      23 UNK        -0.1150 
     13 C13        -1.6139  -17.8242  -48.0120 C.ar      23 UNK        -0.0193 
     14 C14        -1.3421  -16.5705  -47.4616 C.ar      23 UNK        -0.1150 
     15 C15        -0.4593  -18.6211  -48.6168 C.3       23 UNK        -0.0205 
     16 S16        -0.7077  -20.4273  -48.6716 S.3       23 UNK        -0.2404 
     17 C17        -0.8449  -20.8022  -46.8982 C.3       23 UNK        -0.0398 
     18 CA         -0.5611  -22.2847  -46.5633 C.3       11 UNK         0.1400 
     19 N          -0.1155  -22.4246  -45.1750 N.am      11 UNK        -0.5000 
     20 C           0.3008  -23.5589  -44.5975 C.2       10 UNK         0.5000 
     21 O           0.4328  -24.6251  -45.1948 O.2       10 UNK        -0.5000 
     22 CA          0.5474  -23.5009  -43.0807 C.3       10 UNK         0.1400 
     23 CB          1.9646  -22.9962  -42.7737 C.3       10 UNK        -0.1800 
     24 N          -0.4443  -22.6570  -42.4096 N.am      10 UNK        -0.5000 
     25 C          -1.7325  -22.9972  -42.2547 C.2       9 UNK         0.5000 
     26 O          -2.1953  -24.0814  -42.6090 O.2       9 UNK        -0.5000 
     27 CA         -2.6677  -21.9344  -41.6465 C.3       9 UNK         0.1400 
     28 CB         -2.5766  -21.9468  -40.1135 C.3       9 UNK        -0.1800 
     29 N          -2.3867  -20.5843  -42.1391 N.am      9 UNK        -0.5000 
     30 C          -2.5741  -20.1818  -43.4048 C.2       8 UNK         0.5000 
     31 O          -3.0617  -20.8981  -44.2774 O.2       8 UNK        -0.5000 
     32 CA         -2.0830  -18.7653  -43.7715 C.3       8 UNK         0.1400 
     33 CB         -3.2117  -17.7383  -43.6070 C.3       8 UNK        -0.1800 
     34 N          -0.9153  -18.3339  -42.9961 N.am      8 UNK        -0.5000 
     35 C           0.2697  -18.9570  -42.9843 C.2       7 UNK         0.5000 
     36 O           0.5113  -19.9613  -43.6569 O.2       7 UNK        -0.5000 
     37 CA          1.3460  -18.3619  -42.0561 C.3       7 UNK         0.1400 
     38 CB          2.5149  -19.3324  -41.8132 C.3       7 UNK        -0.1800 
     39 N           1.8791  -17.1150  -42.5954 N.am      7 UNK        -0.5000 
     40 C           1.2787  -15.9183  -42.5453 C.2       6 UNK         0.5000 
     41 O           0.1895  -15.7260  -42.0028 O.2       6 UNK        -0.5000 
     42 CA          2.0174  -14.7423  -43.2151 C.3       6 UNK         0.1400 
     43 CB          2.7467  -13.8881  -42.1678 C.3       6 UNK        -0.1800 
     44 N           2.9825  -15.1844  -44.2277 N.am      6 UNK        -0.5000 
     45 C           2.6332  -15.6013  -45.4501 C.2       5 UNK         0.5000 
     46 O           1.4763  -15.5840  -45.8666 O.2       5 UNK        -0.5000 
     47 CA          3.7454  -16.1568  -46.3439 C.3       5 UNK         0.1400 
     48 CB          3.5866  -17.6814  -46.5090 C.3       5 UNK        -0.1800 
     49 N           3.6903  -15.4802  -47.6355 N.am      5 UNK        -0.5000 
     50 C           4.6588  -15.5053  -48.5600 C.2       4 UNK         0.5000 
     51 O           5.7022  -16.1499  -48.4467 O.2       4 UNK        -0.5000 
     52 CA          4.4477  -14.6230  -49.8001 C.3       4 UNK         0.1400 
     53 CB          3.3133  -15.1590  -50.6900 C.3       4 UNK        -0.1800 
     54 N           4.1625  -13.2490  -49.3917 N.am      4 UNK        -0.5000 
     55 C           5.1044  -12.3385  -49.1015 C.2       3 UNK         0.5000 
     56 O           6.3103  -12.5292  -49.2643 O.2       3 UNK        -0.5000 
     57 CA          4.6329  -10.9893  -48.5221 C.3       3 UNK         0.1400 
     58 CB          4.4905   -9.9445  -49.6388 C.3       3 UNK        -0.1800 
     59 N           3.3684  -11.0925  -47.7933 N.am      3 UNK        -0.5000 
     60 C           3.2240  -11.7099  -46.6103 C.2       2 UNK         0.5000 
     61 O           4.1641  -12.1722  -45.9636 O.2       2 UNK        -0.5000 
     62 CA          1.7895  -11.8732  -46.0679 C.3       2 UNK         0.1400 
     63 CB          1.4852  -10.8099  -45.0032 C.3       2 UNK        -0.1800 
     64 N           0.7513  -11.8312  -47.0980 N.am      2 UNK        -0.5000 
     65 C           0.6479  -12.6714  -48.1386 C.2       1 UNK         0.5000 
     66 O           1.4190  -13.6118  -48.3314 O.2       1 UNK        -0.5000 
     67 C          -1.7790  -23.1863  -46.8733 C.2       11 UNK         0.5000 
     68 O          -1.8171  -23.8301  -47.9238 O.2       11 UNK        -0.5000 
     69 N          -2.7351  -23.2473  -45.9357 N.am      12 UNK        -0.5000 
     70 CA         -3.8942  -24.1355  -45.9843 C.3       12 UNK         0.1400 
     71 CB         -4.9250  -23.7077  -44.9301 C.3       12 UNK        -0.1800 
     72 C          -3.5152  -25.6172  -45.8328 C.2       12 UNK         0.5000 
     73 O          -4.0120  -26.4409  -46.6004 O.2       12 UNK        -0.5000 
     74 N          -2.6139  -25.9300  -44.8904 N.am      13 UNK        -0.5000 
     75 CA         -2.0853  -27.2802  -44.6639 C.3       13 UNK         0.1400 
     76 CB         -1.2167  -27.2885  -43.3975 C.3       13 UNK        -0.1800 
     77 C          -1.2994  -27.8340  -45.8698 C.2       13 UNK         0.5000 
     78 O          -1.4071  -29.0219  -46.1752 O.2       13 UNK        -0.5000 
     79 N          -0.5595  -26.9534  -46.5561 N.am      14 UNK        -0.5000 
     80 CA          0.1570  -27.2337  -47.8018 C.3       14 UNK         0.1400 
     81 CB          1.2140  -26.1370  -48.0122 C.3       14 UNK        -0.1800 
     82 C          -0.7615  -27.3286  -49.0389 C.2       14 UNK         0.5000 
     83 O          -0.2882  -27.7322  -50.1016 O.2       14 UNK        -0.5000 
     84 N          -2.0352  -26.9306  -48.8929 N.am      15 UNK        -0.5000 
     85 CA         -3.0728  -26.8252  -49.9257 C.3       15 UNK         0.1400 
     86 CB         -3.3966  -28.2010  -50.5429 C.3       15 UNK        -0.1800 
     87 C          -2.7813  -25.7456  -50.9903 C.2       15 UNK         0.5000 
     88 O          -3.3811  -25.7653  -52.0655 O.2       15 UNK        -0.5000 
     89 N          -1.9027  -24.7899  -50.6633 N.am      16 UNK        -0.5000 
     90 CA         -1.5908  -23.6295  -51.4943 C.3       16 UNK         0.1400 
     91 CB         -0.2255  -23.0629  -51.0839 C.3       16 UNK        -0.1800 
     92 C          -2.7009  -22.5668  -51.4202 C.2       16 UNK         0.5000 
     93 O          -2.9630  -21.8923  -52.4159 O.2       16 UNK        -0.5000 
     94 N          -3.3956  -22.4834  -50.2754 N.am      17 UNK        -0.5000 
     95 CA         -4.5896  -21.6510  -50.0980 C.3       17 UNK         0.1400 
     96 CB         -5.0576  -21.7276  -48.6385 C.3       17 UNK        -0.1800 
     97 C          -5.7332  -22.0589  -51.0493 C.2       17 UNK         0.5000 
     98 O          -6.3981  -21.1931  -51.6173 O.2       17 UNK        -0.5000 
     99 N          -5.8903  -23.3747  -51.2608 N.am      18 UNK        -0.5000 
    100 CA        -6.8381  -23.9678  -52.2088 C.3       18 UNK         0.1400 
    101 CB        -6.9672  -25.4713  -51.9202 C.3       18 UNK        -0.1800 
    102 C         -6.4589  -23.7224  -53.6843 C.2       18 UNK         0.5000 
    103 O         -7.3366  -23.7592  -54.5467 O.2       18 UNK        -0.5000 
    104 N         -5.1757  -23.4345  -53.9442 N.am      19 UNK        -0.5000 
    105 CA        -4.6447  -23.0025  -55.2392 C.3       19 UNK         0.1400 
    106 CB        -3.2052  -23.5246  -55.3910 C.3       19 UNK        -0.1800 
    107 C         -4.7197  -21.4691  -55.4255 C.2       19 UNK         0.5000 
    108 O         -4.1607  -20.9533  -56.3942 O.2       19 UNK        -0.5000 
    109 N         -5.4146  -20.7741  -54.5112 N.am      20 UNK        -0.5000 
    110 CA        -5.7011  -19.3382  -54.4925 C.3       20 UNK         0.1400 
    111 CB        -6.4712  -18.8957  -55.7550 C.3       20 UNK        -0.1800 
    112 C         -4.4747  -18.4564  -54.1862 C.2       20 UNK         0.5000 
    113 O         -4.4405  -17.2946  -54.5984 O.2       20 UNK        -0.5000 
    114 N         -3.5154  -18.9821  -53.4072 N.am      21 UNK        -0.5000 
    115 CA        -2.3558  -18.2303  -52.9057 C.3       21 UNK         0.1400 
    116 CB        -1.3467  -19.2020  -52.2800 C.3       21 UNK        -0.1800 
    117 C         -2.7168  -17.1034  -51.9103 C.2       21 UNK         0.5000 
    118 O         -1.8724  -16.2503  -51.6350 O.2       21 UNK        -0.5000 
    119 N         -3.9620  -17.1025  -51.4141 N.am      22 UNK        -0.5000 
    120 CA        -4.5539  -16.0444  -50.5802 C.3       22 UNK         0.1400 
    121 C         -4.7363  -14.6755  -51.3034 C.2       22 UNK         0.5000 
    122 N         -4.6649  -14.6046  -52.6285 N.am      22 UNK        -0.7600 
    123 O         -4.9570  -13.6602  -50.6504 O.2       22 UNK        -0.5000 
    124 C124       -5.9049  -16.4760  -49.9383 C.3       23 UNK        -0.0398 
    125 S125       -5.9607  -18.1890  -49.3035 S.3       23 UNK        -0.2404 
    126 C126       -5.4080  -17.9893  -47.5796 C.3       23 UNK        -0.0205 
    127 H127       -1.8079   -8.5934  -49.2408 H         1 UNK         0.0600 
    128 H128       -0.2489   -7.9034  -48.7789 H         1 UNK         0.0600 
    129 H129       -0.6618   -8.0900  -50.4867 H         1 UNK         0.0600 
    130 H130       -1.8628  -10.8100  -48.9704 H         1 UNK         0.3000 
    131 H131       -0.0242  -12.5834  -50.1458 H         1 UNK         0.0600 
    132 H132       -1.3248  -14.3785  -49.0683 H         1 UNK         0.0800 
    133 H133       -2.3328  -13.2189  -49.8543 H         1 UNK         0.0800 
    134 H134       -0.9853  -14.2787  -46.2113 H         1 UNK         0.0800 
    135 H135       -2.5330  -14.2863  -45.4076 H         1 UNK         0.0800 
    136 H136       -4.4718  -15.6408  -46.5466 H         1 UNK         0.1150 
    137 H137       -3.1784  -19.2320  -48.4828 H         1 UNK         0.1150 
    138 H138       -0.3294  -16.1949  -47.4713 H         1 UNK         0.1150 
    139 H139        0.4593  -18.4180  -48.0646 H         1 UNK         0.0800 
    140 H140       -0.2922  -18.2593  -49.6310 H         1 UNK         0.0800 
    141 H141       -1.8308  -20.4953  -46.5488 H         1 UNK         0.0800 
    142 H142       -0.1291  -20.1630  -46.3787 H         1 UNK         0.0800 
    143 H143        0.2664  -22.6295  -47.1869 H         1 UNK         0.0600 
    144 H144       -0.1284  -21.5833  -44.6071 H         1 UNK         0.3000 
    145 H145        0.4585  -24.5140  -42.6839 H         1 UNK         0.0600 
    146 H146        2.1421  -22.9412  -41.6996 H         1 UNK         0.0600 
    147 H147        2.7129  -23.6701  -43.1927 H         1 UNK         0.0600 
    148 H148        2.1456  -22.0088  -43.1976 H         1 UNK         0.0600 
    149 H149       -0.1483  -21.7276  -42.1507 H         1 UNK         0.3000 
    150 H150       -3.6907  -22.1920  -41.9293 H         1 UNK         0.0600 
    151 H151       -1.5808  -21.6699  -39.7649 H         1 UNK         0.0600 
    152 H152       -2.7990  -22.9388  -39.7179 H         1 UNK         0.0600 
    153 H153       -3.2924  -21.2540  -39.6706 H         1 UNK         0.0600 
    154 H154       -1.9888  -19.9303  -41.4816 H         1 UNK         0.3000 
    155 H155       -1.7918  -18.7772  -44.8234 H         1 UNK         0.0600 
    156 H156       -2.8937  -16.7489  -43.9363 H         1 UNK         0.0600 
    157 H157       -3.5384  -17.6597  -42.5695 H         1 UNK         0.0600 
    158 H158       -4.0797  -18.0145  -44.2076 H         1 UNK         0.0600 
    159 H159       -1.0061  -17.4760  -42.4643 H         1 UNK         0.3000 
    160 H160        0.8780  -18.1597  -41.0903 H         1 UNK         0.0600 
    161 H161        3.0371  -19.5796  -42.7386 H         1 UNK         0.0600 
    162 H162        2.1612  -20.2652  -41.3730 H         1 UNK         0.0600 
    163 H163        3.2429  -18.9070  -41.1222 H         1 UNK         0.0600 
    164 H164        2.7586  -17.1811  -43.0843 H         1 UNK         0.3000 
    165 H165        1.2594  -14.1170  -43.6908 H         1 UNK         0.0600 
    166 H166        3.2158  -13.0181  -42.6282 H         1 UNK         0.0600 
    167 H167        3.5221  -14.4562  -41.6525 H         1 UNK         0.0600 
    168 H168        2.0520  -13.5194  -41.4119 H         1 UNK         0.0600 
    169 H169        3.9545  -15.1997  -43.9530 H         1 UNK         0.3000 
    170 H170        4.7114  -15.9451  -45.8806 H         1 UNK         0.0600 
    171 H171        3.5627  -18.1804  -45.5393 H         1 UNK         0.0600 
    172 H172        4.4133  -18.1139  -47.0720 H         1 UNK         0.0600 
    173 H173        2.6615  -17.9326  -47.0287 H         1 UNK         0.0600 
    174 H174        2.8552  -14.9215  -47.7970 H         1 UNK         0.3000 
    175 H175        5.3655  -14.6423  -50.3918 H         1 UNK         0.0600 
    176 H176        2.3603  -15.2082  -50.1636 H         1 UNK         0.0600 
    177 H177        3.1756  -14.5317  -51.5708 H         1 UNK         0.0600 
    178 H178        3.5416  -16.1660  -51.0408 H         1 UNK         0.0600 
    179 H179        3.1959  -13.0424  -49.1694 H         1 UNK         0.3000 
    180 H180        5.3993  -10.6407  -47.8266 H         1 UNK         0.0600 
    181 H181        3.7540  -10.2495  -50.3831 H         1 UNK         0.0600 
    182 H182        5.4384   -9.7969  -50.1577 H         1 UNK         0.0600 
    183 H183        4.1838   -8.9775  -49.2397 H         1 UNK         0.0600 
    184 H184        2.5445  -10.7444  -48.2701 H         1 UNK         0.3000 
    185 H185        1.7330  -12.8517  -45.5948 H         1 UNK         0.0600 
    186 H186        0.5083  -10.9752  -44.5484 H         1 UNK         0.0600 
    187 H187        2.2238  -10.8381  -44.2008 H         1 UNK         0.0600 
    188 H188        1.4956   -9.8043  -45.4253 H         1 UNK         0.0600 
    189 H189        0.0773  -11.0828  -47.0304 H         1 UNK         0.3000 
    190 H190       -2.6770  -22.6221  -45.1379 H         1 UNK         0.3000 
    191 H191       -4.3549  -24.0310  -46.9654 H         1 UNK         0.0600 
    192 H192       -5.8117  -24.3414  -44.9713 H         1 UNK         0.0600 
    193 H193       -5.2507  -22.6804  -45.0952 H         1 UNK         0.0600 
    194 H194       -4.5222  -23.7713  -43.9196 H         1 UNK         0.0600 
    195 H195       -2.2892  -25.2014  -44.2624 H         1 UNK         0.3000 
    196 H196       -2.9369  -27.9421  -44.4938 H         1 UNK         0.0600 
    197 H197       -0.3379  -26.6538  -43.5081 H         1 UNK         0.0600 
    198 H198       -1.7773  -26.9380  -42.5307 H         1 UNK         0.0600 
    199 H199       -0.8658  -28.2964  -43.1728 H         1 UNK         0.0600 
    200 H200       -0.4565  -26.0142  -46.1805 H         1 UNK         0.3000 
    201 H201        0.6706  -28.1917  -47.6998 H         1 UNK         0.0600 
    202 H202        0.7553  -25.1526  -48.1147 H         1 UNK         0.0600 
    203 H203        1.8010  -26.3216  -48.9128 H         1 UNK         0.0600 
    204 H204        1.9106  -26.0951  -47.1747 H         1 UNK         0.0600 
    205 H205       -2.3254  -26.6278  -47.9712 H         1 UNK         0.3000 
    206 H206       -3.9698  -26.4868  -49.4058 H         1 UNK         0.0600 
    207 H207       -3.6003  -28.9415  -49.7694 H         1 UNK         0.0600 
    208 H208       -4.2816  -28.1454  -51.1779 H         1 UNK         0.0600 
    209 H209       -2.5784  -28.5737  -51.1594 H         1 UNK         0.0600 
    210 H210       -1.5251  -24.7872  -49.7223 H         1 UNK         0.3000 
    211 H211       -1.5188  -23.9498  -52.5358 H         1 UNK         0.0600 
    212 H212       -0.0231  -22.1136  -51.5818 H         1 UNK         0.0600 
    213 H213        0.5766  -23.7503  -51.3526 H         1 UNK         0.0600 
    214 H214       -0.1660  -22.8963  -50.0093 H         1 UNK         0.0600 
    215 H215       -3.0897  -23.0410  -49.4873 H         1 UNK         0.3000 
    216 H216       -4.3124  -20.6188  -50.3218 H         1 UNK         0.0600 
    217 H217       -5.4189  -22.7241  -48.3898 H         1 UNK         0.0600 
    218 H218       -5.8841  -21.0403  -48.4594 H         1 UNK         0.0600 
    219 H219       -4.2587  -21.4651  -47.9448 H         1 UNK         0.0600 
    220 H220       -5.2796  -24.0150  -50.7769 H         1 UNK         0.3000 
    221 H221       -7.8136  -23.5061  -52.0422 H         1 UNK         0.0600 
    222 H222       -7.2814  -25.6516  -50.8920 H         1 UNK         0.0600 
    223 H223       -6.0266  -25.9975  -52.0820 H         1 UNK         0.0600 
    224 H224       -7.7126  -25.9295  -52.5715 H         1 UNK         0.0600 
    225 H225       -4.5228  -23.4057  -53.1731 H         1 UNK         0.3000 
    226 H226       -5.2428  -23.4493  -56.0358 H         1 UNK         0.0600 
    227 H227       -2.5180  -23.0313  -54.7047 H         1 UNK         0.0600 
    228 H228       -3.1516  -24.5977  -55.2062 H         1 UNK         0.0600 
    229 H229       -2.8330  -23.3511  -56.4013 H         1 UNK         0.0600 
    230 H230       -5.7970  -21.2869  -53.7266 H         1 UNK         0.3000 
    231 H231       -6.3746  -19.1928  -53.6468 H         1 UNK         0.0600 
    232 H232       -7.3343  -19.5364  -55.9361 H         1 UNK         0.0600 
    233 H233       -5.8421  -18.9179  -56.6450 H         1 UNK         0.0600 
    234 H234       -6.8438  -17.8764  -55.6476 H         1 UNK         0.0600 
    235 H235       -3.5802  -19.9543  -53.1250 H         1 UNK         0.3000 
    236 H236       -1.8747  -17.7563  -53.7636 H         1 UNK         0.0600 
    237 H237       -1.0651  -19.9882  -52.9804 H         1 UNK         0.0600 
    238 H238       -0.4313  -18.6840  -51.9932 H         1 UNK         0.0600 
    239 H239       -1.7535  -19.6728  -51.3853 H         1 UNK         0.0600 
    240 H240       -4.5787  -17.8588  -51.6669 H         1 UNK         0.3000 
    241 H241       -3.8444  -15.8576  -49.7734 H         1 UNK         0.0600 
    242 H242       -4.7878  -13.7139  -53.0834 H         1 UNK         0.3800 
    243 H243       -4.4998  -15.4326  -53.1845 H         1 UNK         0.3800 
    244 H244       -6.7083  -16.3973  -50.6730 H         1 UNK         0.0800 
    245 H245       -6.1724  -15.7912  -49.1317 H         1 UNK         0.0800 
    246 H246       -5.4829  -18.9491  -47.0669 H         1 UNK         0.0800 
    247 H247       -6.0838  -17.3083  -47.0601 H         1 UNK         0.0800 
@<TRIPOS>BOND
     1    1    2 1    
     2    1  127 1    
     3    1  128 1    
     4    1  129 1    
     5    2    3 2    
     6    2    4 am   BACKBONE|DICT|INTERRES
     7    4    5 1    
     8    4  130 1    
     9    5    6 1    
    10    5   65 1    
    11    5  131 1    
    12    6    7 1    
    13    6  132 1    
    14    6  133 1    
    15    7    8 1    
    16    8    9 1    
    17    8  134 1    
    18    8  135 1    
    19    9   10 ar   
    20    9   14 ar   
    21   10   11 ar   
    22   10  136 1    
    23   11   12 ar   
    24   11  126 1    
    25   12   13 ar   
    26   12  137 1    
    27   13   14 ar   
    28   13   15 1    
    29   14  138 1    
    30   15   16 1    
    31   15  139 1    
    32   15  140 1    
    33   16   17 1    
    34   17   18 1    
    35   17  141 1    
    36   17  142 1    
    37   18   19 1    
    38   18   67 1    
    39   18  143 1    
    40   19   20 am   BACKBONE|DICT|INTERRES
    41   19  144 1    
    42   20   21 2    
    43   20   22 1    
    44   22   23 1    
    45   22   24 1    
    46   22  145 1    
    47   23  146 1    
    48   23  147 1    
    49   23  148 1    
    50   24   25 am   BACKBONE|DICT|INTERRES
    51   24  149 1    
    52   25   26 2    
    53   25   27 1    
    54   27   28 1    
    55   27   29 1    
    56   27  150 1    
    57   28  151 1    
    58   28  152 1    
    59   28  153 1    
    60   29   30 am   BACKBONE|DICT|INTERRES
    61   29  154 1    
    62   30   31 2    
    63   30   32 1    
    64   32   33 1    
    65   32   34 1    
    66   32  155 1    
    67   33  156 1    
    68   33  157 1    
    69   33  158 1    
    70   34   35 am   BACKBONE|DICT|INTERRES
    71   34  159 1    
    72   35   36 2    
    73   35   37 1    
    74   37   38 1    
    75   37   39 1    
    76   37  160 1    
    77   38  161 1    
    78   38  162 1    
    79   38  163 1    
    80   39   40 am   BACKBONE|DICT|INTERRES
    81   39  164 1    
    82   40   41 2    
    83   40   42 1    
    84   42   43 1    
    85   42   44 1    
    86   42  165 1    
    87   43  166 1    
    88   43  167 1    
    89   43  168 1    
    90   44   45 am   BACKBONE|DICT|INTERRES
    91   44  169 1    
    92   45   46 2    
    93   45   47 1    
    94   47   48 1    
    95   47   49 1    
    96   47  170 1    
    97   48  171 1    
    98   48  172 1    
    99   48  173 1    
   100   49   50 am   BACKBONE|DICT|INTERRES
   101   49  174 1    
   102   50   51 2    
   103   50   52 1    
   104   52   53 1    
   105   52   54 1    
   106   52  175 1    
   107   53  176 1    
   108   53  177 1    
   109   53  178 1    
   110   54   55 am   BACKBONE|DICT|INTERRES
   111   54  179 1    
   112   55   56 2    
   113   55   57 1    
   114   57   58 1    
   115   57   59 1    
   116   57  180 1    
   117   58  181 1    
   118   58  182 1    
   119   58  183 1    
   120   59   60 am   BACKBONE|DICT|INTERRES
   121   59  184 1    
   122   60   61 2    
   123   60   62 1    
   124   62   63 1    
   125   62   64 1    
   126   62  185 1    
   127   63  186 1    
   128   63  187 1    
   129   63  188 1    
   130   64   65 am   BACKBONE|DICT|INTERRES
   131   64  189 1    
   132   65   66 2    
   133   67   68 2    
   134   67   69 am   BACKBONE|DICT|INTERRES
   135   69   70 1    
   136   69  190 1    
   137   70   71 1    
   138   70   72 1    
   139   70  191 1    
   140   71  192 1    
   141   71  193 1    
   142   71  194 1    
   143   72   73 2    
   144   72   74 am   BACKBONE|DICT|INTERRES
   145   74   75 1    
   146   74  195 1    
   147   75   76 1    
   148   75   77 1    
   149   75  196 1    
   150   76  197 1    
   151   76  198 1    
   152   76  199 1    
   153   77   78 2    
   154   77   79 am   BACKBONE|DICT|INTERRES
   155   79   80 1    
   156   79  200 1    
   157   80   81 1    
   158   80   82 1    
   159   80  201 1    
   160   81  202 1    
   161   81  203 1    
   162   81  204 1    
   163   82   83 2    
   164   82   84 am   BACKBONE|DICT|INTERRES
   165   84   85 1    
   166   84  205 1    
   167   85   86 1    
   168   85   87 1    
   169   85  206 1    
   170   86  207 1    
   171   86  208 1    
   172   86  209 1    
   173   87   88 2    
   174   87   89 am   BACKBONE|DICT|INTERRES
   175   89   90 1    
   176   89  210 1    
   177   90   91 1    
   178   90   92 1    
   179   90  211 1    
   180   91  212 1    
   181   91  213 1    
   182   91  214 1    
   183   92   93 2    
   184   92   94 am   BACKBONE|DICT|INTERRES
   185   94   95 1    
   186   94  215 1    
   187   95   96 1    
   188   95   97 1    
   189   95  216 1    
   190   96  217 1    
   191   96  218 1    
   192   96  219 1    
   193   97   98 2    
   194   97   99 am   BACKBONE|DICT|INTERRES
   195   99  100 1    
   196   99  220 1    
   197  100  101 1    
   198  100  102 1    
   199  100  221 1    
   200  101  222 1    
   201  101  223 1    
   202  101  224 1    
   203  102  103 2    
   204  102  104 am   BACKBONE|DICT|INTERRES
   205  104  105 1    
   206  104  225 1    
   207  105  106 1    
   208  105  107 1    
   209  105  226 1    
   210  106  227 1    
   211  106  228 1    
   212  106  229 1    
   213  107  108 2    
   214  107  109 am   BACKBONE|DICT|INTERRES
   215  109  110 1    
   216  109  230 1    
   217  110  111 1    
   218  110  112 1    
   219  110  231 1    
   220  111  232 1    
   221  111  233 1    
   222  111  234 1    
   223  112  113 2    
   224  112  114 am   BACKBONE|DICT|INTERRES
   225  114  115 1    
   226  114  235 1    
   227  115  116 1    
   228  115  117 1    
   229  115  236 1    
   230  116  237 1    
   231  116  238 1    
   232  116  239 1    
   233  117  118 2    
   234  117  119 am   BACKBONE|DICT|INTERRES
   235  119  120 1    
   236  119  240 1    
   237  120  121 1    
   238  120  124 1    
   239  120  241 1    
   240  121  122 am   BACKBONE|DICT|INTERRES
   241  121  123 2    
   242  122  242 1    
   243  122  243 1    
   244  124  125 1    
   245  124  244 1    
   246  124  245 1    
   247  125  126 1    
   248  126  246 1    
   249  126  247 1    
@<TRIPOS>SUBSTRUCTURE
     1 UNK         1 GROUP             0       ****    0 ROOT    
