@<TRIPOS>MOLECULE
3R540
247   249    1
SMALL
USER_CHARGES


@<TRIPOS>ATOM
      1 CA          3.1320  -15.8904  -49.0619 C.3       0 UNK        -0.1800 
      2 C           2.3457  -15.0778  -48.0439 C.2       0 UNK         0.5000 
      3 O           2.9403  -14.4644  -47.1590 O.2       0 UNK        -0.5000 
      4 N           1.0129  -15.0626  -48.1732 N.am      1 UNK        -0.5000 
      5 CA          0.0973  -14.2788  -47.3349 C.3       1 UNK         0.1400 
      6 C6         -1.3473  -14.8399  -47.3626 C.3       23 UNK        -0.0398 
      7 S7         -2.0959  -14.9307  -49.0313 S.3       23 UNK        -0.2404 
      8 C8         -2.3358  -16.7210  -49.2574 C.3       23 UNK        -0.0205 
      9 C9         -1.0368  -17.4318  -49.6041 C.ar      23 UNK        -0.0193 
     10 C10        -0.6179  -17.5213  -50.9342 C.ar      23 UNK        -0.1150 
     11 C11         0.5656  -18.1896  -51.2619 C.ar      23 UNK        -0.0193 
     12 C12         1.3313  -18.7748  -50.2513 C.ar      23 UNK        -0.1150 
     13 C13         0.9278  -18.6819  -48.9177 C.ar      23 UNK        -0.0193 
     14 C14        -0.2572  -18.0122  -48.6010 C.ar      23 UNK        -0.1150 
     15 C15         1.7799  -19.2871  -47.8156 C.3       23 UNK        -0.0205 
     16 S16         0.9209  -20.6482  -46.9772 S.3       23 UNK        -0.2404 
     17 C17         0.8598  -21.9144  -48.2871 C.3       23 UNK        -0.0398 
     18 CA          0.5463  -23.3359  -47.7604 C.3       11 UNK         0.1400 
     19 N           1.4654  -23.7644  -46.6995 N.am      11 UNK        -0.5000 
     20 C           1.6583  -25.0401  -46.3395 C.2       10 UNK         0.5000 
     21 O           1.0676  -25.9899  -46.8528 O.2       10 UNK        -0.5000 
     22 CA          2.6534  -25.2923  -45.1936 C.3       10 UNK         0.1400 
     23 CB          4.0983  -25.0524  -45.6579 C.3       10 UNK        -0.1800 
     24 N           2.3798  -24.4777  -44.0089 N.am      10 UNK        -0.5000 
     25 C           1.2806  -24.5860  -43.2493 C.2       9 UNK         0.5000 
     26 O           0.3554  -25.3581  -43.4917 O.2       9 UNK        -0.5000 
     27 CA          1.1818  -23.6561  -42.0256 C.3       9 UNK         0.1400 
     28 CB          1.8859  -24.2834  -40.8132 C.3       9 UNK        -0.1800 
     29 N           1.7227  -22.3158  -42.2627 N.am      9 UNK        -0.5000 
     30 C           1.2429  -21.4635  -43.1766 C.2       8 UNK         0.5000 
     31 O           0.3164  -21.7409  -43.9418 O.2       8 UNK        -0.5000 
     32 CA          1.9463  -20.0967  -43.2672 C.3       8 UNK         0.1400 
     33 CB          3.2806  -20.2228  -44.0212 C.3       8 UNK        -0.1800 
     34 N           1.1055  -19.1173  -43.9532 N.am      8 UNK        -0.5000 
     35 C           0.0785  -18.4760  -43.3864 C.2       7 UNK         0.5000 
     36 O          -0.2105  -18.5679  -42.1898 O.2       7 UNK        -0.5000 
     37 CA         -0.7862  -17.6122  -44.3270 C.3       7 UNK         0.1400 
     38 CB         -1.8371  -18.4820  -45.0353 C.3       7 UNK        -0.1800 
     39 N          -1.4793  -16.5514  -43.5959 N.am      7 UNK        -0.5000 
     40 C          -0.8828  -15.4749  -43.0713 C.2       6 UNK         0.5000 
     41 O           0.2901  -15.1602  -43.2942 O.2       6 UNK        -0.5000 
     42 CA         -1.7399  -14.6254  -42.1196 C.3       6 UNK         0.1400 
     43 CB         -2.0718  -15.4079  -40.8317 C.3       6 UNK        -0.1800 
     44 N          -1.0107  -13.4057  -41.7900 N.am      6 UNK        -0.5000 
     45 C          -1.5184  -12.3069  -41.2202 C.2       5 UNK         0.5000 
     46 O          -2.7025  -12.1847  -40.9035 O.2       5 UNK        -0.5000 
     47 CA         -0.5411  -11.1440  -40.9548 C.3       5 UNK         0.1400 
     48 CB         -0.0043  -11.2136  -39.5166 C.3       5 UNK        -0.1800 
     49 N           0.5909  -11.1115  -41.8854 N.am      5 UNK        -0.5000 
     50 C           0.4933  -10.7675  -43.1753 C.2       4 UNK         0.5000 
     51 O          -0.5641  -10.4217  -43.7097 O.2       4 UNK        -0.5000 
     52 CA          1.7929  -10.8363  -43.9941 C.3       4 UNK         0.1400 
     53 CB          2.1560  -12.2965  -44.3069 C.3       4 UNK        -0.1800 
     54 N           1.6179  -10.1145  -45.2523 N.am      4 UNK        -0.5000 
     55 C           2.1868   -8.9411  -45.5570 C.2       3 UNK         0.5000 
     56 O           3.0011   -8.3745  -44.8253 O.2       3 UNK        -0.5000 
     57 CA          1.7574   -8.2647  -46.8802 C.3       3 UNK         0.1400 
     58 CB          2.9012   -7.4632  -47.5378 C.3       3 UNK        -0.1800 
     59 N           1.1265   -9.1730  -47.8465 N.am      3 UNK        -0.5000 
     60 C           1.6911  -10.2155  -48.4716 C.2       2 UNK         0.5000 
     61 O           2.8718  -10.5481  -48.3505 O.2       2 UNK        -0.5000 
     62 CA          0.7541  -11.0487  -49.3652 C.3       2 UNK         0.1400 
     63 CB          1.2593  -11.0889  -50.8161 C.3       2 UNK        -0.1800 
     64 N           0.6139  -12.4161  -48.8690 N.am      2 UNK        -0.5000 
     65 C           0.1261  -12.7690  -47.6700 C.2       1 UNK         0.5000 
     66 O          -0.2968  -11.9585  -46.8441 O.2       1 UNK        -0.5000 
     67 C          -0.9353  -23.5037  -47.3616 C.2       11 UNK         0.5000 
     68 O          -1.7707  -23.7258  -48.2408 O.2       11 UNK        -0.5000 
     69 N          -1.2327  -23.4314  -46.0556 N.am      12 UNK        -0.5000 
     70 CA         -2.5414  -23.7499  -45.4902 C.3       12 UNK         0.1400 
     71 CB         -2.6305  -23.2225  -44.0510 C.3       12 UNK        -0.1800 
     72 C          -2.8418  -25.2585  -45.5523 C.2       12 UNK         0.5000 
     73 O          -3.9228  -25.6352  -46.0033 O.2       12 UNK        -0.5000 
     74 N          -1.8771  -26.0972  -45.1429 N.am      13 UNK        -0.5000 
     75 CA         -1.9744  -27.5611  -45.1714 C.3       13 UNK         0.1400 
     76 CB         -0.7873  -28.1779  -44.4167 C.3       13 UNK        -0.1800 
     77 C          -2.0610  -28.1343  -46.5971 C.2       13 UNK         0.5000 
     78 O          -2.8108  -29.0838  -46.8265 O.2       13 UNK        -0.5000 
     79 N          -1.3260  -27.5227  -47.5359 N.am      14 UNK        -0.5000 
     80 CA         -1.3843  -27.8201  -48.9694 C.3       14 UNK         0.1400 
     81 CB         -0.1594  -27.1925  -49.6534 C.3       14 UNK        -0.1800 
     82 C          -2.6796  -27.3250  -49.6470 C.2       14 UNK         0.5000 
     83 O          -2.9438  -27.7094  -50.7861 O.2       14 UNK        -0.5000 
     84 N          -3.4362  -26.4607  -48.9530 N.am      15 UNK        -0.5000 
     85 CA         -4.6656  -25.7790  -49.3711 C.3       15 UNK         0.1400 
     86 CB         -5.7821  -26.7850  -49.7149 C.3       15 UNK        -0.1800 
     87 C          -4.4587  -24.7318  -50.4831 C.2       15 UNK         0.5000 
     88 O          -5.4415  -24.1914  -50.9891 O.2       15 UNK        -0.5000 
     89 N          -3.1996  -24.4142  -50.8122 N.am      16 UNK        -0.5000 
     90 CA         -2.8139  -23.4058  -51.7980 C.3       16 UNK         0.1400 
     91 CB         -1.2981  -23.4787  -52.0359 C.3       16 UNK        -0.1800 
     92 C          -3.2274  -21.9895  -51.3700 C.2       16 UNK         0.5000 
     93 O          -3.7093  -21.2189  -52.2013 O.2       16 UNK        -0.5000 
     94 N          -3.0784  -21.7008  -50.0697 N.am      17 UNK        -0.5000 
     95 CA         -3.5096  -20.4498  -49.4494 C.3       17 UNK         0.1400 
     96 CB         -2.9010  -20.3494  -48.0441 C.3       17 UNK        -0.1800 
     97 C          -5.0418  -20.3303  -49.3717 C.2       17 UNK         0.5000 
     98 O          -5.5754  -19.2353  -49.5454 O.2       17 UNK        -0.5000 
     99 N          -5.7150  -21.4608  -49.1153 N.am      18 UNK        -0.5000 
    100 CA        -7.1688  -21.5567  -48.9856 C.3       18 UNK         0.1400 
    101 CB        -7.5323  -22.8819  -48.2968 C.3       18 UNK        -0.1800 
    102 C         -7.8848  -21.4269  -50.3405 C.2       18 UNK         0.5000 
    103 O         -8.8783  -20.7060  -50.4393 O.2       18 UNK        -0.5000 
    104 N         -7.3562  -22.1134  -51.3619 N.am      19 UNK        -0.5000 
    105 CA        -7.8619  -22.0844  -52.7346 C.3       19 UNK         0.1400 
    106 CB        -7.3254  -23.3154  -53.4827 C.3       19 UNK        -0.1800 
    107 C         -7.4839  -20.8005  -53.4971 C.2       19 UNK         0.5000 
    108 O         -8.1000  -20.5167  -54.5250 O.2       19 UNK        -0.5000 
    109 N         -6.4680  -20.0757  -53.0017 N.am      20 UNK        -0.5000 
    110 CA        -5.7959  -18.9370  -53.6365 C.3       20 UNK         0.1400 
    111 CB        -6.7419  -17.7255  -53.7668 C.3       20 UNK        -0.1800 
    112 C         -5.1409  -19.3586  -54.9680 C.2       20 UNK         0.5000 
    113 O         -5.3482  -18.7277  -56.0060 O.2       20 UNK        -0.5000 
    114 N         -4.3779  -20.4576  -54.9027 N.am      21 UNK        -0.5000 
    115 CA        -3.7053  -21.0984  -56.0357 C.3       21 UNK         0.1400 
    116 CB        -3.3598  -22.5423  -55.6382 C.3       21 UNK        -0.1800 
    117 C         -2.4392  -20.3524  -56.5038 C.2       21 UNK         0.5000 
    118 O         -1.8835  -20.6935  -57.5490 O.2       21 UNK        -0.5000 
    119 N         -1.9994  -19.3659  -55.7213 N.am      22 UNK        -0.5000 
    120 CA        -0.8029  -18.5499  -55.9284 C.3       22 UNK         0.1400 
    121 C         -1.0362  -17.0951  -55.4384 C.2       22 UNK         0.5000 
    122 N         -0.2038  -16.1536  -55.8618 N.am      22 UNK        -0.7600 
    123 O         -1.9505  -16.8090  -54.6668 O.2       22 UNK        -0.5000 
    124 C124        0.4587  -19.2064  -55.2999 C.3       23 UNK        -0.0398 
    125 S125        0.2544  -19.6884  -53.5464 S.3       23 UNK        -0.2404 
    126 C126        1.0184  -18.2692  -52.7079 C.3       23 UNK        -0.0205 
    127 H127        2.5176  -16.1606  -49.9207 H         1 UNK         0.0600 
    128 H128        3.5085  -16.8051  -48.6048 H         1 UNK         0.0600 
    129 H129        3.9827  -15.3150  -49.4270 H         1 UNK         0.0600 
    130 H130        0.5735  -15.6037  -48.9062 H         1 UNK         0.3000 
    131 H131        0.4448  -14.3695  -46.3039 H         1 UNK         0.0600 
    132 H132       -1.3575  -15.8284  -46.9058 H         1 UNK         0.0800 
    133 H133       -1.9997  -14.2339  -46.7311 H         1 UNK         0.0800 
    134 H134       -2.7858  -17.1501  -48.3614 H         1 UNK         0.0800 
    135 H135       -3.0596  -16.8774  -50.0589 H         1 UNK         0.0800 
    136 H136       -1.2146  -17.0742  -51.7177 H         1 UNK         0.1150 
    137 H137        2.2460  -19.2923  -50.5040 H         1 UNK         0.1150 
    138 H138       -0.5714  -17.9501  -47.5704 H         1 UNK         0.1150 
    139 H139        2.7348  -19.6442  -48.2042 H         1 UNK         0.0800 
    140 H140        2.0173  -18.5120  -47.0861 H         1 UNK         0.0800 
    141 H141        1.8267  -21.9283  -48.7916 H         1 UNK         0.0800 
    142 H142        0.1361  -21.6095  -49.0455 H         1 UNK         0.0800 
    143 H143        0.7006  -24.0123  -48.6036 H         1 UNK         0.0600 
    144 H144        1.9462  -23.0292  -46.2021 H         1 UNK         0.3000 
    145 H145        2.5622  -26.3418  -44.9052 H         1 UNK         0.0600 
    146 H146        4.8119  -25.3315  -44.8825 H         1 UNK         0.0600 
    147 H147        4.3290  -25.6509  -46.5403 H         1 UNK         0.0600 
    148 H148        4.2746  -24.0070  -45.9146 H         1 UNK         0.0600 
    149 H149        3.0840  -23.8064  -43.7415 H         1 UNK         0.3000 
    150 H150        0.1227  -23.5470  -41.7831 H         1 UNK         0.0600 
    151 H151        2.9589  -24.3879  -40.9788 H         1 UNK         0.0600 
    152 H152        1.4880  -25.2771  -40.6022 H         1 UNK         0.0600 
    153 H153        1.7409  -23.6804  -39.9168 H         1 UNK         0.0600 
    154 H154        2.4907  -22.0276  -41.6739 H         1 UNK         0.3000 
    155 H155        2.1510  -19.7422  -42.2547 H         1 UNK         0.0600 
    156 H156        3.1456  -20.6221  -45.0263 H         1 UNK         0.0600 
    157 H157        3.9668  -20.8883  -43.4964 H         1 UNK         0.0600 
    158 H158        3.7756  -19.2555  -44.1099 H         1 UNK         0.0600 
    159 H159        1.2132  -19.0766  -44.9559 H         1 UNK         0.3000 
    160 H160       -0.1375  -17.1559  -45.0781 H         1 UNK         0.0600 
    161 H161       -1.3674  -19.2870  -45.6010 H         1 UNK         0.0600 
    162 H162       -2.4311  -17.8939  -45.7346 H         1 UNK         0.0600 
    163 H163       -2.5200  -18.9469  -44.3232 H         1 UNK         0.0600 
    164 H164       -2.4329  -16.7507  -43.3320 H         1 UNK         0.3000 
    165 H165       -2.6623  -14.3577  -42.6388 H         1 UNK         0.0600 
    166 H166       -2.7007  -14.8263  -40.1580 H         1 UNK         0.0600 
    167 H167       -2.6121  -16.3288  -41.0531 H         1 UNK         0.0600 
    168 H168       -1.1666  -15.6831  -40.2889 H         1 UNK         0.0600 
    169 H169       -0.0373  -13.4234  -42.0679 H         1 UNK         0.3000 
    170 H170       -1.1012  -10.2126  -41.0626 H         1 UNK         0.0600 
    171 H171        0.6292  -10.3560  -39.2894 H         1 UNK         0.0600 
    172 H172       -0.8218  -11.2122  -38.7943 H         1 UNK         0.0600 
    173 H173        0.5804  -12.1189  -39.3481 H         1 UNK         0.0600 
    174 H174        1.4898  -11.3814  -41.5123 H         1 UNK         0.3000 
    175 H175        2.5980  -10.3955  -43.4029 H         1 UNK         0.0600 
    176 H176        2.4075  -12.8442  -43.3982 H         1 UNK         0.0600 
    177 H177        1.3296  -12.8229  -44.7826 H         1 UNK         0.0600 
    178 H178        3.0177  -12.3581  -44.9722 H         1 UNK         0.0600 
    179 H179        0.9112  -10.4950  -45.8727 H         1 UNK         0.3000 
    180 H180        0.9827   -7.5490  -46.6015 H         1 UNK         0.0600 
    181 H181        3.7594   -8.0945  -47.7692 H         1 UNK         0.0600 
    182 H182        3.2518   -6.6682  -46.8787 H         1 UNK         0.0600 
    183 H183        2.5716   -6.9913  -48.4634 H         1 UNK         0.0600 
    184 H184        0.1398   -9.0124  -47.9969 H         1 UNK         0.3000 
    185 H185       -0.2383  -10.5931  -49.3659 H         1 UNK         0.0600 
    186 H186        1.3668  -10.0810  -51.2191 H         1 UNK         0.0600 
    187 H187        2.2314  -11.5781  -50.8916 H         1 UNK         0.0600 
    188 H188        0.5631  -11.6242  -51.4621 H         1 UNK         0.0600 
    189 H189        0.9593  -13.1497  -49.4689 H         1 UNK         0.3000 
    190 H190       -0.5059  -23.1666  -45.4007 H         1 UNK         0.3000 
    191 H191       -3.3025  -23.2362  -46.0810 H         1 UNK         0.0600 
    192 H192       -2.4893  -22.1417  -44.0205 H         1 UNK         0.0600 
    193 H193       -3.6074  -23.4363  -43.6160 H         1 UNK         0.0600 
    194 H194       -1.8766  -23.6749  -43.4068 H         1 UNK         0.0600 
    195 H195       -1.0240  -25.7154  -44.7421 H         1 UNK         0.3000 
    196 H196       -2.8903  -27.8431  -44.6480 H         1 UNK         0.0600 
    197 H197       -0.8366  -29.2674  -44.4303 H         1 UNK         0.0600 
    198 H198       -0.7814  -27.8674  -43.3719 H         1 UNK         0.0600 
    199 H199        0.1658  -27.8853  -44.8591 H         1 UNK         0.0600 
    200 H200       -0.6664  -26.8052  -47.2471 H         1 UNK         0.3000 
    201 H201       -1.3358  -28.9029  -49.1010 H         1 UNK         0.0600 
    202 H202       -0.1395  -27.4277  -50.7184 H         1 UNK         0.0600 
    203 H203        0.7689  -27.5674  -49.2218 H         1 UNK         0.0600 
    204 H204       -0.1594  -26.1065  -49.5569 H         1 UNK         0.0600 
    205 H205       -3.1239  -26.2187  -48.0212 H         1 UNK         0.3000 
    206 H206       -4.9972  -25.2146  -48.4989 H         1 UNK         0.0600 
    207 H207       -5.9212  -27.5085  -48.9115 H         1 UNK         0.0600 
    208 H208       -6.7356  -26.2756  -49.8597 H         1 UNK         0.0600 
    209 H209       -5.5673  -27.3351  -50.6311 H         1 UNK         0.0600 
    210 H210       -2.4547  -24.8470  -50.2857 H         1 UNK         0.3000 
    211 H211       -3.3264  -23.6376  -52.7335 H         1 UNK         0.0600 
    212 H212       -0.7364  -23.2925  -51.1195 H         1 UNK         0.0600 
    213 H213       -0.9817  -22.7369  -52.7707 H         1 UNK         0.0600 
    214 H214       -1.0058  -24.4579  -52.4153 H         1 UNK         0.0600 
    215 H215       -2.6774  -22.4064  -49.4597 H         1 UNK         0.3000 
    216 H216       -3.1338  -19.6196  -50.0511 H         1 UNK         0.0600 
    217 H217       -3.2007  -19.4232  -47.5546 H         1 UNK         0.0600 
    218 H218       -1.8138  -20.3587  -48.0872 H         1 UNK         0.0600 
    219 H219       -3.2166  -21.1738  -47.4046 H         1 UNK         0.0600 
    220 H220       -5.1923  -22.3177  -49.0218 H         1 UNK         0.3000 
    221 H221       -7.5098  -20.7391  -48.3467 H         1 UNK         0.0600 
    222 H222       -7.2206  -23.7452  -48.8853 H         1 UNK         0.0600 
    223 H223       -7.0643  -22.9584  -47.3152 H         1 UNK         0.0600 
    224 H224       -8.6101  -22.9598  -48.1493 H         1 UNK         0.0600 
    225 H225       -6.5702  -22.7363  -51.1872 H         1 UNK         0.3000 
    226 H226       -8.9517  -22.1471  -52.7080 H         1 UNK         0.0600 
    227 H227       -7.7143  -23.3575  -54.5008 H         1 UNK         0.0600 
    228 H228       -6.2364  -23.3014  -53.5471 H         1 UNK         0.0600 
    229 H229       -7.6186  -24.2394  -52.9838 H         1 UNK         0.0600 
    230 H230       -6.0185  -20.4279  -52.1677 H         1 UNK         0.3000 
    231 H231       -4.9825  -18.6484  -52.9687 H         1 UNK         0.0600 
    232 H232       -7.5581  -17.9150  -54.4642 H         1 UNK         0.0600 
    233 H233       -6.2014  -16.8504  -54.1290 H         1 UNK         0.0600 
    234 H234       -7.1778  -17.4626  -52.8030 H         1 UNK         0.0600 
    235 H235       -4.2225  -20.8734  -53.9873 H         1 UNK         0.3000 
    236 H236       -4.3999  -21.1294  -56.8775 H         1 UNK         0.0600 
    237 H237       -4.2458  -23.0878  -55.3127 H         1 UNK         0.0600 
    238 H238       -2.9333  -23.0888  -56.4803 H         1 UNK         0.0600 
    239 H239       -2.6299  -22.5678  -54.8287 H         1 UNK         0.0600 
    240 H240       -2.5325  -19.1233  -54.8981 H         1 UNK         0.3000 
    241 H241       -0.6388  -18.4703  -57.0048 H         1 UNK         0.0600 
    242 H242        0.5490  -16.3549  -56.5019 H         1 UNK         0.3800 
    243 H243       -0.3431  -15.2053  -55.5490 H         1 UNK         0.3800 
    244 H244        0.6970  -20.1137  -55.8564 H         1 UNK         0.0800 
    245 H245        1.3336  -18.5639  -55.4098 H         1 UNK         0.0800 
    246 H246        2.1044  -18.3557  -52.7666 H         1 UNK         0.0800 
    247 H247        0.7573  -17.3407  -53.2160 H         1 UNK         0.0800 
@<TRIPOS>BOND
     1    1    2 1    
     2    1  127 1    
     3    1  128 1    
     4    1  129 1    
     5    2    3 2    
     6    2    4 am   BACKBONE|DICT|INTERRES
     7    4    5 1    
     8    4  130 1    
     9    5    6 1    
    10    5   65 1    
    11    5  131 1    
    12    6    7 1    
    13    6  132 1    
    14    6  133 1    
    15    7    8 1    
    16    8    9 1    
    17    8  134 1    
    18    8  135 1    
    19    9   10 ar   
    20    9   14 ar   
    21   10   11 ar   
    22   10  136 1    
    23   11   12 ar   
    24   11  126 1    
    25   12   13 ar   
    26   12  137 1    
    27   13   14 ar   
    28   13   15 1    
    29   14  138 1    
    30   15   16 1    
    31   15  139 1    
    32   15  140 1    
    33   16   17 1    
    34   17   18 1    
    35   17  141 1    
    36   17  142 1    
    37   18   19 1    
    38   18   67 1    
    39   18  143 1    
    40   19   20 am   BACKBONE|DICT|INTERRES
    41   19  144 1    
    42   20   21 2    
    43   20   22 1    
    44   22   23 1    
    45   22   24 1    
    46   22  145 1    
    47   23  146 1    
    48   23  147 1    
    49   23  148 1    
    50   24   25 am   BACKBONE|DICT|INTERRES
    51   24  149 1    
    52   25   26 2    
    53   25   27 1    
    54   27   28 1    
    55   27   29 1    
    56   27  150 1    
    57   28  151 1    
    58   28  152 1    
    59   28  153 1    
    60   29   30 am   BACKBONE|DICT|INTERRES
    61   29  154 1    
    62   30   31 2    
    63   30   32 1    
    64   32   33 1    
    65   32   34 1    
    66   32  155 1    
    67   33  156 1    
    68   33  157 1    
    69   33  158 1    
    70   34   35 am   BACKBONE|DICT|INTERRES
    71   34  159 1    
    72   35   36 2    
    73   35   37 1    
    74   37   38 1    
    75   37   39 1    
    76   37  160 1    
    77   38  161 1    
    78   38  162 1    
    79   38  163 1    
    80   39   40 am   BACKBONE|DICT|INTERRES
    81   39  164 1    
    82   40   41 2    
    83   40   42 1    
    84   42   43 1    
    85   42   44 1    
    86   42  165 1    
    87   43  166 1    
    88   43  167 1    
    89   43  168 1    
    90   44   45 am   BACKBONE|DICT|INTERRES
    91   44  169 1    
    92   45   46 2    
    93   45   47 1    
    94   47   48 1    
    95   47   49 1    
    96   47  170 1    
    97   48  171 1    
    98   48  172 1    
    99   48  173 1    
   100   49   50 am   BACKBONE|DICT|INTERRES
   101   49  174 1    
   102   50   51 2    
   103   50   52 1    
   104   52   53 1    
   105   52   54 1    
   106   52  175 1    
   107   53  176 1    
   108   53  177 1    
   109   53  178 1    
   110   54   55 am   BACKBONE|DICT|INTERRES
   111   54  179 1    
   112   55   56 2    
   113   55   57 1    
   114   57   58 1    
   115   57   59 1    
   116   57  180 1    
   117   58  181 1    
   118   58  182 1    
   119   58  183 1    
   120   59   60 am   BACKBONE|DICT|INTERRES
   121   59  184 1    
   122   60   61 2    
   123   60   62 1    
   124   62   63 1    
   125   62   64 1    
   126   62  185 1    
   127   63  186 1    
   128   63  187 1    
   129   63  188 1    
   130   64   65 am   BACKBONE|DICT|INTERRES
   131   64  189 1    
   132   65   66 2    
   133   67   68 2    
   134   67   69 am   BACKBONE|DICT|INTERRES
   135   69   70 1    
   136   69  190 1    
   137   70   71 1    
   138   70   72 1    
   139   70  191 1    
   140   71  192 1    
   141   71  193 1    
   142   71  194 1    
   143   72   73 2    
   144   72   74 am   BACKBONE|DICT|INTERRES
   145   74   75 1    
   146   74  195 1    
   147   75   76 1    
   148   75   77 1    
   149   75  196 1    
   150   76  197 1    
   151   76  198 1    
   152   76  199 1    
   153   77   78 2    
   154   77   79 am   BACKBONE|DICT|INTERRES
   155   79   80 1    
   156   79  200 1    
   157   80   81 1    
   158   80   82 1    
   159   80  201 1    
   160   81  202 1    
   161   81  203 1    
   162   81  204 1    
   163   82   83 2    
   164   82   84 am   BACKBONE|DICT|INTERRES
   165   84   85 1    
   166   84  205 1    
   167   85   86 1    
   168   85   87 1    
   169   85  206 1    
   170   86  207 1    
   171   86  208 1    
   172   86  209 1    
   173   87   88 2    
   174   87   89 am   BACKBONE|DICT|INTERRES
   175   89   90 1    
   176   89  210 1    
   177   90   91 1    
   178   90   92 1    
   179   90  211 1    
   180   91  212 1    
   181   91  213 1    
   182   91  214 1    
   183   92   93 2    
   184   92   94 am   BACKBONE|DICT|INTERRES
   185   94   95 1    
   186   94  215 1    
   187   95   96 1    
   188   95   97 1    
   189   95  216 1    
   190   96  217 1    
   191   96  218 1    
   192   96  219 1    
   193   97   98 2    
   194   97   99 am   BACKBONE|DICT|INTERRES
   195   99  100 1    
   196   99  220 1    
   197  100  101 1    
   198  100  102 1    
   199  100  221 1    
   200  101  222 1    
   201  101  223 1    
   202  101  224 1    
   203  102  103 2    
   204  102  104 am   BACKBONE|DICT|INTERRES
   205  104  105 1    
   206  104  225 1    
   207  105  106 1    
   208  105  107 1    
   209  105  226 1    
   210  106  227 1    
   211  106  228 1    
   212  106  229 1    
   213  107  108 2    
   214  107  109 am   BACKBONE|DICT|INTERRES
   215  109  110 1    
   216  109  230 1    
   217  110  111 1    
   218  110  112 1    
   219  110  231 1    
   220  111  232 1    
   221  111  233 1    
   222  111  234 1    
   223  112  113 2    
   224  112  114 am   BACKBONE|DICT|INTERRES
   225  114  115 1    
   226  114  235 1    
   227  115  116 1    
   228  115  117 1    
   229  115  236 1    
   230  116  237 1    
   231  116  238 1    
   232  116  239 1    
   233  117  118 2    
   234  117  119 am   BACKBONE|DICT|INTERRES
   235  119  120 1    
   236  119  240 1    
   237  120  121 1    
   238  120  124 1    
   239  120  241 1    
   240  121  122 am   BACKBONE|DICT|INTERRES
   241  121  123 2    
   242  122  242 1    
   243  122  243 1    
   244  124  125 1    
   245  124  244 1    
   246  124  245 1    
   247  125  126 1    
   248  126  246 1    
   249  126  247 1    
@<TRIPOS>SUBSTRUCTURE
     1 UNK         1 GROUP             0       ****    0 ROOT    
