@<TRIPOS>MOLECULE
3R540
247   249    1
SMALL
USER_CHARGES


@<TRIPOS>ATOM
      1 CA         -3.4326  -11.4959  -47.8734 C.3       0 UNK        -0.1800 
      2 C          -2.2233  -12.3016  -47.4232 C.2       0 UNK         0.5000 
      3 O          -2.1638  -12.7213  -46.2675 O.2       0 UNK        -0.5000 
      4 N          -1.2659  -12.5366  -48.3315 N.am      1 UNK        -0.5000 
      5 CA         -0.0293  -13.2860  -48.0740 C.3       1 UNK         0.1400 
      6 C6          0.9422  -13.2113  -49.2771 C.3       23 UNK        -0.0398 
      7 S7          2.5991  -13.8920  -48.9083 S.3       23 UNK        -0.2404 
      8 C8          2.9675  -14.8781  -50.3960 C.3       23 UNK        -0.0205 
      9 C9          1.9519  -15.9824  -50.6625 C.ar      23 UNK        -0.0193 
     10 C10         1.1072  -15.8985  -51.7733 C.ar      23 UNK        -0.1150 
     11 C11         0.2086  -16.9279  -52.0663 C.ar      23 UNK        -0.0193 
     12 C12         0.1478  -18.0438  -51.2285 C.ar      23 UNK        -0.1150 
     13 C13         0.9710  -18.1312  -50.1027 C.ar      23 UNK        -0.0193 
     14 C14         1.8755  -17.1005  -49.8260 C.ar      23 UNK        -0.1150 
     15 C15         0.8613  -19.3296  -49.1766 C.3       23 UNK        -0.0205 
     16 S16         1.9758  -20.6744  -49.6783 S.3       23 UNK        -0.2404 
     17 C17         1.2120  -22.1403  -48.8847 C.3       23 UNK        -0.0398 
     18 CA          1.3572  -22.2536  -47.3422 C.3       11 UNK         0.1400 
     19 N           2.7092  -21.8977  -46.9039 N.am      11 UNK        -0.5000 
     20 C           3.2202  -22.0633  -45.6781 C.2       10 UNK         0.5000 
     21 O           2.6418  -22.6650  -44.7704 O.2       10 UNK        -0.5000 
     22 CA          4.6175  -21.4698  -45.4219 C.3       10 UNK         0.1400 
     23 CB          5.1125  -20.5052  -46.5271 C.3       10 UNK        -0.1800 
     24 N           4.6192  -20.8110  -44.1181 N.am      10 UNK        -0.5000 
     25 C           5.7125  -20.5230  -43.4012 C.2       9 UNK         0.5000 
     26 O           6.8613  -20.7673  -43.7727 O.2       9 UNK        -0.5000 
     27 CA          5.4899  -19.8665  -42.0294 C.3       9 UNK         0.1400 
     28 CB          5.2814  -18.3527  -42.1731 C.3       9 UNK        -0.1800 
     29 N           4.3502  -20.4559  -41.3275 N.am      9 UNK        -0.5000 
     30 C           4.4352  -21.5555  -40.5658 C.2       8 UNK         0.5000 
     31 O           5.4862  -22.1782  -40.4002 O.2       8 UNK        -0.5000 
     32 CA          3.1448  -22.0551  -39.8781 C.3       8 UNK         0.1400 
     33 CB          3.4253  -22.7301  -38.5191 C.3       8 UNK        -0.1800 
     34 N           2.0931  -21.0429  -39.7354 N.am      8 UNK        -0.5000 
     35 C           2.1258  -19.8837  -39.0624 C.2       7 UNK         0.5000 
     36 O           3.1152  -19.4799  -38.4492 O.2       7 UNK        -0.5000 
     37 CA          0.8313  -19.0331  -39.0970 C.3       7 UNK         0.1400 
     38 CB          1.0484  -17.6042  -38.5677 C.3       7 UNK        -0.1800 
     39 N           0.2385  -18.9437  -40.4349 N.am      7 UNK        -0.5000 
     40 C          -0.4184  -19.9179  -41.0805 C.2       6 UNK         0.5000 
     41 O          -0.6576  -21.0170  -40.5796 O.2       6 UNK        -0.5000 
     42 CA         -0.8428  -19.6512  -42.5366 C.3       6 UNK         0.1400 
     43 CB         -2.3505  -19.3572  -42.5903 C.3       6 UNK        -0.1800 
     44 N          -0.1093  -18.5668  -43.1929 N.am      6 UNK        -0.5000 
     45 C           1.2154  -18.5283  -43.4105 C.2       5 UNK         0.5000 
     46 O           2.0002  -19.4121  -43.0542 O.2       5 UNK        -0.5000 
     47 CA          1.7695  -17.2712  -44.1095 C.3       5 UNK         0.1400 
     48 CB          2.1234  -17.5751  -45.5710 C.3       5 UNK        -0.1800 
     49 N           0.8757  -16.1126  -44.0634 N.am      5 UNK        -0.5000 
     50 C           0.5790  -15.4127  -42.9599 C.2       4 UNK         0.5000 
     51 O           0.9994  -15.6968  -41.8375 O.2       4 UNK        -0.5000 
     52 CA         -0.3674  -14.2114  -43.1418 C.3       4 UNK         0.1400 
     53 CB          0.3808  -13.0093  -43.7384 C.3       4 UNK        -0.1800 
     54 N          -1.5187  -14.5327  -43.9851 N.am      4 UNK        -0.5000 
     55 C          -2.5130  -15.3576  -43.6294 C.2       3 UNK         0.5000 
     56 O          -2.5901  -15.8964  -42.5261 O.2       3 UNK        -0.5000 
     57 CA         -3.5869  -15.6522  -44.6910 C.3       3 UNK         0.1400 
     58 CB         -4.6860  -14.5793  -44.6832 C.3       3 UNK        -0.1800 
     59 N          -3.0073  -15.7544  -46.0299 N.am      3 UNK        -0.5000 
     60 C          -2.3531  -16.8347  -46.4769 C.2       2 UNK         0.5000 
     61 O          -2.2410  -17.8730  -45.8275 O.2       2 UNK        -0.5000 
     62 CA         -1.7241  -16.7491  -47.8807 C.3       2 UNK         0.1400 
     63 CB         -2.7033  -17.2736  -48.9420 C.3       2 UNK        -0.1800 
     64 N          -1.2944  -15.3967  -48.2428 N.am      2 UNK        -0.5000 
     65 C          -0.3061  -14.7367  -47.6216 C.2       1 UNK         0.5000 
     66 O           0.3271  -15.2020  -46.6759 O.2       1 UNK        -0.5000 
     67 C           0.2673  -21.4520  -46.5926 C.2       11 UNK         0.5000 
     68 O           0.5568  -20.3835  -46.0546 O.2       11 UNK        -0.5000 
     69 N          -0.9664  -21.9718  -46.5762 N.am      12 UNK        -0.5000 
     70 CA         -2.0868  -21.3813  -45.8488 C.3       12 UNK         0.1400 
     71 CB         -2.4914  -22.3341  -44.7111 C.3       12 UNK        -0.1800 
     72 C          -3.2856  -21.1600  -46.7764 C.2       12 UNK         0.5000 
     73 O          -3.5917  -22.0230  -47.6020 O.2       12 UNK        -0.5000 
     74 N          -4.0121  -20.0574  -46.5538 N.am      13 UNK        -0.5000 
     75 CA         -5.3119  -19.7620  -47.1685 C.3       13 UNK         0.1400 
     76 CB         -5.7817  -18.3659  -46.7327 C.3       13 UNK        -0.1800 
     77 C          -6.3921  -20.8151  -46.8473 C.2       13 UNK         0.5000 
     78 O          -7.2869  -21.0324  -47.6628 O.2       13 UNK        -0.5000 
     79 N          -6.2508  -21.4987  -45.7020 N.am      14 UNK        -0.5000 
     80 CA         -7.0566  -22.6521  -45.2921 C.3       14 UNK         0.1400 
     81 CB         -6.6806  -23.0299  -43.8512 C.3       14 UNK        -0.1800 
     82 C          -6.9095  -23.8750  -46.2238 C.2       14 UNK         0.5000 
     83 O          -7.8311  -24.6876  -46.2995 O.2       14 UNK        -0.5000 
     84 N          -5.7763  -23.9689  -46.9350 N.am      15 UNK        -0.5000 
     85 CA         -5.5061  -24.9688  -47.9704 C.3       15 UNK         0.1400 
     86 CB         -4.0306  -25.3950  -47.8701 C.3       15 UNK        -0.1800 
     87 C          -5.8431  -24.4428  -49.3835 C.2       15 UNK         0.5000 
     88 O          -5.4933  -25.0962  -50.3667 O.2       15 UNK        -0.5000 
     89 N          -6.4965  -23.2715  -49.4634 N.am      16 UNK        -0.5000 
     90 CA         -6.8969  -22.5377  -50.6684 C.3       16 UNK         0.1400 
     91 CB         -7.8813  -23.3595  -51.5267 C.3       16 UNK        -0.1800 
     92 C          -5.7085  -21.9955  -51.4866 C.2       16 UNK         0.5000 
     93 O          -5.8698  -21.7244  -52.6780 O.2       16 UNK        -0.5000 
     94 N          -4.5430  -21.8133  -50.8430 N.am      17 UNK        -0.5000 
     95 CA         -3.2778  -21.4126  -51.4709 C.3       17 UNK         0.1400 
     96 CB         -2.1764  -21.3556  -50.4104 C.3       17 UNK        -0.1800 
     97 C          -3.3326  -20.0878  -52.2505 C.2       17 UNK         0.5000 
     98 O          -2.6230  -19.9488  -53.2458 O.2       17 UNK        -0.5000 
     99 N          -4.2178  -19.1729  -51.8312 N.am      18 UNK        -0.5000 
    100 CA        -4.5249  -17.9129  -52.5133 C.3       18 UNK         0.1400 
    101 CB        -5.6103  -17.1708  -51.7190 C.3       18 UNK        -0.1800 
    102 C         -4.9622  -18.0884  -53.9837 C.2       18 UNK         0.5000 
    103 O         -4.6872  -17.2093  -54.8005 O.2       18 UNK        -0.5000 
    104 N         -5.6043  -19.2238  -54.2901 N.am      19 UNK        -0.5000 
    105 CA        -5.9759  -19.6363  -55.6400 C.3       19 UNK         0.1400 
    106 CB        -7.4513  -20.0667  -55.6438 C.3       19 UNK        -0.1800 
    107 C         -5.0822  -20.7863  -56.1333 C.2       19 UNK         0.5000 
    108 O         -4.6587  -20.7678  -57.2883 O.2       19 UNK        -0.5000 
    109 N         -4.8162  -21.7745  -55.2683 N.am      20 UNK        -0.5000 
    110 CA        -4.1322  -23.0167  -55.6288 C.3       20 UNK         0.1400 
    111 CB        -4.3503  -24.0623  -54.5241 C.3       20 UNK        -0.1800 
    112 C         -2.6335  -22.8500  -55.9396 C.2       20 UNK         0.5000 
    113 O         -2.1270  -23.5651  -56.8055 O.2       20 UNK        -0.5000 
    114 N         -1.9500  -21.9294  -55.2449 N.am      21 UNK        -0.5000 
    115 CA        -0.5280  -21.6520  -55.4538 C.3       21 UNK         0.1400 
    116 CB         0.1594  -21.3600  -54.1075 C.3       21 UNK        -0.1800 
    117 C         -0.3311  -20.4848  -56.4328 C.2       21 UNK         0.5000 
    118 O          0.4992  -20.5907  -57.3368 O.2       21 UNK        -0.5000 
    119 N         -1.0870  -19.3970  -56.2335 N.am      22 UNK        -0.5000 
    120 CA        -0.9388  -18.1406  -56.9917 C.3       22 UNK         0.1400 
    121 C         -1.8472  -18.0182  -58.2483 C.2       22 UNK         0.5000 
    122 N         -2.7628  -18.9374  -58.5192 N.am      22 UNK        -0.7600 
    123 O         -1.7021  -17.0712  -59.0169 O.2       22 UNK        -0.5000 
    124 C124       -1.0702  -16.8985  -56.0751 C.3       23 UNK        -0.0398 
    125 S125        0.2611  -16.8409  -54.8282 S.3       23 UNK        -0.2404 
    126 C126       -0.6965  -16.8309  -53.2843 C.3       23 UNK        -0.0205 
    127 H127       -4.3427  -12.0803  -47.7384 H         1 UNK         0.0600 
    128 H128       -3.3627  -11.2107  -48.9233 H         1 UNK         0.0600 
    129 H129       -3.5186  -10.5872  -47.2779 H         1 UNK         0.0600 
    130 H130       -1.3735  -12.1658  -49.2650 H         1 UNK         0.3000 
    131 H131        0.4587  -12.7866  -47.2340 H         1 UNK         0.0600 
    132 H132        0.5071  -13.7060  -50.1452 H         1 UNK         0.0800 
    133 H133        1.0830  -12.1700  -49.5699 H         1 UNK         0.0800 
    134 H134        3.9545  -15.3279  -50.2803 H         1 UNK         0.0800 
    135 H135        3.0411  -14.2066  -51.2529 H         1 UNK         0.0800 
    136 H136        1.1599  -15.0391  -52.4271 H         1 UNK         0.1150 
    137 H137       -0.5456  -18.8427  -51.4488 H         1 UNK         0.1150 
    138 H138        2.5195  -17.1664  -48.9600 H         1 UNK         0.1150 
    139 H139        1.1138  -19.0233  -48.1625 H         1 UNK         0.0800 
    140 H140       -0.1694  -19.6813  -49.1456 H         1 UNK         0.0800 
    141 H141        0.1709  -22.2182  -49.1923 H         1 UNK         0.0800 
    142 H142        1.6961  -23.0087  -49.3333 H         1 UNK         0.0800 
    143 H143        1.2053  -23.3009  -47.0723 H         1 UNK         0.0600 
    144 H144        3.2430  -21.3650  -47.5753 H         1 UNK         0.3000 
    145 H145        5.3034  -22.3180  -45.3763 H         1 UNK         0.0600 
    146 H146        4.4438  -19.6546  -46.6557 H         1 UNK         0.0600 
    147 H147        6.1026  -20.1109  -46.2997 H         1 UNK         0.0600 
    148 H148        5.1969  -21.0127  -47.4887 H         1 UNK         0.0600 
    149 H149        3.7029  -20.6073  -43.7311 H         1 UNK         0.3000 
    150 H150        6.3942  -20.0151  -41.4350 H         1 UNK         0.0600 
    151 H151        6.1579  -17.8804  -42.6184 H         1 UNK         0.0600 
    152 H152        5.1117  -17.8817  -41.2047 H         1 UNK         0.0600 
    153 H153        4.4309  -18.1274  -42.8119 H         1 UNK         0.0600 
    154 H154        3.4456  -20.0253  -41.4739 H         1 UNK         0.3000 
    155 H155        2.7344  -22.8164  -40.5428 H         1 UNK         0.0600 
    156 H156        2.5050  -23.0940  -38.0622 H         1 UNK         0.0600 
    157 H157        3.8995  -22.0431  -37.8176 H         1 UNK         0.0600 
    158 H158        4.0877  -23.5887  -38.6343 H         1 UNK         0.0600 
    159 H159        1.2113  -21.2684  -40.1865 H         1 UNK         0.3000 
    160 H160        0.1139  -19.5256  -38.4376 H         1 UNK         0.0600 
    161 H161        1.7679  -17.0564  -39.1780 H         1 UNK         0.0600 
    162 H162        1.4230  -17.6149  -37.5434 H         1 UNK         0.0600 
    163 H163        0.1160  -17.0392  -38.5634 H         1 UNK         0.0600 
    164 H164        0.4106  -18.0838  -40.9383 H         1 UNK         0.3000 
    165 H165       -0.6418  -20.5606  -43.1048 H         1 UNK         0.0600 
    166 H166       -2.6085  -18.4862  -41.9880 H         1 UNK         0.0600 
    167 H167       -2.6935  -19.1726  -43.6062 H         1 UNK         0.0600 
    168 H168       -2.9249  -20.1996  -42.2031 H         1 UNK         0.0600 
    169 H169       -0.6625  -17.7956  -43.5379 H         1 UNK         0.3000 
    170 H170        2.6867  -16.9903  -43.5924 H         1 UNK         0.0600 
    171 H171        2.7514  -18.4622  -45.6459 H         1 UNK         0.0600 
    172 H172        1.2261  -17.7576  -46.1623 H         1 UNK         0.0600 
    173 H173        2.6643  -16.7475  -46.0301 H         1 UNK         0.0600 
    174 H174        0.5223  -15.7879  -44.9621 H         1 UNK         0.3000 
    175 H175       -0.7376  -13.9243  -42.1554 H         1 UNK         0.0600 
    176 H176        0.7702  -13.2286  -44.7330 H         1 UNK         0.0600 
    177 H177       -0.2724  -12.1403  -43.8207 H         1 UNK         0.0600 
    178 H178        1.2256  -12.7247  -43.1101 H         1 UNK         0.0600 
    179 H179       -1.5599  -14.0857  -44.8951 H         1 UNK         0.3000 
    180 H180       -4.0532  -16.6066  -44.4360 H         1 UNK         0.0600 
    181 H181       -4.2924  -13.5904  -44.9187 H         1 UNK         0.0600 
    182 H182       -5.1602  -14.5171  -43.7030 H         1 UNK         0.0600 
    183 H183       -5.4668  -14.8112  -45.4077 H         1 UNK         0.0600 
    184 H184       -3.0183  -14.9180  -46.5960 H         1 UNK         0.3000 
    185 H185       -0.8423  -17.3914  -47.8780 H         1 UNK         0.0600 
    186 H186       -2.9887  -18.3050  -48.7344 H         1 UNK         0.0600 
    187 H187       -3.6158  -16.6778  -48.9717 H         1 UNK         0.0600 
    188 H188       -2.2610  -17.2552  -49.9375 H         1 UNK         0.0600 
    189 H189       -1.7884  -14.9420  -48.9962 H         1 UNK         0.3000 
    190 H190       -1.1759  -22.8172  -47.0885 H         1 UNK         0.3000 
    191 H191       -1.8054  -20.4218  -45.4144 H         1 UNK         0.0600 
    192 H192       -3.2994  -21.9131  -44.1121 H         1 UNK         0.0600 
    193 H193       -1.6550  -22.5250  -44.0389 H         1 UNK         0.0600 
    194 H194       -2.8334  -23.2973  -45.0931 H         1 UNK         0.0600 
    195 H195       -3.6366  -19.3543  -45.9262 H         1 UNK         0.3000 
    196 H196       -5.1760  -19.7568  -48.2518 H         1 UNK         0.0600 
    197 H197       -6.7713  -18.1420  -47.1334 H         1 UNK         0.0600 
    198 H198       -5.1106  -17.5898  -47.0960 H         1 UNK         0.0600 
    199 H199       -5.8399  -18.2802  -45.6470 H         1 UNK         0.0600 
    200 H200       -5.4961  -21.2375  -45.0860 H         1 UNK         0.3000 
    201 H201       -8.1061  -22.3509  -45.3078 H         1 UNK         0.0600 
    202 H202       -6.8492  -22.1977  -43.1674 H         1 UNK         0.0600 
    203 H203       -5.6331  -23.3240  -43.7724 H         1 UNK         0.0600 
    204 H204       -7.2837  -23.8668  -43.4966 H         1 UNK         0.0600 
    205 H205       -5.0769  -23.2407  -46.8476 H         1 UNK         0.3000 
    206 H206       -6.1223  -25.8539  -47.8008 H         1 UNK         0.0600 
    207 H207       -3.7844  -25.7322  -46.8631 H         1 UNK         0.0600 
    208 H208       -3.8154  -26.2212  -48.5486 H         1 UNK         0.0600 
    209 H209       -3.3539  -24.5798  -48.1260 H         1 UNK         0.0600 
    210 H210       -6.7384  -22.8066  -48.5961 H         1 UNK         0.3000 
    211 H211       -7.4355  -21.6572  -50.3167 H         1 UNK         0.0600 
    212 H212       -7.3938  -24.2105  -52.0030 H         1 UNK         0.0600 
    213 H213       -8.3122  -22.7481  -52.3205 H         1 UNK         0.0600 
    214 H214       -8.7084  -23.7376  -50.9259 H         1 UNK         0.0600 
    215 H215       -4.4940  -22.0586  -49.8627 H         1 UNK         0.3000 
    216 H216       -3.0085  -22.1920  -52.1840 H         1 UNK         0.0600 
    217 H217       -2.3731  -20.5820  -49.6681 H         1 UNK         0.0600 
    218 H218       -1.2105  -21.1418  -50.8695 H         1 UNK         0.0600 
    219 H219       -2.0875  -22.3094  -49.8906 H         1 UNK         0.0600 
    220 H220       -4.7726  -19.3914  -51.0181 H         1 UNK         0.3000 
    221 H221       -3.6201  -17.3035  -52.5065 H         1 UNK         0.0600 
    222 H222       -6.5374  -17.7436  -51.6740 H         1 UNK         0.0600 
    223 H223       -5.2896  -16.9717  -50.6970 H         1 UNK         0.0600 
    224 H224       -5.8409  -16.2087  -52.1785 H         1 UNK         0.0600 
    225 H225       -5.7566  -19.9076  -53.5571 H         1 UNK         0.3000 
    226 H226       -5.8650  -18.8064  -56.3410 H         1 UNK         0.0600 
    227 H227       -8.1010  -19.2408  -55.3539 H         1 UNK         0.0600 
    228 H228       -7.7614  -20.3913  -56.6379 H         1 UNK         0.0600 
    229 H229       -7.6340  -20.8928  -54.9550 H         1 UNK         0.0600 
    230 H230       -5.2138  -21.7358  -54.3322 H         1 UNK         0.3000 
    231 H231       -4.6062  -23.3982  -56.5359 H         1 UNK         0.0600 
    232 H232       -3.9078  -25.0200  -54.8009 H         1 UNK         0.0600 
    233 H233       -5.4123  -24.2345  -54.3474 H         1 UNK         0.0600 
    234 H234       -3.9019  -23.7572  -53.5801 H         1 UNK         0.0600 
    235 H235       -2.4295  -21.3444  -54.5686 H         1 UNK         0.3000 
    236 H236       -0.0383  -22.5317  -55.8773 H         1 UNK         0.0600 
    237 H237       -0.1526  -20.4075  -53.6796 H         1 UNK         0.0600 
    238 H238       -0.0487  -22.1414  -53.3765 H         1 UNK         0.0600 
    239 H239        1.2415  -21.3115  -54.2326 H         1 UNK         0.0600 
    240 H240       -1.7388  -19.3886  -55.4614 H         1 UNK         0.3000 
    241 H241        0.0747  -18.1082  -57.3966 H         1 UNK         0.0600 
    242 H242       -2.9546  -19.7098  -57.8949 H         1 UNK         0.3800 
    243 H243       -3.3263  -18.8326  -59.3476 H         1 UNK         0.3800 
    244 H244       -1.0029  -15.9769  -56.6558 H         1 UNK         0.0800 
    245 H245       -2.0483  -16.8819  -55.5921 H         1 UNK         0.0800 
    246 H246       -1.3990  -17.6630  -53.3038 H         1 UNK         0.0800 
    247 H247       -1.2894  -15.9172  -53.2261 H         1 UNK         0.0800 
@<TRIPOS>BOND
     1    1    2 1    
     2    1  127 1    
     3    1  128 1    
     4    1  129 1    
     5    2    3 2    
     6    2    4 am   BACKBONE|DICT|INTERRES
     7    4    5 1    
     8    4  130 1    
     9    5    6 1    
    10    5   65 1    
    11    5  131 1    
    12    6    7 1    
    13    6  132 1    
    14    6  133 1    
    15    7    8 1    
    16    8    9 1    
    17    8  134 1    
    18    8  135 1    
    19    9   10 ar   
    20    9   14 ar   
    21   10   11 ar   
    22   10  136 1    
    23   11   12 ar   
    24   11  126 1    
    25   12   13 ar   
    26   12  137 1    
    27   13   14 ar   
    28   13   15 1    
    29   14  138 1    
    30   15   16 1    
    31   15  139 1    
    32   15  140 1    
    33   16   17 1    
    34   17   18 1    
    35   17  141 1    
    36   17  142 1    
    37   18   19 1    
    38   18   67 1    
    39   18  143 1    
    40   19   20 am   BACKBONE|DICT|INTERRES
    41   19  144 1    
    42   20   21 2    
    43   20   22 1    
    44   22   23 1    
    45   22   24 1    
    46   22  145 1    
    47   23  146 1    
    48   23  147 1    
    49   23  148 1    
    50   24   25 am   BACKBONE|DICT|INTERRES
    51   24  149 1    
    52   25   26 2    
    53   25   27 1    
    54   27   28 1    
    55   27   29 1    
    56   27  150 1    
    57   28  151 1    
    58   28  152 1    
    59   28  153 1    
    60   29   30 am   BACKBONE|DICT|INTERRES
    61   29  154 1    
    62   30   31 2    
    63   30   32 1    
    64   32   33 1    
    65   32   34 1    
    66   32  155 1    
    67   33  156 1    
    68   33  157 1    
    69   33  158 1    
    70   34   35 am   BACKBONE|DICT|INTERRES
    71   34  159 1    
    72   35   36 2    
    73   35   37 1    
    74   37   38 1    
    75   37   39 1    
    76   37  160 1    
    77   38  161 1    
    78   38  162 1    
    79   38  163 1    
    80   39   40 am   BACKBONE|DICT|INTERRES
    81   39  164 1    
    82   40   41 2    
    83   40   42 1    
    84   42   43 1    
    85   42   44 1    
    86   42  165 1    
    87   43  166 1    
    88   43  167 1    
    89   43  168 1    
    90   44   45 am   BACKBONE|DICT|INTERRES
    91   44  169 1    
    92   45   46 2    
    93   45   47 1    
    94   47   48 1    
    95   47   49 1    
    96   47  170 1    
    97   48  171 1    
    98   48  172 1    
    99   48  173 1    
   100   49   50 am   BACKBONE|DICT|INTERRES
   101   49  174 1    
   102   50   51 2    
   103   50   52 1    
   104   52   53 1    
   105   52   54 1    
   106   52  175 1    
   107   53  176 1    
   108   53  177 1    
   109   53  178 1    
   110   54   55 am   BACKBONE|DICT|INTERRES
   111   54  179 1    
   112   55   56 2    
   113   55   57 1    
   114   57   58 1    
   115   57   59 1    
   116   57  180 1    
   117   58  181 1    
   118   58  182 1    
   119   58  183 1    
   120   59   60 am   BACKBONE|DICT|INTERRES
   121   59  184 1    
   122   60   61 2    
   123   60   62 1    
   124   62   63 1    
   125   62   64 1    
   126   62  185 1    
   127   63  186 1    
   128   63  187 1    
   129   63  188 1    
   130   64   65 am   BACKBONE|DICT|INTERRES
   131   64  189 1    
   132   65   66 2    
   133   67   68 2    
   134   67   69 am   BACKBONE|DICT|INTERRES
   135   69   70 1    
   136   69  190 1    
   137   70   71 1    
   138   70   72 1    
   139   70  191 1    
   140   71  192 1    
   141   71  193 1    
   142   71  194 1    
   143   72   73 2    
   144   72   74 am   BACKBONE|DICT|INTERRES
   145   74   75 1    
   146   74  195 1    
   147   75   76 1    
   148   75   77 1    
   149   75  196 1    
   150   76  197 1    
   151   76  198 1    
   152   76  199 1    
   153   77   78 2    
   154   77   79 am   BACKBONE|DICT|INTERRES
   155   79   80 1    
   156   79  200 1    
   157   80   81 1    
   158   80   82 1    
   159   80  201 1    
   160   81  202 1    
   161   81  203 1    
   162   81  204 1    
   163   82   83 2    
   164   82   84 am   BACKBONE|DICT|INTERRES
   165   84   85 1    
   166   84  205 1    
   167   85   86 1    
   168   85   87 1    
   169   85  206 1    
   170   86  207 1    
   171   86  208 1    
   172   86  209 1    
   173   87   88 2    
   174   87   89 am   BACKBONE|DICT|INTERRES
   175   89   90 1    
   176   89  210 1    
   177   90   91 1    
   178   90   92 1    
   179   90  211 1    
   180   91  212 1    
   181   91  213 1    
   182   91  214 1    
   183   92   93 2    
   184   92   94 am   BACKBONE|DICT|INTERRES
   185   94   95 1    
   186   94  215 1    
   187   95   96 1    
   188   95   97 1    
   189   95  216 1    
   190   96  217 1    
   191   96  218 1    
   192   96  219 1    
   193   97   98 2    
   194   97   99 am   BACKBONE|DICT|INTERRES
   195   99  100 1    
   196   99  220 1    
   197  100  101 1    
   198  100  102 1    
   199  100  221 1    
   200  101  222 1    
   201  101  223 1    
   202  101  224 1    
   203  102  103 2    
   204  102  104 am   BACKBONE|DICT|INTERRES
   205  104  105 1    
   206  104  225 1    
   207  105  106 1    
   208  105  107 1    
   209  105  226 1    
   210  106  227 1    
   211  106  228 1    
   212  106  229 1    
   213  107  108 2    
   214  107  109 am   BACKBONE|DICT|INTERRES
   215  109  110 1    
   216  109  230 1    
   217  110  111 1    
   218  110  112 1    
   219  110  231 1    
   220  111  232 1    
   221  111  233 1    
   222  111  234 1    
   223  112  113 2    
   224  112  114 am   BACKBONE|DICT|INTERRES
   225  114  115 1    
   226  114  235 1    
   227  115  116 1    
   228  115  117 1    
   229  115  236 1    
   230  116  237 1    
   231  116  238 1    
   232  116  239 1    
   233  117  118 2    
   234  117  119 am   BACKBONE|DICT|INTERRES
   235  119  120 1    
   236  119  240 1    
   237  120  121 1    
   238  120  124 1    
   239  120  241 1    
   240  121  122 am   BACKBONE|DICT|INTERRES
   241  121  123 2    
   242  122  242 1    
   243  122  243 1    
   244  124  125 1    
   245  124  244 1    
   246  124  245 1    
   247  125  126 1    
   248  126  246 1    
   249  126  247 1    
@<TRIPOS>SUBSTRUCTURE
     1 UNK         1 GROUP             0       ****    0 ROOT    
