@<TRIPOS>MOLECULE
3R540
247   249    1
SMALL
USER_CHARGES


@<TRIPOS>ATOM
      1 CA          4.7691  -13.2048  -43.8965 C.3       0 UNK        -0.1800 
      2 C           3.7706  -13.7965  -44.8795 C.2       0 UNK         0.5000 
      3 O           3.3386  -14.9344  -44.7072 O.2       0 UNK        -0.5000 
      4 N           3.3829  -13.0298  -45.9007 N.am      1 UNK        -0.5000 
      5 CA          2.3800  -13.4115  -46.8908 C.3       1 UNK         0.1400 
      6 C6          2.9630  -14.2749  -48.0420 C.3       23 UNK        -0.0398 
      7 S7          1.7493  -15.5064  -48.6168 S.3       23 UNK        -0.2404 
      8 C8          2.7654  -16.5096  -49.7458 C.3       23 UNK        -0.0205 
      9 C9          2.0753  -17.8057  -50.1576 C.ar      23 UNK        -0.0193 
     10 C10         0.8055  -17.7817  -50.7469 C.ar      23 UNK        -0.1150 
     11 C11         0.1888  -18.9673  -51.1571 C.ar      23 UNK        -0.0193 
     12 C12         0.8617  -20.1798  -50.9968 C.ar      23 UNK        -0.1150 
     13 C13         2.1260  -20.2235  -50.4077 C.ar      23 UNK        -0.0193 
     14 C14         2.7255  -19.0334  -49.9831 C.ar      23 UNK        -0.1150 
     15 C15         2.8521  -21.5552  -50.2702 C.3       23 UNK        -0.0205 
     16 S16         2.5720  -22.3451  -48.6543 S.3       23 UNK        -0.2404 
     17 C17         0.7967  -22.7624  -48.7359 C.3       23 UNK        -0.0398 
     18 CA          0.3491  -23.6255  -47.5332 C.3       11 UNK         0.1400 
     19 N           0.4302  -22.9031  -46.2592 N.am      11 UNK        -0.5000 
     20 C           0.2879  -23.4674  -45.0520 C.2       10 UNK         0.5000 
     21 O           0.1043  -24.6722  -44.8819 O.2       10 UNK        -0.5000 
     22 CA          0.2971  -22.5267  -43.8329 C.3       10 UNK         0.1400 
     23 CB          1.7281  -22.1043  -43.4694 C.3       10 UNK        -0.1800 
     24 N          -0.5426  -21.3435  -44.0300 N.am      10 UNK        -0.5000 
     25 C          -1.8740  -21.3840  -44.1855 C.2       9 UNK         0.5000 
     26 O          -2.5330  -22.4216  -44.1354 O.2       9 UNK        -0.5000 
     27 CA         -2.5908  -20.0562  -44.4889 C.3       9 UNK         0.1400 
     28 CB         -2.8607  -19.2707  -43.1975 C.3       9 UNK        -0.1800 
     29 N          -1.8501  -19.2162  -45.4268 N.am      9 UNK        -0.5000 
     30 C          -1.5803  -19.5445  -46.6978 C.2       8 UNK         0.5000 
     31 O          -1.9725  -20.5768  -47.2414 O.2       8 UNK        -0.5000 
     32 CA         -0.6688  -18.5790  -47.4719 C.3       8 UNK         0.1400 
     33 CB         -1.4507  -17.3363  -47.9292 C.3       8 UNK        -0.1800 
     34 N           0.5055  -18.1809  -46.6921 N.am      8 UNK        -0.5000 
     35 C           1.4411  -19.0342  -46.2491 C.2       7 UNK         0.5000 
     36 O           1.4142  -20.2430  -46.4625 O.2       7 UNK        -0.5000 
     37 CA          2.5577  -18.4602  -45.3605 C.3       7 UNK         0.1400 
     38 CB          3.7123  -17.9063  -46.2055 C.3       7 UNK        -0.1800 
     39 N           2.0681  -17.4293  -44.4472 N.am      7 UNK        -0.5000 
     40 C           1.2181  -17.6635  -43.4390 C.2       6 UNK         0.5000 
     41 O           0.7938  -18.7827  -43.1481 O.2       6 UNK        -0.5000 
     42 CA          0.7143  -16.4331  -42.6650 C.3       6 UNK         0.1400 
     43 CB          1.7852  -15.8928  -41.7046 C.3       6 UNK        -0.1800 
     44 N           0.2442  -15.3593  -43.5452 N.am      6 UNK        -0.5000 
     45 C          -0.8219  -15.4602  -44.3515 C.2       5 UNK         0.5000 
     46 O          -1.4465  -16.5110  -44.4975 O.2       5 UNK        -0.5000 
     47 CA         -1.2735  -14.2113  -45.1447 C.3       5 UNK         0.1400 
     48 CB         -2.8098  -14.0797  -45.1580 C.3       5 UNK        -0.1800 
     49 N          -0.6671  -12.9321  -44.7502 N.am      5 UNK        -0.5000 
     50 C          -0.7072  -12.3197  -43.5569 C.2       4 UNK         0.5000 
     51 O          -1.1960  -12.8085  -42.5391 O.2       4 UNK        -0.5000 
     52 CA         -0.0985  -10.9065  -43.5053 C.3       4 UNK         0.1400 
     53 CB          1.4118  -10.9750  -43.2331 C.3       4 UNK        -0.1800 
     54 N          -0.3422  -10.1585  -44.7427 N.am      4 UNK        -0.5000 
     55 C          -1.5120   -9.5686  -45.0353 C.2       3 UNK         0.5000 
     56 O          -2.4766   -9.5544  -44.2695 O.2       3 UNK        -0.5000 
     57 CA         -1.6382   -8.8795  -46.4090 C.3       3 UNK         0.1400 
     58 CB         -1.2498   -7.3968  -46.3042 C.3       3 UNK        -0.1800 
     59 N          -0.8354   -9.5096  -47.4577 N.am      3 UNK        -0.5000 
     60 C          -1.0519  -10.7326  -47.9590 C.2       2 UNK         0.5000 
     61 O          -1.9766  -11.4632  -47.6037 O.2       2 UNK        -0.5000 
     62 CA         -0.0455  -11.2594  -49.0014 C.3       2 UNK         0.1400 
     63 CB          0.7948  -10.1567  -49.6850 C.3       2 UNK        -0.1800 
     64 N           0.8217  -12.2875  -48.4178 N.am      2 UNK        -0.5000 
     65 C           1.6359  -12.1489  -47.3625 C.2       1 UNK         0.5000 
     66 O           1.7748  -11.0924  -46.7385 O.2       1 UNK        -0.5000 
     67 C          -1.0553  -24.2179  -47.7703 C.2       11 UNK         0.5000 
     68 O          -1.1555  -25.3361  -48.2766 O.2       11 UNK        -0.5000 
     69 N          -2.1087  -23.4907  -47.3709 N.am      12 UNK        -0.5000 
     70 CA         -3.4925  -23.9630  -47.4012 C.3       12 UNK         0.1400 
     71 CB         -4.4518  -22.7945  -47.1399 C.3       12 UNK        -0.1800 
     72 C          -3.7442  -25.1228  -46.4222 C.2       12 UNK         0.5000 
     73 O          -4.3532  -26.1183  -46.8128 O.2       12 UNK        -0.5000 
     74 N          -3.2358  -25.0013  -45.1874 N.am      13 UNK        -0.5000 
     75 CA         -3.3067  -26.0339  -44.1490 C.3       13 UNK         0.1400 
     76 CB         -2.7989  -25.4606  -42.8175 C.3       13 UNK        -0.1800 
     77 C          -2.5364  -27.3156  -44.5204 C.2       13 UNK         0.5000 
     78 O          -3.0048  -28.4155  -44.2251 O.2       13 UNK        -0.5000 
     79 N          -1.3915  -27.1512  -45.1960 N.am      14 UNK        -0.5000 
     80 CA         -0.5812  -28.2337  -45.7579 C.3       14 UNK         0.1400 
     81 CB          0.8203  -27.6849  -46.0709 C.3       14 UNK        -0.1800 
     82 C          -1.1935  -28.8748  -47.0216 C.2       14 UNK         0.5000 
     83 O          -0.7116  -29.9245  -47.4490 O.2       14 UNK        -0.5000 
     84 N          -2.2133  -28.2274  -47.6074 N.am      15 UNK        -0.5000 
     85 CA         -2.8814  -28.5586  -48.8711 C.3       15 UNK         0.1400 
     86 CB         -3.6204  -29.9092  -48.7731 C.3       15 UNK        -0.1800 
     87 C          -1.9403  -28.4665  -50.0923 C.2       15 UNK         0.5000 
     88 O          -2.1315  -29.1779  -51.0803 O.2       15 UNK        -0.5000 
     89 N          -0.9437  -27.5769  -50.0045 N.am      16 UNK        -0.5000 
     90 CA          0.0131  -27.2701  -51.0663 C.3       16 UNK         0.1400 
     91 CB          1.3208  -26.7852  -50.4195 C.3       16 UNK        -0.1800 
     92 C          -0.5295  -26.2073  -52.0399 C.2       16 UNK         0.5000 
     93 O          -0.0362  -26.1052  -53.1636 O.2       16 UNK        -0.5000 
     94 N          -1.5261  -25.4364  -51.5926 N.am      17 UNK        -0.5000 
     95 CA         -2.1971  -24.3693  -52.3237 C.3       17 UNK         0.1400 
     96 CB         -1.3153  -23.1029  -52.3106 C.3       17 UNK        -0.1800 
     97 C          -3.5677  -24.1201  -51.6704 C.2       17 UNK         0.5000 
     98 O          -4.0089  -24.9169  -50.8383 O.2       17 UNK        -0.5000 
     99 N          -4.1963  -22.9999  -52.0332 N.am      18 UNK        -0.5000 
    100 CA        -5.3181  -22.3908  -51.3302 C.3       18 UNK         0.1400 
    101 CB        -6.5862  -22.4872  -52.1916 C.3       18 UNK        -0.1800 
    102 C         -4.9237  -20.9287  -51.0905 C.2       18 UNK         0.5000 
    103 O         -4.3184  -20.3191  -51.9753 O.2       18 UNK        -0.5000 
    104 N         -5.2489  -20.3917  -49.9087 N.am      19 UNK        -0.5000 
    105 CA        -4.7884  -19.0729  -49.4655 C.3       19 UNK         0.1400 
    106 CB        -5.1228  -18.8797  -47.9776 C.3       19 UNK        -0.1800 
    107 C         -5.3524  -17.9130  -50.3050 C.2       19 UNK         0.5000 
    108 O         -4.6221  -16.9724  -50.6175 O.2       19 UNK        -0.5000 
    109 N         -6.6363  -18.0211  -50.6726 N.am      20 UNK        -0.5000 
    110 CA        -7.3620  -17.0258  -51.4630 C.3       20 UNK         0.1400 
    111 CB        -8.8677  -17.3153  -51.3701 C.3       20 UNK        -0.1800 
    112 C         -6.9166  -16.9707  -52.9358 C.2       20 UNK         0.5000 
    113 O         -7.0126  -15.9104  -53.5556 O.2       20 UNK        -0.5000 
    114 N         -6.4229  -18.0988  -53.4684 N.am      21 UNK        -0.5000 
    115 CA        -5.9792  -18.2405  -54.8586 C.3       21 UNK         0.1400 
    116 CB        -5.7208  -19.7240  -55.1624 C.3       21 UNK        -0.1800 
    117 C         -4.7398  -17.3913  -55.1991 C.2       21 UNK         0.5000 
    118 O         -4.5591  -17.0256  -56.3614 O.2       21 UNK        -0.5000 
    119 N         -3.9292  -17.0766  -54.1822 N.am      22 UNK        -0.5000 
    120 CA        -2.7571  -16.1938  -54.2836 C.3       22 UNK         0.1400 
    121 C         -3.0993  -14.6787  -54.1596 C.2       22 UNK         0.5000 
    122 N         -4.3516  -14.2830  -53.9555 N.am      22 UNK        -0.7600 
    123 O         -2.2100  -13.8386  -54.2651 O.2       22 UNK        -0.5000 
    124 C124       -1.6351  -16.6053  -53.2956 C.3       23 UNK        -0.0398 
    125 S125       -1.1565  -18.3595  -53.4900 S.3       23 UNK        -0.2404 
    126 C126       -1.2015  -18.9521  -51.7716 C.3       23 UNK        -0.0205 
    127 H127        5.6710  -13.8159  -43.8658 H         1 UNK         0.0600 
    128 H128        4.3375  -13.1800  -42.8959 H         1 UNK         0.0600 
    129 H129        5.0533  -12.1885  -44.1706 H         1 UNK         0.0600 
    130 H130        3.6994  -12.0713  -45.9749 H         1 UNK         0.3000 
    131 H131        1.6253  -13.9964  -46.3610 H         1 UNK         0.0600 
    132 H132        3.3081  -13.6655  -48.8794 H         1 UNK         0.0800 
    133 H133        3.8398  -14.8222  -47.6936 H         1 UNK         0.0800 
    134 H134        2.9899  -15.9264  -50.6397 H         1 UNK         0.0800 
    135 H135        3.7217  -16.7262  -49.2676 H         1 UNK         0.0800 
    136 H136        0.2969  -16.8385  -50.8859 H         1 UNK         0.1150 
    137 H137        0.4027  -21.0959  -51.3340 H         1 UNK         0.1150 
    138 H138        3.7078  -19.0651  -49.5335 H         1 UNK         0.1150 
    139 H139        2.5487  -22.2384  -51.0651 H         1 UNK         0.0800 
    140 H140        3.9239  -21.3996  -50.4005 H         1 UNK         0.0800 
    141 H141        0.6214  -23.2892  -49.6758 H         1 UNK         0.0800 
    142 H142        0.2146  -21.8401  -48.7760 H         1 UNK         0.0800 
    143 H143        1.0325  -24.4744  -47.4633 H         1 UNK         0.0600 
    144 H144        0.6391  -21.9077  -46.3183 H         1 UNK         0.3000 
    145 H145       -0.1114  -23.0814  -42.9857 H         1 UNK         0.0600 
    146 H146        1.7394  -21.4678  -42.5845 H         1 UNK         0.0600 
    147 H147        2.3464  -22.9761  -43.2523 H         1 UNK         0.0600 
    148 H148        2.2084  -21.5586  -44.2807 H         1 UNK         0.0600 
    149 H149       -0.0741  -20.4439  -44.0436 H         1 UNK         0.3000 
    150 H150       -3.5525  -20.2953  -44.9469 H         1 UNK         0.0600 
    151 H151       -3.4285  -19.8711  -42.4857 H         1 UNK         0.0600 
    152 H152       -3.4398  -18.3695  -43.3996 H         1 UNK         0.0600 
    153 H153       -1.9340  -18.9680  -42.7089 H         1 UNK         0.0600 
    154 H154       -1.5174  -18.3240  -45.0692 H         1 UNK         0.3000 
    155 H155       -0.3119  -19.1067  -48.3574 H         1 UNK         0.0600 
    156 H156       -1.8187  -16.7501  -47.0886 H         1 UNK         0.0600 
    157 H157       -0.8402  -16.6849  -48.5502 H         1 UNK         0.0600 
    158 H158       -2.3146  -17.6160  -48.5285 H         1 UNK         0.0600 
    159 H159        0.5943  -17.2046  -46.4580 H         1 UNK         0.3000 
    160 H160        2.9524  -19.2805  -44.7579 H         1 UNK         0.0600 
    161 H161        4.5551  -17.6175  -45.5774 H         1 UNK         0.0600 
    162 H162        3.4063  -17.0294  -46.7715 H         1 UNK         0.0600 
    163 H163        4.0720  -18.6515  -46.9162 H         1 UNK         0.0600 
    164 H164        2.4158  -16.4821  -44.5916 H         1 UNK         0.3000 
    165 H165       -0.1368  -16.7566  -42.0618 H         1 UNK         0.0600 
    166 H166        1.3938  -15.0746  -41.0998 H         1 UNK         0.0600 
    167 H167        2.1200  -16.6720  -41.0188 H         1 UNK         0.0600 
    168 H168        2.6636  -15.5260  -42.2348 H         1 UNK         0.0600 
    169 H169        0.7224  -14.4739  -43.4806 H         1 UNK         0.3000 
    170 H170       -0.9545  -14.3857  -46.1733 H         1 UNK         0.0600 
    171 H171       -3.2115  -13.9565  -44.1517 H         1 UNK         0.0600 
    172 H172       -3.1272  -13.2226  -45.7520 H         1 UNK         0.0600 
    173 H173       -3.2801  -14.9625  -45.5928 H         1 UNK         0.0600 
    174 H174       -0.2763  -12.3932  -45.5081 H         1 UNK         0.3000 
    175 H175       -0.5630  -10.3740  -42.6724 H         1 UNK         0.0600 
    176 H176        1.8374   -9.9773  -43.1253 H         1 UNK         0.0600 
    177 H177        1.9447  -11.4790  -44.0376 H         1 UNK         0.0600 
    178 H178        1.6195  -11.5187  -42.3105 H         1 UNK         0.0600 
    179 H179        0.4042  -10.1443  -45.4294 H         1 UNK         0.3000 
    180 H180       -2.6867   -8.9362  -46.7092 H         1 UNK         0.0600 
    181 H181       -0.2014   -7.2738  -46.0296 H         1 UNK         0.0600 
    182 H182       -1.8493   -6.8884  -45.5477 H         1 UNK         0.0600 
    183 H183       -1.4135   -6.8780  -47.2490 H         1 UNK         0.0600 
    184 H184       -0.0284   -8.9960  -47.7810 H         1 UNK         0.3000 
    185 H185       -0.6361  -11.7498  -49.7768 H         1 UNK         0.0600 
    186 H186        1.4624   -9.6455  -48.9909 H         1 UNK         0.0600 
    187 H187        1.4115  -10.5786  -50.4787 H         1 UNK         0.0600 
    188 H188        0.1533   -9.4039  -50.1449 H         1 UNK         0.0600 
    189 H189        0.7490  -13.2034  -48.8418 H         1 UNK         0.3000 
    190 H190       -1.9558  -22.5484  -47.0242 H         1 UNK         0.3000 
    191 H191       -3.6915  -24.3361  -48.4047 H         1 UNK         0.0600 
    192 H192       -4.2890  -21.9956  -47.8607 H         1 UNK         0.0600 
    193 H193       -5.4906  -23.1138  -47.2301 H         1 UNK         0.0600 
    194 H194       -4.3210  -22.3756  -46.1428 H         1 UNK         0.0600 
    195 H195       -2.7900  -24.1256  -44.9244 H         1 UNK         0.3000 
    196 H196       -4.3567  -26.3055  -44.0226 H         1 UNK         0.0600 
    197 H197       -2.8588  -26.2049  -42.0225 H         1 UNK         0.0600 
    198 H198       -3.3947  -24.6027  -42.5056 H         1 UNK         0.0600 
    199 H199       -1.7600  -25.1374  -42.8884 H         1 UNK         0.0600 
    200 H200       -1.0350  -26.2078  -45.3210 H         1 UNK         0.3000 
    201 H201       -0.4824  -29.0188  -45.0056 H         1 UNK         0.0600 
    202 H202        1.2914  -27.2722  -45.1786 H         1 UNK         0.0600 
    203 H203        0.7828  -26.8977  -46.8245 H         1 UNK         0.0600 
    204 H204        1.4753  -28.4704  -46.4497 H         1 UNK         0.0600 
    205 H205       -2.5348  -27.3728  -47.1705 H         1 UNK         0.3000 
    206 H206       -3.6353  -27.7842  -49.0203 H         1 UNK         0.0600 
    207 H207       -4.2739  -29.9374  -47.9012 H         1 UNK         0.0600 
    208 H208       -4.2454  -30.0766  -49.6510 H         1 UNK         0.0600 
    209 H209       -2.9278  -30.7481  -48.7020 H         1 UNK         0.0600 
    210 H210       -0.9077  -26.9782  -49.1832 H         1 UNK         0.3000 
    211 H211        0.2258  -28.1757  -51.6382 H         1 UNK         0.0600 
    212 H212        1.1718  -25.8712  -49.8436 H         1 UNK         0.0600 
    213 H213        2.0775  -26.5764  -51.1767 H         1 UNK         0.0600 
    214 H214        1.7314  -27.5398  -49.7482 H         1 UNK         0.0600 
    215 H215       -1.9158  -25.6225  -50.6763 H         1 UNK         0.3000 
    216 H216       -2.3677  -24.6910  -53.3529 H         1 UNK         0.0600 
    217 H217       -1.7212  -22.3237  -52.9564 H         1 UNK         0.0600 
    218 H218       -0.3055  -23.3106  -52.6647 H         1 UNK         0.0600 
    219 H219       -1.2392  -22.6924  -51.3033 H         1 UNK         0.0600 
    220 H220       -3.7430  -22.3727  -52.6854 H         1 UNK         0.3000 
    221 H221       -5.4893  -22.8792  -50.3683 H         1 UNK         0.0600 
    222 H222       -6.4544  -22.0031  -53.1596 H         1 UNK         0.0600 
    223 H223       -6.8561  -23.5275  -52.3739 H         1 UNK         0.0600 
    224 H224       -7.4335  -22.0119  -51.6962 H         1 UNK         0.0600 
    225 H225       -5.7695  -20.9387  -49.2390 H         1 UNK         0.3000 
    226 H226       -3.7029  -19.0608  -49.5741 H         1 UNK         0.0600 
    227 H227       -4.6479  -19.6421  -47.3611 H         1 UNK         0.0600 
    228 H228       -4.7684  -17.9121  -47.6198 H         1 UNK         0.0600 
    229 H229       -6.1972  -18.9234  -47.7959 H         1 UNK         0.0600 
    230 H230       -7.1550  -18.8349  -50.3766 H         1 UNK         0.3000 
    231 H231       -7.1762  -16.0420  -51.0266 H         1 UNK         0.0600 
    232 H232       -9.1152  -18.2973  -51.7753 H         1 UNK         0.0600 
    233 H233       -9.4430  -16.5754  -51.9284 H         1 UNK         0.0600 
    234 H234       -9.2134  -17.2806  -50.3367 H         1 UNK         0.0600 
    235 H235       -6.3231  -18.9104  -52.8763 H         1 UNK         0.3000 
    236 H236       -6.7928  -17.9003  -55.5026 H         1 UNK         0.0600 
    237 H237       -6.6122  -20.3251  -54.9841 H         1 UNK         0.0600 
    238 H238       -5.4402  -19.8640  -56.2070 H         1 UNK         0.0600 
    239 H239       -4.9120  -20.1260  -54.5520 H         1 UNK         0.0600 
    240 H240       -4.1525  -17.4209  -53.2591 H         1 UNK         0.3000 
    241 H241       -2.3413  -16.3078  -55.2865 H         1 UNK         0.0600 
    242 H242       -4.5508  -13.2977  -53.8858 H         1 UNK         0.3800 
    243 H243       -5.1085  -14.9506  -53.8802 H         1 UNK         0.3800 
    244 H244       -0.7413  -16.0003  -53.4570 H         1 UNK         0.0800 
    245 H245       -1.9527  -16.4084  -52.2707 H         1 UNK         0.0800 
    246 H246       -1.8768  -18.3512  -51.1621 H         1 UNK         0.0800 
    247 H247       -1.6228  -19.9581  -51.7700 H         1 UNK         0.0800 
@<TRIPOS>BOND
     1    1    2 1    
     2    1  127 1    
     3    1  128 1    
     4    1  129 1    
     5    2    3 2    
     6    2    4 am   BACKBONE|DICT|INTERRES
     7    4    5 1    
     8    4  130 1    
     9    5    6 1    
    10    5   65 1    
    11    5  131 1    
    12    6    7 1    
    13    6  132 1    
    14    6  133 1    
    15    7    8 1    
    16    8    9 1    
    17    8  134 1    
    18    8  135 1    
    19    9   10 ar   
    20    9   14 ar   
    21   10   11 ar   
    22   10  136 1    
    23   11   12 ar   
    24   11  126 1    
    25   12   13 ar   
    26   12  137 1    
    27   13   14 ar   
    28   13   15 1    
    29   14  138 1    
    30   15   16 1    
    31   15  139 1    
    32   15  140 1    
    33   16   17 1    
    34   17   18 1    
    35   17  141 1    
    36   17  142 1    
    37   18   19 1    
    38   18   67 1    
    39   18  143 1    
    40   19   20 am   BACKBONE|DICT|INTERRES
    41   19  144 1    
    42   20   21 2    
    43   20   22 1    
    44   22   23 1    
    45   22   24 1    
    46   22  145 1    
    47   23  146 1    
    48   23  147 1    
    49   23  148 1    
    50   24   25 am   BACKBONE|DICT|INTERRES
    51   24  149 1    
    52   25   26 2    
    53   25   27 1    
    54   27   28 1    
    55   27   29 1    
    56   27  150 1    
    57   28  151 1    
    58   28  152 1    
    59   28  153 1    
    60   29   30 am   BACKBONE|DICT|INTERRES
    61   29  154 1    
    62   30   31 2    
    63   30   32 1    
    64   32   33 1    
    65   32   34 1    
    66   32  155 1    
    67   33  156 1    
    68   33  157 1    
    69   33  158 1    
    70   34   35 am   BACKBONE|DICT|INTERRES
    71   34  159 1    
    72   35   36 2    
    73   35   37 1    
    74   37   38 1    
    75   37   39 1    
    76   37  160 1    
    77   38  161 1    
    78   38  162 1    
    79   38  163 1    
    80   39   40 am   BACKBONE|DICT|INTERRES
    81   39  164 1    
    82   40   41 2    
    83   40   42 1    
    84   42   43 1    
    85   42   44 1    
    86   42  165 1    
    87   43  166 1    
    88   43  167 1    
    89   43  168 1    
    90   44   45 am   BACKBONE|DICT|INTERRES
    91   44  169 1    
    92   45   46 2    
    93   45   47 1    
    94   47   48 1    
    95   47   49 1    
    96   47  170 1    
    97   48  171 1    
    98   48  172 1    
    99   48  173 1    
   100   49   50 am   BACKBONE|DICT|INTERRES
   101   49  174 1    
   102   50   51 2    
   103   50   52 1    
   104   52   53 1    
   105   52   54 1    
   106   52  175 1    
   107   53  176 1    
   108   53  177 1    
   109   53  178 1    
   110   54   55 am   BACKBONE|DICT|INTERRES
   111   54  179 1    
   112   55   56 2    
   113   55   57 1    
   114   57   58 1    
   115   57   59 1    
   116   57  180 1    
   117   58  181 1    
   118   58  182 1    
   119   58  183 1    
   120   59   60 am   BACKBONE|DICT|INTERRES
   121   59  184 1    
   122   60   61 2    
   123   60   62 1    
   124   62   63 1    
   125   62   64 1    
   126   62  185 1    
   127   63  186 1    
   128   63  187 1    
   129   63  188 1    
   130   64   65 am   BACKBONE|DICT|INTERRES
   131   64  189 1    
   132   65   66 2    
   133   67   68 2    
   134   67   69 am   BACKBONE|DICT|INTERRES
   135   69   70 1    
   136   69  190 1    
   137   70   71 1    
   138   70   72 1    
   139   70  191 1    
   140   71  192 1    
   141   71  193 1    
   142   71  194 1    
   143   72   73 2    
   144   72   74 am   BACKBONE|DICT|INTERRES
   145   74   75 1    
   146   74  195 1    
   147   75   76 1    
   148   75   77 1    
   149   75  196 1    
   150   76  197 1    
   151   76  198 1    
   152   76  199 1    
   153   77   78 2    
   154   77   79 am   BACKBONE|DICT|INTERRES
   155   79   80 1    
   156   79  200 1    
   157   80   81 1    
   158   80   82 1    
   159   80  201 1    
   160   81  202 1    
   161   81  203 1    
   162   81  204 1    
   163   82   83 2    
   164   82   84 am   BACKBONE|DICT|INTERRES
   165   84   85 1    
   166   84  205 1    
   167   85   86 1    
   168   85   87 1    
   169   85  206 1    
   170   86  207 1    
   171   86  208 1    
   172   86  209 1    
   173   87   88 2    
   174   87   89 am   BACKBONE|DICT|INTERRES
   175   89   90 1    
   176   89  210 1    
   177   90   91 1    
   178   90   92 1    
   179   90  211 1    
   180   91  212 1    
   181   91  213 1    
   182   91  214 1    
   183   92   93 2    
   184   92   94 am   BACKBONE|DICT|INTERRES
   185   94   95 1    
   186   94  215 1    
   187   95   96 1    
   188   95   97 1    
   189   95  216 1    
   190   96  217 1    
   191   96  218 1    
   192   96  219 1    
   193   97   98 2    
   194   97   99 am   BACKBONE|DICT|INTERRES
   195   99  100 1    
   196   99  220 1    
   197  100  101 1    
   198  100  102 1    
   199  100  221 1    
   200  101  222 1    
   201  101  223 1    
   202  101  224 1    
   203  102  103 2    
   204  102  104 am   BACKBONE|DICT|INTERRES
   205  104  105 1    
   206  104  225 1    
   207  105  106 1    
   208  105  107 1    
   209  105  226 1    
   210  106  227 1    
   211  106  228 1    
   212  106  229 1    
   213  107  108 2    
   214  107  109 am   BACKBONE|DICT|INTERRES
   215  109  110 1    
   216  109  230 1    
   217  110  111 1    
   218  110  112 1    
   219  110  231 1    
   220  111  232 1    
   221  111  233 1    
   222  111  234 1    
   223  112  113 2    
   224  112  114 am   BACKBONE|DICT|INTERRES
   225  114  115 1    
   226  114  235 1    
   227  115  116 1    
   228  115  117 1    
   229  115  236 1    
   230  116  237 1    
   231  116  238 1    
   232  116  239 1    
   233  117  118 2    
   234  117  119 am   BACKBONE|DICT|INTERRES
   235  119  120 1    
   236  119  240 1    
   237  120  121 1    
   238  120  124 1    
   239  120  241 1    
   240  121  122 am   BACKBONE|DICT|INTERRES
   241  121  123 2    
   242  122  242 1    
   243  122  243 1    
   244  124  125 1    
   245  124  244 1    
   246  124  245 1    
   247  125  126 1    
   248  126  246 1    
   249  126  247 1    
@<TRIPOS>SUBSTRUCTURE
     1 UNK         1 GROUP             0       ****    0 ROOT    
