@<TRIPOS>MOLECULE
3R540
247   249    1
SMALL
USER_CHARGES


@<TRIPOS>ATOM
      1 CA         -5.7486  -15.4051  -45.0148 C.3       0 UNK        -0.1800 
      2 C          -4.9784  -15.9727  -46.1981 C.2       0 UNK         0.5000 
      3 O          -4.9406  -15.3531  -47.2608 O.2       0 UNK        -0.5000 
      4 N          -4.3579  -17.1461  -46.0169 N.am      1 UNK        -0.5000 
      5 CA         -3.5773  -17.8519  -47.0439 C.3       1 UNK         0.1400 
      6 C6         -3.4059  -19.3564  -46.7250 C.3       23 UNK        -0.0398 
      7 S7         -5.0193  -20.1998  -46.6335 S.3       23 UNK        -0.2404 
      8 C8         -5.0619  -21.0920  -48.2259 C.3       23 UNK        -0.0205 
      9 C9         -4.2461  -22.3841  -48.2533 C.ar      23 UNK        -0.0193 
     10 C10        -3.6508  -22.7951  -49.4512 C.ar      23 UNK        -0.1150 
     11 C11        -2.9647  -24.0113  -49.5284 C.ar      23 UNK        -0.0193 
     12 C12        -2.8606  -24.8132  -48.3892 C.ar      23 UNK        -0.1150 
     13 C13        -3.4492  -24.4197  -47.1845 C.ar      23 UNK        -0.0193 
     14 C14        -4.1418  -23.2081  -47.1249 C.ar      23 UNK        -0.1150 
     15 C15        -3.3840  -25.3261  -45.9617 C.3       23 UNK        -0.0205 
     16 S16        -2.1626  -24.7673  -44.7298 S.3       23 UNK        -0.2404 
     17 C17        -0.5982  -24.9501  -45.6483 C.3       23 UNK        -0.0398 
     18 CA          0.1722  -23.6021  -45.7326 C.3       11 UNK         0.1400 
     19 N           0.8237  -23.2155  -44.4748 N.am      11 UNK        -0.5000 
     20 C           1.7079  -23.9164  -43.7476 C.2       10 UNK         0.5000 
     21 O           2.1170  -25.0416  -44.0375 O.2       10 UNK        -0.5000 
     22 CA          2.2131  -23.2605  -42.4474 C.3       10 UNK         0.1400 
     23 CB          3.5727  -22.5838  -42.6806 C.3       10 UNK        -0.1800 
     24 N           1.2731  -22.2918  -41.8778 N.am      10 UNK        -0.5000 
     25 C           0.0856  -22.6095  -41.3411 C.2       9 UNK         0.5000 
     26 O          -0.3180  -23.7660  -41.2136 O.2       9 UNK        -0.5000 
     27 CA         -0.8076  -21.4457  -40.8721 C.3       9 UNK         0.1400 
     28 CB         -0.5132  -21.1025  -39.4040 C.3       9 UNK        -0.1800 
     29 N          -0.6682  -20.2386  -41.6886 N.am      9 UNK        -0.5000 
     30 C          -1.0562  -20.1261  -42.9673 C.2       8 UNK         0.5000 
     31 O          -1.5967  -21.0285  -43.6053 O.2       8 UNK        -0.5000 
     32 CA         -0.7427  -18.7905  -43.6663 C.3       8 UNK         0.1400 
     33 CB         -1.7424  -17.7001  -43.2516 C.3       8 UNK        -0.1800 
     34 N           0.6202  -18.3384  -43.3985 N.am      8 UNK        -0.5000 
     35 C           1.7231  -18.9890  -43.7954 C.2       7 UNK         0.5000 
     36 O           1.7056  -20.0155  -44.4748 O.2       7 UNK        -0.5000 
     37 CA          3.0676  -18.4177  -43.3142 C.3       7 UNK         0.1400 
     38 CB          3.5595  -17.3035  -44.2494 C.3       7 UNK        -0.1800 
     39 N           2.9876  -17.9093  -41.9440 N.am      7 UNK        -0.5000 
     40 C           2.8525  -18.6858  -40.8594 C.2       6 UNK         0.5000 
     41 O           2.8084  -19.9142  -40.8995 O.2       6 UNK        -0.5000 
     42 CA          2.6963  -17.9660  -39.5081 C.3       6 UNK         0.1400 
     43 CB          4.0642  -17.5294  -38.9627 C.3       6 UNK        -0.1800 
     44 N           1.8117  -16.8037  -39.5916 N.am      6 UNK        -0.5000 
     45 C           0.5004  -16.8682  -39.8625 C.2       5 UNK         0.5000 
     46 O          -0.1101  -17.9210  -40.0404 O.2       5 UNK        -0.5000 
     47 CA         -0.2437  -15.5284  -40.0059 C.3       5 UNK         0.1400 
     48 CB         -0.7584  -15.0482  -38.6409 C.3       5 UNK        -0.1800 
     49 N           0.5692  -14.4740  -40.6186 N.am      5 UNK        -0.5000 
     50 C           1.0671  -14.5254  -41.8603 C.2       4 UNK         0.5000 
     51 O           0.9382  -15.4941  -42.6136 O.2       4 UNK        -0.5000 
     52 CA          1.8776  -13.3097  -42.3275 C.3       4 UNK         0.1400 
     53 CB          3.3734  -13.6534  -42.4012 C.3       4 UNK        -0.1800 
     54 N           1.4079  -12.9131  -43.6501 N.am      4 UNK        -0.5000 
     55 C           0.4825  -11.9728  -43.8787 C.2       3 UNK         0.5000 
     56 O           0.0093  -11.2469  -43.0032 O.2       3 UNK        -0.5000 
     57 CA         -0.0094  -11.8270  -45.3319 C.3       3 UNK         0.1400 
     58 CB          0.8431  -10.7968  -46.0887 C.3       3 UNK        -0.1800 
     59 N          -0.0028  -13.0930  -46.0707 N.am      3 UNK        -0.5000 
     60 C          -0.8338  -14.1140  -45.8250 C.2       2 UNK         0.5000 
     61 O          -1.7179  -14.0923  -44.9636 O.2       2 UNK        -0.5000 
     62 CA         -0.6377  -15.3687  -46.6870 C.3       2 UNK         0.1400 
     63 CB          0.6515  -16.1146  -46.3070 C.3       2 UNK        -0.1800 
     64 N          -1.7949  -16.2335  -46.5040 N.am      2 UNK        -0.5000 
     65 C          -2.2163  -17.1844  -47.3424 C.2       1 UNK         0.5000 
     66 O          -1.5925  -17.5293  -48.3471 O.2       1 UNK        -0.5000 
     67 C           1.1329  -23.5772  -46.9415 C.2       11 UNK         0.5000 
     68 O           2.3479  -23.7272  -46.7977 O.2       11 UNK        -0.5000 
     69 N           0.5401  -23.3867  -48.1316 N.am      12 UNK        -0.5000 
     70 CA          1.1841  -23.3864  -49.4529 C.3       12 UNK         0.1400 
     71 CB          1.6828  -24.8023  -49.8097 C.3       12 UNK        -0.1800 
     72 C           2.2711  -22.3015  -49.6275 C.2       12 UNK         0.5000 
     73 O           3.2280  -22.5029  -50.3772 O.2       12 UNK        -0.5000 
     74 N           2.0938  -21.1690  -48.9336 N.am      13 UNK        -0.5000 
     75 CA          2.9345  -19.9781  -49.0227 C.3       13 UNK         0.1400 
     76 CB          2.8549  -19.2195  -47.6836 C.3       13 UNK        -0.1800 
     77 C           2.5094  -19.1409  -50.2456 C.2       13 UNK         0.5000 
     78 O           2.8454  -19.5033  -51.3737 O.2       13 UNK        -0.5000 
     79 N           1.7553  -18.0562  -50.0185 N.am      14 UNK        -0.5000 
     80 CA          1.1558  -17.2438  -51.0817 C.3       14 UNK         0.1400 
     81 CB          0.8107  -15.8553  -50.5235 C.3       14 UNK        -0.1800 
     82 C          -0.1003  -17.8998  -51.6877 C.2       14 UNK         0.5000 
     83 O          -0.4951  -17.5350  -52.7951 O.2       14 UNK        -0.5000 
     84 N          -0.7219  -18.8229  -50.9366 N.am      15 UNK        -0.5000 
     85 CA         -1.9478  -19.5593  -51.2591 C.3       15 UNK         0.1400 
     86 CB         -1.6839  -20.5699  -52.3892 C.3       15 UNK        -0.1800 
     87 C          -3.1339  -18.6158  -51.5435 C.2       15 UNK         0.5000 
     88 O          -3.8360  -18.7704  -52.5443 O.2       15 UNK        -0.5000 
     89 N          -3.2875  -17.6189  -50.6600 N.am      16 UNK        -0.5000 
     90 CA         -4.2570  -16.5191  -50.7171 C.3       16 UNK         0.1400 
     91 CB         -5.7003  -17.0524  -50.5869 C.3       16 UNK        -0.1800 
     92 C          -4.0493  -15.6291  -51.9601 C.2       16 UNK         0.5000 
     93 O          -5.0168  -15.2514  -52.6188 O.2       16 UNK        -0.5000 
     94 N          -2.7760  -15.3519  -52.2829 N.am      17 UNK        -0.5000 
     95 CA         -2.3042  -14.6743  -53.4990 C.3       17 UNK         0.1400 
     96 CB         -2.7238  -13.1896  -53.5043 C.3       17 UNK        -0.1800 
     97 C          -2.7253  -15.4361  -54.7748 C.2       17 UNK         0.5000 
     98 O          -3.2316  -14.8404  -55.7268 O.2       17 UNK        -0.5000 
     99 N          -2.5368  -16.7619  -54.7280 N.am      18 UNK        -0.5000 
    100 CA        -2.9049  -17.7766  -55.7186 C.3       18 UNK         0.1400 
    101 CB        -2.1473  -17.5553  -57.0434 C.3       18 UNK        -0.1800 
    102 C         -4.4232  -17.9646  -55.9375 C.2       18 UNK         0.5000 
    103 O         -4.8039  -18.7099  -56.8415 O.2       18 UNK        -0.5000 
    104 N         -5.2768  -17.3431  -55.1092 N.am      19 UNK        -0.5000 
    105 CA        -6.7324  -17.5205  -55.1584 C.3       19 UNK         0.1400 
    106 CB        -7.4229  -16.3866  -54.3875 C.3       19 UNK        -0.1800 
    107 C         -7.1854  -18.8905  -54.6172 C.2       19 UNK         0.5000 
    108 O         -8.2585  -19.3630  -54.9936 O.2       19 UNK        -0.5000 
    109 N         -6.3591  -19.5053  -53.7631 N.am      20 UNK        -0.5000 
    110 CA        -6.5526  -20.8312  -53.1856 C.3       20 UNK         0.1400 
    111 CB        -6.7828  -20.6831  -51.6697 C.3       20 UNK        -0.1800 
    112 C         -5.3395  -21.7193  -53.5182 C.2       20 UNK         0.5000 
    113 O         -4.8872  -22.4799  -52.6631 O.2       20 UNK        -0.5000 
    114 N         -4.8115  -21.5841  -54.7455 N.am      21 UNK        -0.5000 
    115 CA        -3.6522  -22.3158  -55.2604 C.3       21 UNK         0.1400 
    116 CB        -3.3483  -21.8524  -56.6933 C.3       21 UNK        -0.1800 
    117 C         -3.8386  -23.8440  -55.2088 C.2       21 UNK         0.5000 
    118 O         -4.8070  -24.3617  -55.7705 O.2       21 UNK        -0.5000 
    119 N         -2.9002  -24.5238  -54.5422 N.am      22 UNK        -0.5000 
    120 CA        -2.8883  -25.9844  -54.3570 C.3       22 UNK         0.1400 
    121 C         -2.1577  -26.7595  -55.4937 C.2       22 UNK         0.5000 
    122 N         -1.5537  -26.0998  -56.4750 N.am      22 UNK        -0.7600 
    123 O         -2.1495  -27.9875  -55.4947 O.2       22 UNK        -0.5000 
    124 C124       -2.3288  -26.3703  -52.9627 C.3       23 UNK        -0.0398 
    125 S125       -3.3900  -25.7842  -51.5965 S.3       23 UNK        -0.2404 
    126 C126       -2.3614  -24.4856  -50.8426 C.3       23 UNK        -0.0205 
    127 H127       -5.3290  -14.4420  -44.7235 H         1 UNK         0.0600 
    128 H128       -5.7106  -16.0681  -44.1501 H         1 UNK         0.0600 
    129 H129       -6.7943  -15.2563  -45.2840 H         1 UNK         0.0600 
    130 H130       -4.4555  -17.6251  -45.1334 H         1 UNK         0.3000 
    131 H131       -4.1445  -17.7891  -47.9732 H         1 UNK         0.0600 
    132 H132       -2.7875  -19.8527  -47.4754 H         1 UNK         0.0800 
    133 H133       -2.8967  -19.4960  -45.7714 H         1 UNK         0.0800 
    134 H134       -4.7360  -20.4148  -49.0168 H         1 UNK         0.0800 
    135 H135       -6.0990  -21.3455  -48.4486 H         1 UNK         0.0800 
    136 H136       -3.7517  -22.1843  -50.3369 H         1 UNK         0.1150 
    137 H137       -2.3459  -25.7618  -48.4537 H         1 UNK         0.1150 
    138 H138       -4.6160  -22.9221  -46.1971 H         1 UNK         0.1150 
    139 H139       -4.3662  -25.3607  -45.4884 H         1 UNK         0.0800 
    140 H140       -3.1557  -26.3521  -46.2549 H         1 UNK         0.0800 
    141 H141       -0.8179  -25.3418  -46.6406 H         1 UNK         0.0800 
    142 H142       -0.0067  -25.7316  -45.1734 H         1 UNK         0.0800 
    143 H143       -0.5555  -22.8102  -45.9210 H         1 UNK         0.0600 
    144 H144        0.5878  -22.2905  -44.1409 H         1 UNK         0.3000 
    145 H145        2.3562  -24.0575  -41.7148 H         1 UNK         0.0600 
    146 H146        3.9905  -22.2040  -41.7484 H         1 UNK         0.0600 
    147 H147        4.2943  -23.2894  -43.0939 H         1 UNK         0.0600 
    148 H148        3.4930  -21.7514  -43.3795 H         1 UNK         0.0600 
    149 H149        1.5693  -21.3227  -41.8695 H         1 UNK         0.3000 
    150 H150       -1.8452  -21.7787  -40.9424 H         1 UNK         0.0600 
    151 H151       -0.6220  -21.9806  -38.7662 H         1 UNK         0.0600 
    152 H152       -1.2008  -20.3430  -39.0315 H         1 UNK         0.0600 
    153 H153        0.5025  -20.7258  -39.2764 H         1 UNK         0.0600 
    154 H154       -0.2753  -19.4248  -41.2229 H         1 UNK         0.3000 
    155 H155       -0.8287  -18.9412  -44.7440 H         1 UNK         0.0600 
    156 H156       -1.7421  -17.5412  -42.1737 H         1 UNK         0.0600 
    157 H157       -2.7576  -17.9730  -43.5395 H         1 UNK         0.0600 
    158 H158       -1.5095  -16.7463  -43.7242 H         1 UNK         0.0600 
    159 H159        0.7248  -17.4666  -42.8890 H         1 UNK         0.3000 
    160 H160        3.8008  -19.2266  -43.3372 H         1 UNK         0.0600 
    161 H161        4.5391  -16.9363  -43.9436 H         1 UNK         0.0600 
    162 H162        2.8745  -16.4566  -44.2656 H         1 UNK         0.0600 
    163 H163        3.6543  -17.6668  -45.2726 H         1 UNK         0.0600 
    164 H164        2.9572  -16.9071  -41.8315 H         1 UNK         0.3000 
    165 H165        2.2577  -18.6751  -38.8025 H         1 UNK         0.0600 
    166 H166        3.9704  -17.0906  -37.9692 H         1 UNK         0.0600 
    167 H167        4.7398  -18.3817  -38.8777 H         1 UNK         0.0600 
    168 H168        4.5428  -16.7943  -39.6110 H         1 UNK         0.0600 
    169 H169        2.2319  -15.8959  -39.4593 H         1 UNK         0.3000 
    170 H170       -1.1060  -15.6993  -40.6533 H         1 UNK         0.0600 
    171 H171       -1.3844  -15.8080  -38.1709 H         1 UNK         0.0600 
    172 H172        0.0607  -14.8275  -37.9554 H         1 UNK         0.0600 
    173 H173       -1.3645  -14.1478  -38.7422 H         1 UNK         0.0600 
    174 H174        0.7236  -13.6458  -40.0617 H         1 UNK         0.3000 
    175 H175        1.7500  -12.4905  -41.6166 H         1 UNK         0.0600 
    176 H176        3.5729  -14.4565  -43.1105 H         1 UNK         0.0600 
    177 H177        3.9589  -12.7866  -42.7083 H         1 UNK         0.0600 
    178 H178        3.7507  -13.9715  -41.4285 H         1 UNK         0.0600 
    179 H179        1.6903  -13.5037  -44.4177 H         1 UNK         0.3000 
    180 H180       -1.0369  -11.4582  -45.2969 H         1 UNK         0.0600 
    181 H181        1.8820  -11.1177  -46.1747 H         1 UNK         0.0600 
    182 H182        0.8386   -9.8342  -45.5754 H         1 UNK         0.0600 
    183 H183        0.4582  -10.6284  -47.0946 H         1 UNK         0.0600 
    184 H184        0.6887  -13.1829  -46.8011 H         1 UNK         0.3000 
    185 H185       -0.5931  -15.0543  -47.7304 H         1 UNK         0.0600 
    186 H186        0.7514  -17.0442  -46.8634 H         1 UNK         0.0600 
    187 H187        1.5362  -15.5132  -46.5173 H         1 UNK         0.0600 
    188 H188        0.6629  -16.3564  -45.2458 H         1 UNK         0.0600 
    189 H189       -2.3864  -15.9559  -45.7301 H         1 UNK         0.3000 
    190 H190       -0.4623  -23.2583  -48.1470 H         1 UNK         0.3000 
    191 H191        0.4013  -23.1287  -50.1675 H         1 UNK         0.0600 
    192 H192        2.0158  -24.8518  -50.8471 H         1 UNK         0.0600 
    193 H193        0.8921  -25.5427  -49.6892 H         1 UNK         0.0600 
    194 H194        2.5218  -25.1044  -49.1822 H         1 UNK         0.0600 
    195 H195        1.2881  -21.1070  -48.3304 H         1 UNK         0.3000 
    196 H196        3.9742  -20.2742  -49.1775 H         1 UNK         0.0600 
    197 H197        3.3917  -18.2710  -47.7299 H         1 UNK         0.0600 
    198 H198        3.3094  -19.8051  -46.8839 H         1 UNK         0.0600 
    199 H199        1.8261  -19.0164  -47.3872 H         1 UNK         0.0600 
    200 H200        1.5254  -17.8055  -49.0684 H         1 UNK         0.3000 
    201 H201        1.8842  -17.1148  -51.8852 H         1 UNK         0.0600 
    202 H202        0.4479  -15.1964  -51.3133 H         1 UNK         0.0600 
    203 H203        0.0336  -15.9128  -49.7632 H         1 UNK         0.0600 
    204 H204        1.6840  -15.3777  -50.0791 H         1 UNK         0.0600 
    205 H205       -0.3523  -18.9787  -50.0101 H         1 UNK         0.3000 
    206 H206       -2.2129  -20.1246  -50.3647 H         1 UNK         0.0600 
    207 H207       -0.8199  -21.1959  -52.1665 H         1 UNK         0.0600 
    208 H208       -2.5391  -21.2316  -52.5090 H         1 UNK         0.0600 
    209 H209       -1.5056  -20.0764  -53.3450 H         1 UNK         0.0600 
    210 H210       -2.6137  -17.5712  -49.8993 H         1 UNK         0.3000 
    211 H211       -4.0590  -15.8851  -49.8521 H         1 UNK         0.0600 
    212 H212       -5.8141  -17.6843  -49.7067 H         1 UNK         0.0600 
    213 H213       -5.9994  -17.6363  -51.4571 H         1 UNK         0.0600 
    214 H214       -6.4100  -16.2304  -50.4879 H         1 UNK         0.0600 
    215 H215       -2.0524  -15.7475  -51.7016 H         1 UNK         0.3000 
    216 H216       -1.2141  -14.7081  -53.4692 H         1 UNK         0.0600 
    217 H217       -2.2737  -12.6616  -54.3457 H         1 UNK         0.0600 
    218 H218       -2.3992  -12.6856  -52.5941 H         1 UNK         0.0600 
    219 H219       -3.8045  -13.0711  -53.5863 H         1 UNK         0.0600 
    220 H220       -2.0709  -17.1295  -53.9029 H         1 UNK         0.3000 
    221 H221       -2.5559  -18.7212  -55.2994 H         1 UNK         0.0600 
    222 H222       -2.4883  -16.6584  -57.5608 H         1 UNK         0.0600 
    223 H223       -1.0751  -17.4585  -56.8726 H         1 UNK         0.0600 
    224 H224       -2.2903  -18.3963  -57.7228 H         1 UNK         0.0600 
    225 H225       -4.9119  -16.7481  -54.3763 H         1 UNK         0.3000 
    226 H226       -7.0484  -17.4550  -56.2017 H         1 UNK         0.0600 
    227 H227       -8.5033  -16.4219  -54.5319 H         1 UNK         0.0600 
    228 H228       -7.2379  -16.4574  -53.3156 H         1 UNK         0.0600 
    229 H229       -7.0802  -15.4085  -54.7259 H         1 UNK         0.0600 
    230 H230       -5.4808  -19.0559  -53.5129 H         1 UNK         0.3000 
    231 H231       -7.4265  -21.3199  -53.6201 H         1 UNK         0.0600 
    232 H232       -7.6444  -20.0486  -51.4623 H         1 UNK         0.0600 
    233 H233       -5.9165  -20.2411  -51.1774 H         1 UNK         0.0600 
    234 H234       -6.9711  -21.6503  -51.2021 H         1 UNK         0.0600 
    235 H235       -5.2504  -20.9356  -55.3832 H         1 UNK         0.3000 
    236 H236       -2.7946  -22.0500  -54.6423 H         1 UNK         0.0600 
    237 H237       -2.5160  -22.4138  -57.1197 H         1 UNK         0.0600 
    238 H238       -4.2076  -21.9878  -57.3513 H         1 UNK         0.0600 
    239 H239       -3.0690  -20.8000  -56.7174 H         1 UNK         0.0600 
    240 H240       -2.1382  -24.0205  -54.1142 H         1 UNK         0.3000 
    241 H241       -3.9195  -26.3412  -54.3935 H         1 UNK         0.0600 
    242 H242       -1.5577  -25.0932  -56.4972 H         1 UNK         0.3800 
    243 H243       -1.0906  -26.6154  -57.2073 H         1 UNK         0.3800 
    244 H244       -2.2636  -27.4552  -52.8627 H         1 UNK         0.0800 
    245 H245       -1.3112  -25.9967  -52.8390 H         1 UNK         0.0800 
    246 H246       -1.3592  -24.8747  -50.6610 H         1 UNK         0.0800 
    247 H247       -2.2586  -23.6550  -51.5423 H         1 UNK         0.0800 
@<TRIPOS>BOND
     1    1    2 1    
     2    1  127 1    
     3    1  128 1    
     4    1  129 1    
     5    2    3 2    
     6    2    4 am   BACKBONE|DICT|INTERRES
     7    4    5 1    
     8    4  130 1    
     9    5    6 1    
    10    5   65 1    
    11    5  131 1    
    12    6    7 1    
    13    6  132 1    
    14    6  133 1    
    15    7    8 1    
    16    8    9 1    
    17    8  134 1    
    18    8  135 1    
    19    9   10 ar   
    20    9   14 ar   
    21   10   11 ar   
    22   10  136 1    
    23   11   12 ar   
    24   11  126 1    
    25   12   13 ar   
    26   12  137 1    
    27   13   14 ar   
    28   13   15 1    
    29   14  138 1    
    30   15   16 1    
    31   15  139 1    
    32   15  140 1    
    33   16   17 1    
    34   17   18 1    
    35   17  141 1    
    36   17  142 1    
    37   18   19 1    
    38   18   67 1    
    39   18  143 1    
    40   19   20 am   BACKBONE|DICT|INTERRES
    41   19  144 1    
    42   20   21 2    
    43   20   22 1    
    44   22   23 1    
    45   22   24 1    
    46   22  145 1    
    47   23  146 1    
    48   23  147 1    
    49   23  148 1    
    50   24   25 am   BACKBONE|DICT|INTERRES
    51   24  149 1    
    52   25   26 2    
    53   25   27 1    
    54   27   28 1    
    55   27   29 1    
    56   27  150 1    
    57   28  151 1    
    58   28  152 1    
    59   28  153 1    
    60   29   30 am   BACKBONE|DICT|INTERRES
    61   29  154 1    
    62   30   31 2    
    63   30   32 1    
    64   32   33 1    
    65   32   34 1    
    66   32  155 1    
    67   33  156 1    
    68   33  157 1    
    69   33  158 1    
    70   34   35 am   BACKBONE|DICT|INTERRES
    71   34  159 1    
    72   35   36 2    
    73   35   37 1    
    74   37   38 1    
    75   37   39 1    
    76   37  160 1    
    77   38  161 1    
    78   38  162 1    
    79   38  163 1    
    80   39   40 am   BACKBONE|DICT|INTERRES
    81   39  164 1    
    82   40   41 2    
    83   40   42 1    
    84   42   43 1    
    85   42   44 1    
    86   42  165 1    
    87   43  166 1    
    88   43  167 1    
    89   43  168 1    
    90   44   45 am   BACKBONE|DICT|INTERRES
    91   44  169 1    
    92   45   46 2    
    93   45   47 1    
    94   47   48 1    
    95   47   49 1    
    96   47  170 1    
    97   48  171 1    
    98   48  172 1    
    99   48  173 1    
   100   49   50 am   BACKBONE|DICT|INTERRES
   101   49  174 1    
   102   50   51 2    
   103   50   52 1    
   104   52   53 1    
   105   52   54 1    
   106   52  175 1    
   107   53  176 1    
   108   53  177 1    
   109   53  178 1    
   110   54   55 am   BACKBONE|DICT|INTERRES
   111   54  179 1    
   112   55   56 2    
   113   55   57 1    
   114   57   58 1    
   115   57   59 1    
   116   57  180 1    
   117   58  181 1    
   118   58  182 1    
   119   58  183 1    
   120   59   60 am   BACKBONE|DICT|INTERRES
   121   59  184 1    
   122   60   61 2    
   123   60   62 1    
   124   62   63 1    
   125   62   64 1    
   126   62  185 1    
   127   63  186 1    
   128   63  187 1    
   129   63  188 1    
   130   64   65 am   BACKBONE|DICT|INTERRES
   131   64  189 1    
   132   65   66 2    
   133   67   68 2    
   134   67   69 am   BACKBONE|DICT|INTERRES
   135   69   70 1    
   136   69  190 1    
   137   70   71 1    
   138   70   72 1    
   139   70  191 1    
   140   71  192 1    
   141   71  193 1    
   142   71  194 1    
   143   72   73 2    
   144   72   74 am   BACKBONE|DICT|INTERRES
   145   74   75 1    
   146   74  195 1    
   147   75   76 1    
   148   75   77 1    
   149   75  196 1    
   150   76  197 1    
   151   76  198 1    
   152   76  199 1    
   153   77   78 2    
   154   77   79 am   BACKBONE|DICT|INTERRES
   155   79   80 1    
   156   79  200 1    
   157   80   81 1    
   158   80   82 1    
   159   80  201 1    
   160   81  202 1    
   161   81  203 1    
   162   81  204 1    
   163   82   83 2    
   164   82   84 am   BACKBONE|DICT|INTERRES
   165   84   85 1    
   166   84  205 1    
   167   85   86 1    
   168   85   87 1    
   169   85  206 1    
   170   86  207 1    
   171   86  208 1    
   172   86  209 1    
   173   87   88 2    
   174   87   89 am   BACKBONE|DICT|INTERRES
   175   89   90 1    
   176   89  210 1    
   177   90   91 1    
   178   90   92 1    
   179   90  211 1    
   180   91  212 1    
   181   91  213 1    
   182   91  214 1    
   183   92   93 2    
   184   92   94 am   BACKBONE|DICT|INTERRES
   185   94   95 1    
   186   94  215 1    
   187   95   96 1    
   188   95   97 1    
   189   95  216 1    
   190   96  217 1    
   191   96  218 1    
   192   96  219 1    
   193   97   98 2    
   194   97   99 am   BACKBONE|DICT|INTERRES
   195   99  100 1    
   196   99  220 1    
   197  100  101 1    
   198  100  102 1    
   199  100  221 1    
   200  101  222 1    
   201  101  223 1    
   202  101  224 1    
   203  102  103 2    
   204  102  104 am   BACKBONE|DICT|INTERRES
   205  104  105 1    
   206  104  225 1    
   207  105  106 1    
   208  105  107 1    
   209  105  226 1    
   210  106  227 1    
   211  106  228 1    
   212  106  229 1    
   213  107  108 2    
   214  107  109 am   BACKBONE|DICT|INTERRES
   215  109  110 1    
   216  109  230 1    
   217  110  111 1    
   218  110  112 1    
   219  110  231 1    
   220  111  232 1    
   221  111  233 1    
   222  111  234 1    
   223  112  113 2    
   224  112  114 am   BACKBONE|DICT|INTERRES
   225  114  115 1    
   226  114  235 1    
   227  115  116 1    
   228  115  117 1    
   229  115  236 1    
   230  116  237 1    
   231  116  238 1    
   232  116  239 1    
   233  117  118 2    
   234  117  119 am   BACKBONE|DICT|INTERRES
   235  119  120 1    
   236  119  240 1    
   237  120  121 1    
   238  120  124 1    
   239  120  241 1    
   240  121  122 am   BACKBONE|DICT|INTERRES
   241  121  123 2    
   242  122  242 1    
   243  122  243 1    
   244  124  125 1    
   245  124  244 1    
   246  124  245 1    
   247  125  126 1    
   248  126  246 1    
   249  126  247 1    
@<TRIPOS>SUBSTRUCTURE
     1 UNK         1 GROUP             0       ****    0 ROOT    
