@<TRIPOS>MOLECULE
3R540
247   249    1
SMALL
USER_CHARGES


@<TRIPOS>ATOM
      1 CA          0.0472  -11.5027  -49.2133 C.3       0 UNK        -0.1800 
      2 C           1.3298  -12.1731  -49.6808 C.2       0 UNK         0.5000 
      3 O           1.8465  -13.0608  -49.0032 O.2       0 UNK        -0.5000 
      4 N           1.8511  -11.7400  -50.8356 N.am      1 UNK        -0.5000 
      5 CA          3.0915  -12.2295  -51.4559 C.3       1 UNK         0.1400 
      6 C6          2.9990  -13.7134  -51.9244 C.3       23 UNK        -0.0398 
      7 S7          1.5643  -14.0376  -53.0042 S.3       23 UNK        -0.2404 
      8 C8          1.3790  -15.8452  -52.8145 C.3       23 UNK        -0.0205 
      9 C9          0.9568  -16.3175  -51.4219 C.ar      23 UNK        -0.0193 
     10 C10         0.1227  -15.5598  -50.5896 C.ar      23 UNK        -0.1150 
     11 C11        -0.2136  -16.0143  -49.3085 C.ar      23 UNK        -0.0193 
     12 C12         0.2657  -17.2534  -48.8763 C.ar      23 UNK        -0.1150 
     13 C13         1.0925  -18.0321  -49.6970 C.ar      23 UNK        -0.0193 
     14 C14         1.4269  -17.5511  -50.9651 C.ar      23 UNK        -0.1150 
     15 C15         1.7033  -19.3641  -49.2567 C.3       23 UNK        -0.0205 
     16 S16         1.2097  -19.9657  -47.6068 S.3       23 UNK        -0.2404 
     17 C17        -0.3513  -20.8462  -47.9586 C.3       23 UNK        -0.0398 
     18 CA         -0.3631  -22.2252  -47.2597 C.3       11 UNK         0.1400 
     19 N          -0.2920  -22.1167  -45.8012 N.am      11 UNK        -0.5000 
     20 C          -0.0900  -23.1448  -44.9675 C.2       10 UNK         0.5000 
     21 O           0.1101  -24.2998  -45.3430 O.2       10 UNK        -0.5000 
     22 CA         -0.1902  -22.8375  -43.4650 C.3       10 UNK         0.1400 
     23 CB          1.1397  -22.2922  -42.9228 C.3       10 UNK        -0.1800 
     24 N          -1.2675  -21.8851  -43.1912 N.am      10 UNK        -0.5000 
     25 C          -2.5702  -22.1986  -43.2189 C.2       9 UNK         0.5000 
     26 O          -2.9892  -23.3390  -43.4189 O.2       9 UNK        -0.5000 
     27 CA         -3.5724  -21.0437  -43.0203 C.3       9 UNK         0.1400 
     28 CB         -3.8208  -20.7964  -41.5251 C.3       9 UNK        -0.1800 
     29 N          -3.1473  -19.7921  -43.6517 N.am      9 UNK        -0.5000 
     30 C          -3.0542  -19.6068  -44.9760 C.2       8 UNK         0.5000 
     31 O          -3.3360  -20.4706  -45.8035 O.2       8 UNK        -0.5000 
     32 CA         -2.4993  -18.2535  -45.4628 C.3       8 UNK         0.1400 
     33 CB         -3.6337  -17.2308  -45.6160 C.3       8 UNK        -0.1800 
     34 N          -1.4390  -17.6887  -44.6203 N.am      8 UNK        -0.5000 
     35 C          -0.3119  -18.3244  -44.2604 C.2       7 UNK         0.5000 
     36 O          -0.0895  -19.5049  -44.5256 O.2       7 UNK        -0.5000 
     37 CA          0.7502  -17.5385  -43.4721 C.3       7 UNK         0.1400 
     38 CB          2.0286  -17.3967  -44.3093 C.3       7 UNK        -0.1800 
     39 N           0.2983  -16.2104  -43.0562 N.am      7 UNK        -0.5000 
     40 C          -0.4250  -15.9693  -41.9527 C.2       6 UNK         0.5000 
     41 O          -0.7851  -16.8519  -41.1731 O.2       6 UNK        -0.5000 
     42 CA         -0.8270  -14.5066  -41.6681 C.3       6 UNK         0.1400 
     43 CB          0.1389  -13.8739  -40.6547 C.3       6 UNK        -0.1800 
     44 N          -0.8732  -13.6640  -42.8639 N.am      6 UNK        -0.5000 
     45 C          -1.7346  -13.8168  -43.8786 C.2       5 UNK         0.5000 
     46 O          -2.6309  -14.6593  -43.8863 O.2       5 UNK        -0.5000 
     47 CA         -1.5329  -12.9112  -45.1101 C.3       5 UNK         0.1400 
     48 CB         -2.4849  -11.7078  -45.0588 C.3       5 UNK        -0.1800 
     49 N          -0.1579  -12.4286  -45.2930 N.am      5 UNK        -0.5000 
     50 C           0.9129  -13.2127  -45.4795 C.2       4 UNK         0.5000 
     51 O           0.8610  -14.4429  -45.4296 O.2       4 UNK        -0.5000 
     52 CA          2.2421  -12.4853  -45.7533 C.3       4 UNK         0.1400 
     53 CB          2.8619  -11.9172  -44.4609 C.3       4 UNK        -0.1800 
     54 N           3.1770  -13.3234  -46.5096 N.am      4 UNK        -0.5000 
     55 C           3.9220  -14.3572  -46.0913 C.2       3 UNK         0.5000 
     56 O           4.0810  -14.6791  -44.9136 O.2       3 UNK        -0.5000 
     57 CA          4.6260  -15.1735  -47.1920 C.3       3 UNK         0.1400 
     58 CB          3.6990  -16.2787  -47.7231 C.3       3 UNK        -0.1800 
     59 N           5.0673  -14.3568  -48.3227 N.am      3 UNK        -0.5000 
     60 C           6.1136  -13.5180  -48.3101 C.2       2 UNK         0.5000 
     61 O           6.8152  -13.3180  -47.3180 O.2       2 UNK        -0.5000 
     62 CA          6.4546  -12.8015  -49.6345 C.3       2 UNK         0.1400 
     63 CB          7.6698  -13.4633  -50.3034 C.3       2 UNK        -0.1800 
     64 N           5.3340  -12.8125  -50.5789 N.am      2 UNK        -0.5000 
     65 C           4.3123  -11.9463  -50.5404 C.2       1 UNK         0.5000 
     66 O           4.3066  -10.9539  -49.8065 O.2       1 UNK        -0.5000 
     67 C          -1.5615  -23.0874  -47.7024 C.2       11 UNK         0.5000 
     68 O          -1.3999  -23.9117  -48.5984 O.2       11 UNK        -0.5000 
     69 N          -2.7151  -22.9440  -47.0330 N.am      12 UNK        -0.5000 
     70 CA         -3.8994  -23.7828  -47.2286 C.3       12 UNK         0.1400 
     71 CB         -5.0807  -23.2155  -46.4295 C.3       12 UNK        -0.1800 
     72 C          -3.6672  -25.2543  -46.8485 C.2       12 UNK         0.5000 
     73 O          -4.1730  -26.1398  -47.5362 O.2       12 UNK        -0.5000 
     74 N          -2.8986  -25.5014  -45.7799 N.am      13 UNK        -0.5000 
     75 CA         -2.5050  -26.8481  -45.3643 C.3       13 UNK         0.1400 
     76 CB         -1.8936  -26.8025  -43.9557 C.3       13 UNK        -0.1800 
     77 C          -1.5435  -27.5070  -46.3721 C.2       13 UNK         0.5000 
     78 O          -1.6983  -28.6907  -46.6734 O.2       13 UNK        -0.5000 
     79 N          -0.5903  -26.7223  -46.8927 N.am      14 UNK        -0.5000 
     80 CA          0.3874  -27.1494  -47.8925 C.3       14 UNK         0.1400 
     81 CB          1.5127  -26.1065  -47.9783 C.3       14 UNK        -0.1800 
     82 C          -0.2350  -27.3971  -49.2799 C.2       14 UNK         0.5000 
     83 O           0.0509  -28.4229  -49.8986 O.2       14 UNK        -0.5000 
     84 N          -1.0657  -26.4556  -49.7472 N.am      15 UNK        -0.5000 
     85 CA         -1.6869  -26.4758  -51.0744 C.3       15 UNK         0.1400 
     86 CB         -2.0194  -25.0336  -51.4918 C.3       15 UNK        -0.1800 
     87 C          -2.9396  -27.3689  -51.1679 C.2       15 UNK         0.5000 
     88 O          -3.3993  -27.6211  -52.2824 O.2       15 UNK        -0.5000 
     89 N          -3.4592  -27.8254  -50.0179 N.am      16 UNK        -0.5000 
     90 CA         -4.7003  -28.5845  -49.8347 C.3       16 UNK         0.1400 
     91 CB         -4.6525  -29.9451  -50.5620 C.3       16 UNK        -0.1800 
     92 C          -5.9242  -27.7262  -50.2099 C.2       16 UNK         0.5000 
     93 O          -6.5573  -27.9489  -51.2438 O.2       16 UNK        -0.5000 
     94 N          -6.1939  -26.7401  -49.3459 N.am      17 UNK        -0.5000 
     95 CA         -7.1397  -25.6311  -49.4852 C.3       17 UNK         0.1400 
     96 CB         -8.5668  -26.1088  -49.8368 C.3       17 UNK        -0.1800 
     97 C          -6.5841  -24.5432  -50.4257 C.2       17 UNK         0.5000 
     98 O          -5.3682  -24.4595  -50.6113 O.2       17 UNK        -0.5000 
     99 N          -7.4685  -23.6799  -50.9434 N.am      18 UNK        -0.5000 
    100 CA        -7.2241  -22.5188  -51.8146 C.3       18 UNK         0.1400 
    101 CB        -6.5443  -22.9323  -53.1347 C.3       18 UNK        -0.1800 
    102 C         -6.4698  -21.3489  -51.1474 C.2       18 UNK         0.5000 
    103 O         -6.8657  -20.2016  -51.3472 O.2       18 UNK        -0.5000 
    104 N         -5.4232  -21.6584  -50.3682 N.am      19 UNK        -0.5000 
    105 CA        -4.5339  -20.7443  -49.6374 C.3       19 UNK         0.1400 
    106 CB        -5.3175  -19.8952  -48.6148 C.3       19 UNK        -0.1800 
    107 C         -3.6345  -19.8895  -50.5554 C.2       19 UNK         0.5000 
    108 O         -3.2099  -18.8041  -50.1572 O.2       19 UNK        -0.5000 
    109 N         -3.3454  -20.4031  -51.7616 N.am      20 UNK        -0.5000 
    110 CA        -2.5895  -19.7500  -52.8363 C.3       20 UNK         0.1400 
    111 CB        -1.1106  -19.5656  -52.4281 C.3       20 UNK        -0.1800 
    112 C         -3.2887  -18.4527  -53.3012 C.2       20 UNK         0.5000 
    113 O         -4.5111  -18.4571  -53.4622 O.2       20 UNK        -0.5000 
    114 N         -2.5333  -17.3615  -53.4951 N.am      21 UNK        -0.5000 
    115 CA        -3.0685  -16.0438  -53.8634 C.3       21 UNK         0.1400 
    116 CB        -1.9154  -15.1019  -54.2335 C.3       21 UNK        -0.1800 
    117 C         -3.9365  -15.4084  -52.7589 C.2       21 UNK         0.5000 
    118 O         -4.7932  -14.5781  -53.0649 O.2       21 UNK        -0.5000 
    119 N         -3.7155  -15.8285  -51.5080 N.am      22 UNK        -0.5000 
    120 CA        -4.5444  -15.4904  -50.3439 C.3       22 UNK         0.1400 
    121 C         -5.8404  -16.3487  -50.2277 C.2       22 UNK         0.5000 
    122 N         -6.1142  -17.2792  -51.1348 N.am      22 UNK        -0.7600 
    123 O         -6.6240  -16.1555  -49.3022 O.2       22 UNK        -0.5000 
    124 C124       -3.7139  -15.5186  -49.0352 C.3       23 UNK        -0.0398 
    125 S125       -2.4077  -14.2456  -49.0389 S.3       23 UNK        -0.2404 
    126 C126       -0.9868  -15.1375  -48.3276 C.3       23 UNK        -0.0205 
    127 H127       -0.7566  -11.6837  -49.9269 H         1 UNK         0.0600 
    128 H128        0.1905  -10.4268  -49.1144 H         1 UNK         0.0600 
    129 H129       -0.2650  -11.8944  -48.2455 H         1 UNK         0.0600 
    130 H130        1.3900  -10.9905  -51.3308 H         1 UNK         0.3000 
    131 H131        3.2434  -11.6148  -52.3442 H         1 UNK         0.0600 
    132 H132        2.9485  -14.3816  -51.0634 H         1 UNK         0.0800 
    133 H133        3.8871  -13.9983  -52.4900 H         1 UNK         0.0800 
    134 H134        0.6502  -16.2060  -53.5388 H         1 UNK         0.0800 
    135 H135        2.3282  -16.3065  -53.0921 H         1 UNK         0.0800 
    136 H136       -0.2341  -14.5950  -50.9186 H         1 UNK         0.1150 
    137 H137        0.0216  -17.5807  -47.8770 H         1 UNK         0.1150 
    138 H138        2.0737  -18.1415  -51.5991 H         1 UNK         0.1150 
    139 H139        1.4916  -20.1298  -50.0043 H         1 UNK         0.0800 
    140 H140        2.7873  -19.2435  -49.2459 H         1 UNK         0.0800 
    141 H141       -0.4669  -20.9627  -49.0376 H         1 UNK         0.0800 
    142 H142       -1.1889  -20.2324  -47.6277 H         1 UNK         0.0800 
    143 H143        0.5333  -22.7606  -47.5806 H         1 UNK         0.0600 
    144 H144       -0.3780  -21.1829  -45.4085 H         1 UNK         0.3000 
    145 H145       -0.4093  -23.7721  -42.9442 H         1 UNK         0.0600 
    146 H146        1.0777  -22.0947  -41.8527 H         1 UNK         0.0600 
    147 H147        1.9439  -23.0133  -43.0746 H         1 UNK         0.0600 
    148 H148        1.4345  -21.3670  -43.4184 H         1 UNK         0.0600 
    149 H149       -1.0006  -20.9122  -43.1202 H         1 UNK         0.3000 
    150 H150       -4.5175  -21.3468  -43.4763 H         1 UNK         0.0600 
    151 H151       -4.5930  -20.0420  -41.3732 H         1 UNK         0.0600 
    152 H152       -4.1565  -21.7081  -41.0291 H         1 UNK         0.0600 
    153 H153       -2.9167  -20.4592  -41.0165 H         1 UNK         0.0600 
    154 H154       -2.8781  -19.0359  -43.0393 H         1 UNK         0.3000 
    155 H155       -2.0654  -18.4164  -46.4505 H         1 UNK         0.0600 
    156 H156       -4.0914  -16.9929  -44.6550 H         1 UNK         0.0600 
    157 H157       -4.4202  -17.6086  -46.2702 H         1 UNK         0.0600 
    158 H158       -3.2708  -16.3003  -46.0515 H         1 UNK         0.0600 
    159 H159       -1.5559  -16.7250  -44.3368 H         1 UNK         0.3000 
    160 H160        0.9965  -18.1264  -42.5855 H         1 UNK         0.0600 
    161 H161        1.8365  -16.8576  -45.2364 H         1 UNK         0.0600 
    162 H162        2.4336  -18.3731  -44.5790 H         1 UNK         0.0600 
    163 H163        2.8043  -16.8620  -43.7615 H         1 UNK         0.0600 
    164 H164        0.5275  -15.4465  -43.6847 H         1 UNK         0.3000 
    165 H165       -1.8261  -14.5212  -41.2276 H         1 UNK         0.0600 
    166 H166       -0.1780  -12.8671  -40.3820 H         1 UNK         0.0600 
    167 H167        0.1803  -14.4599  -39.7355 H         1 UNK         0.0600 
    168 H168        1.1534  -13.8123  -41.0508 H         1 UNK         0.0600 
    169 H169       -0.1634  -12.9515  -42.9455 H         1 UNK         0.3000 
    170 H170       -1.7907  -13.5068  -45.9875 H         1 UNK         0.0600 
    171 H171       -3.5204  -12.0330  -44.9486 H         1 UNK         0.0600 
    172 H172       -2.2561  -11.0490  -44.2202 H         1 UNK         0.0600 
    173 H173       -2.4275  -11.1204  -45.9755 H         1 UNK         0.0600 
    174 H174       -0.0408  -11.4261  -45.3269 H         1 UNK         0.3000 
    175 H175        2.0201  -11.6447  -46.4124 H         1 UNK         0.0600 
    176 H176        2.9823  -12.6819  -43.6930 H         1 UNK         0.0600 
    177 H177        3.8391  -11.4738  -44.6523 H         1 UNK         0.0600 
    178 H178        2.2289  -11.1367  -44.0378 H         1 UNK         0.0600 
    179 H179        3.0610  -13.2326  -47.5153 H         1 UNK         0.3000 
    180 H180        5.5043  -15.6483  -46.7496 H         1 UNK         0.0600 
    181 H181        2.7744  -15.8655  -48.1294 H         1 UNK         0.0600 
    182 H182        3.4276  -16.9765  -46.9315 H         1 UNK         0.0600 
    183 H183        4.1800  -16.8598  -48.5099 H         1 UNK         0.0600 
    184 H184        4.5279  -14.4390  -49.1701 H         1 UNK         0.3000 
    185 H185        6.7208  -11.7697  -49.3949 H         1 UNK         0.0600 
    186 H186        8.5364  -13.4487  -49.6412 H         1 UNK         0.0600 
    187 H187        7.4716  -14.5045  -50.5612 H         1 UNK         0.0600 
    188 H188        7.9518  -12.9384  -51.2163 H         1 UNK         0.0600 
    189 H189        5.3122  -13.5800  -51.2340 H         1 UNK         0.3000 
    190 H190       -2.8023  -22.1895  -46.3568 H         1 UNK         0.3000 
    191 H191       -4.1553  -23.7524  -48.2888 H         1 UNK         0.0600 
    192 H192       -5.2787  -22.1798  -46.6944 H         1 UNK         0.0600 
    193 H193       -5.9922  -23.7818  -46.6233 H         1 UNK         0.0600 
    194 H194       -4.8948  -23.2499  -45.3560 H         1 UNK         0.0600 
    195 H195       -2.5453  -24.7256  -45.2349 H         1 UNK         0.3000 
    196 H196       -3.4070  -27.4621  -45.3160 H         1 UNK         0.0600 
    197 H197       -1.6587  -27.8072  -43.6025 H         1 UNK         0.0600 
    198 H198       -2.5861  -26.3589  -43.2399 H         1 UNK         0.0600 
    199 H199       -0.9708  -26.2241  -43.9293 H         1 UNK         0.0600 
    200 H200       -0.5035  -25.7721  -46.5454 H         1 UNK         0.3000 
    201 H201        0.8271  -28.0897  -47.5530 H         1 UNK         0.0600 
    202 H202        2.0056  -25.9789  -47.0143 H         1 UNK         0.0600 
    203 H203        1.1371  -25.1319  -48.2913 H         1 UNK         0.0600 
    204 H204        2.2747  -26.4115  -48.6965 H         1 UNK         0.0600 
    205 H205       -1.2240  -25.6143  -49.1947 H         1 UNK         0.3000 
    206 H206       -0.9613  -26.8678  -51.7902 H         1 UNK         0.0600 
    207 H207       -1.1265  -24.4083  -51.4995 H         1 UNK         0.0600 
    208 H208       -2.4491  -25.0010  -52.4936 H         1 UNK         0.0600 
    209 H209       -2.7400  -24.5782  -50.8129 H         1 UNK         0.0600 
    210 H210       -3.0212  -27.5086  -49.1633 H         1 UNK         0.3000 
    211 H211       -4.7730  -28.7955  -48.7664 H         1 UNK         0.0600 
    212 H212       -4.6198  -29.8365  -51.6460 H         1 UNK         0.0600 
    213 H213       -5.5359  -30.5385  -50.3244 H         1 UNK         0.0600 
    214 H214       -3.7803  -30.5231  -50.2568 H         1 UNK         0.0600 
    215 H215       -5.5199  -26.6118  -48.5916 H         1 UNK         0.3000 
    216 H216       -7.1876  -25.1718  -48.4971 H         1 UNK         0.0600 
    217 H217       -9.3004  -25.3205  -49.6664 H         1 UNK         0.0600 
    218 H218       -8.8619  -26.9553  -49.2167 H         1 UNK         0.0600 
    219 H219       -8.6509  -26.4136  -50.8804 H         1 UNK         0.0600 
    220 H220       -8.4385  -23.8151  -50.6948 H         1 UNK         0.3000 
    221 H221       -8.2142  -22.1380  -52.0703 H         1 UNK         0.0600 
    222 H222       -5.5335  -23.3094  -52.9776 H         1 UNK         0.0600 
    223 H223       -7.1152  -23.7079  -53.6452 H         1 UNK         0.0600 
    224 H224       -6.4701  -22.0825  -53.8145 H         1 UNK         0.0600 
    225 H225       -5.1908  -22.6479  -50.3139 H         1 UNK         0.3000 
    226 H226       -3.8525  -21.3797  -49.0733 H         1 UNK         0.0600 
    227 H227       -5.9801  -20.5072  -48.0060 H         1 UNK         0.0600 
    228 H228       -4.6373  -19.3756  -47.9406 H         1 UNK         0.0600 
    229 H229       -5.9310  -19.1383  -49.0996 H         1 UNK         0.0600 
    230 H230       -3.7717  -21.2855  -52.0026 H         1 UNK         0.3000 
    231 H231       -2.6156  -20.4307  -53.6881 H         1 UNK         0.0600 
    232 H232       -1.0019  -18.8479  -51.6152 H         1 UNK         0.0600 
    233 H233       -0.5050  -19.2173  -53.2654 H         1 UNK         0.0600 
    234 H234       -0.6775  -20.5079  -52.0927 H         1 UNK         0.0600 
    235 H235       -1.5398  -17.4210  -53.3287 H         1 UNK         0.3000 
    236 H236       -3.6983  -16.1738  -54.7460 H         1 UNK         0.0600 
    237 H237       -1.2676  -15.5380  -54.9939 H         1 UNK         0.0600 
    238 H238       -2.2968  -14.1616  -54.6332 H         1 UNK         0.0600 
    239 H239       -1.3098  -14.8575  -53.3613 H         1 UNK         0.0600 
    240 H240       -3.0119  -16.5360  -51.3483 H         1 UNK         0.3000 
    241 H241       -4.8996  -14.4664  -50.4735 H         1 UNK         0.0600 
    242 H242       -5.4708  -17.4817  -51.8894 H         1 UNK         0.3800 
    243 H243       -6.9268  -17.8672  -51.0265 H         1 UNK         0.3800 
    244 H244       -4.3481  -15.3270  -48.1683 H         1 UNK         0.0800 
    245 H245       -3.2735  -16.5045  -48.8814 H         1 UNK         0.0800 
    246 H246       -0.2876  -14.3987  -47.9389 H         1 UNK         0.0800 
    247 H247       -1.3220  -15.7151  -47.4652 H         1 UNK         0.0800 
@<TRIPOS>BOND
     1    1    2 1    
     2    1  127 1    
     3    1  128 1    
     4    1  129 1    
     5    2    3 2    
     6    2    4 am   BACKBONE|DICT|INTERRES
     7    4    5 1    
     8    4  130 1    
     9    5    6 1    
    10    5   65 1    
    11    5  131 1    
    12    6    7 1    
    13    6  132 1    
    14    6  133 1    
    15    7    8 1    
    16    8    9 1    
    17    8  134 1    
    18    8  135 1    
    19    9   10 ar   
    20    9   14 ar   
    21   10   11 ar   
    22   10  136 1    
    23   11   12 ar   
    24   11  126 1    
    25   12   13 ar   
    26   12  137 1    
    27   13   14 ar   
    28   13   15 1    
    29   14  138 1    
    30   15   16 1    
    31   15  139 1    
    32   15  140 1    
    33   16   17 1    
    34   17   18 1    
    35   17  141 1    
    36   17  142 1    
    37   18   19 1    
    38   18   67 1    
    39   18  143 1    
    40   19   20 am   BACKBONE|DICT|INTERRES
    41   19  144 1    
    42   20   21 2    
    43   20   22 1    
    44   22   23 1    
    45   22   24 1    
    46   22  145 1    
    47   23  146 1    
    48   23  147 1    
    49   23  148 1    
    50   24   25 am   BACKBONE|DICT|INTERRES
    51   24  149 1    
    52   25   26 2    
    53   25   27 1    
    54   27   28 1    
    55   27   29 1    
    56   27  150 1    
    57   28  151 1    
    58   28  152 1    
    59   28  153 1    
    60   29   30 am   BACKBONE|DICT|INTERRES
    61   29  154 1    
    62   30   31 2    
    63   30   32 1    
    64   32   33 1    
    65   32   34 1    
    66   32  155 1    
    67   33  156 1    
    68   33  157 1    
    69   33  158 1    
    70   34   35 am   BACKBONE|DICT|INTERRES
    71   34  159 1    
    72   35   36 2    
    73   35   37 1    
    74   37   38 1    
    75   37   39 1    
    76   37  160 1    
    77   38  161 1    
    78   38  162 1    
    79   38  163 1    
    80   39   40 am   BACKBONE|DICT|INTERRES
    81   39  164 1    
    82   40   41 2    
    83   40   42 1    
    84   42   43 1    
    85   42   44 1    
    86   42  165 1    
    87   43  166 1    
    88   43  167 1    
    89   43  168 1    
    90   44   45 am   BACKBONE|DICT|INTERRES
    91   44  169 1    
    92   45   46 2    
    93   45   47 1    
    94   47   48 1    
    95   47   49 1    
    96   47  170 1    
    97   48  171 1    
    98   48  172 1    
    99   48  173 1    
   100   49   50 am   BACKBONE|DICT|INTERRES
   101   49  174 1    
   102   50   51 2    
   103   50   52 1    
   104   52   53 1    
   105   52   54 1    
   106   52  175 1    
   107   53  176 1    
   108   53  177 1    
   109   53  178 1    
   110   54   55 am   BACKBONE|DICT|INTERRES
   111   54  179 1    
   112   55   56 2    
   113   55   57 1    
   114   57   58 1    
   115   57   59 1    
   116   57  180 1    
   117   58  181 1    
   118   58  182 1    
   119   58  183 1    
   120   59   60 am   BACKBONE|DICT|INTERRES
   121   59  184 1    
   122   60   61 2    
   123   60   62 1    
   124   62   63 1    
   125   62   64 1    
   126   62  185 1    
   127   63  186 1    
   128   63  187 1    
   129   63  188 1    
   130   64   65 am   BACKBONE|DICT|INTERRES
   131   64  189 1    
   132   65   66 2    
   133   67   68 2    
   134   67   69 am   BACKBONE|DICT|INTERRES
   135   69   70 1    
   136   69  190 1    
   137   70   71 1    
   138   70   72 1    
   139   70  191 1    
   140   71  192 1    
   141   71  193 1    
   142   71  194 1    
   143   72   73 2    
   144   72   74 am   BACKBONE|DICT|INTERRES
   145   74   75 1    
   146   74  195 1    
   147   75   76 1    
   148   75   77 1    
   149   75  196 1    
   150   76  197 1    
   151   76  198 1    
   152   76  199 1    
   153   77   78 2    
   154   77   79 am   BACKBONE|DICT|INTERRES
   155   79   80 1    
   156   79  200 1    
   157   80   81 1    
   158   80   82 1    
   159   80  201 1    
   160   81  202 1    
   161   81  203 1    
   162   81  204 1    
   163   82   83 2    
   164   82   84 am   BACKBONE|DICT|INTERRES
   165   84   85 1    
   166   84  205 1    
   167   85   86 1    
   168   85   87 1    
   169   85  206 1    
   170   86  207 1    
   171   86  208 1    
   172   86  209 1    
   173   87   88 2    
   174   87   89 am   BACKBONE|DICT|INTERRES
   175   89   90 1    
   176   89  210 1    
   177   90   91 1    
   178   90   92 1    
   179   90  211 1    
   180   91  212 1    
   181   91  213 1    
   182   91  214 1    
   183   92   93 2    
   184   92   94 am   BACKBONE|DICT|INTERRES
   185   94   95 1    
   186   94  215 1    
   187   95   96 1    
   188   95   97 1    
   189   95  216 1    
   190   96  217 1    
   191   96  218 1    
   192   96  219 1    
   193   97   98 2    
   194   97   99 am   BACKBONE|DICT|INTERRES
   195   99  100 1    
   196   99  220 1    
   197  100  101 1    
   198  100  102 1    
   199  100  221 1    
   200  101  222 1    
   201  101  223 1    
   202  101  224 1    
   203  102  103 2    
   204  102  104 am   BACKBONE|DICT|INTERRES
   205  104  105 1    
   206  104  225 1    
   207  105  106 1    
   208  105  107 1    
   209  105  226 1    
   210  106  227 1    
   211  106  228 1    
   212  106  229 1    
   213  107  108 2    
   214  107  109 am   BACKBONE|DICT|INTERRES
   215  109  110 1    
   216  109  230 1    
   217  110  111 1    
   218  110  112 1    
   219  110  231 1    
   220  111  232 1    
   221  111  233 1    
   222  111  234 1    
   223  112  113 2    
   224  112  114 am   BACKBONE|DICT|INTERRES
   225  114  115 1    
   226  114  235 1    
   227  115  116 1    
   228  115  117 1    
   229  115  236 1    
   230  116  237 1    
   231  116  238 1    
   232  116  239 1    
   233  117  118 2    
   234  117  119 am   BACKBONE|DICT|INTERRES
   235  119  120 1    
   236  119  240 1    
   237  120  121 1    
   238  120  124 1    
   239  120  241 1    
   240  121  122 am   BACKBONE|DICT|INTERRES
   241  121  123 2    
   242  122  242 1    
   243  122  243 1    
   244  124  125 1    
   245  124  244 1    
   246  124  245 1    
   247  125  126 1    
   248  126  246 1    
   249  126  247 1    
@<TRIPOS>SUBSTRUCTURE
     1 UNK         1 GROUP             0       ****    0 ROOT    
