@<TRIPOS>MOLECULE
3R540
247   249    1
SMALL
USER_CHARGES


@<TRIPOS>ATOM
      1 CA         -4.9547  -16.6931  -45.8495 C.3       0 UNK        -0.1800 
      2 C          -3.7074  -15.9207  -45.4455 C.2       0 UNK         0.5000 
      3 O          -3.8009  -14.9360  -44.7134 O.2       0 UNK        -0.5000 
      4 N          -2.5288  -16.3804  -45.8881 N.am      1 UNK        -0.5000 
      5 CA         -1.2216  -15.7349  -45.6761 C.3       1 UNK         0.1400 
      6 C6         -0.1509  -16.2640  -46.6615 C.3       23 UNK        -0.0398 
      7 S7         -0.5902  -15.8080  -48.3727 S.3       23 UNK        -0.2404 
      8 C8          1.0237  -15.6954  -49.2039 C.3       23 UNK        -0.0205 
      9 C9          1.2601  -16.9068  -50.0908 C.ar      23 UNK        -0.0193 
     10 C10         0.7833  -16.9150  -51.4054 C.ar      23 UNK        -0.1150 
     11 C11         0.9772  -18.0256  -52.2329 C.ar      23 UNK        -0.0193 
     12 C12         1.6545  -19.1407  -51.7208 C.ar      23 UNK        -0.1150 
     13 C13         2.1402  -19.1435  -50.4096 C.ar      23 UNK        -0.0193 
     14 C14         1.9431  -18.0212  -49.6000 C.ar      23 UNK        -0.1150 
     15 C15         2.8730  -20.3606  -49.8613 C.3       23 UNK        -0.0205 
     16 S16         1.7494  -21.7168  -49.3964 S.3       23 UNK        -0.2404 
     17 C17         0.5597  -20.8770  -48.2973 C.3       23 UNK        -0.0398 
     18 CA         -0.5040  -21.8581  -47.7588 C.3       11 UNK         0.1400 
     19 N           0.0469  -22.8691  -46.8545 N.am      11 UNK        -0.5000 
     20 C          -0.5870  -24.0090  -46.5442 C.2       10 UNK         0.5000 
     21 O          -1.6836  -24.3217  -47.0056 O.2       10 UNK        -0.5000 
     22 CA          0.0832  -24.9321  -45.5104 C.3       10 UNK         0.1400 
     23 CB          1.0238  -25.9257  -46.2076 C.3       10 UNK        -0.1800 
     24 N           0.8247  -24.2094  -44.4761 N.am      10 UNK        -0.5000 
     25 C           0.2935  -23.3231  -43.6232 C.2       9 UNK         0.5000 
     26 O          -0.9022  -23.0226  -43.6165 O.2       9 UNK        -0.5000 
     27 CA          1.2527  -22.6279  -42.6327 C.3       9 UNK         0.1400 
     28 CB          2.6995  -23.1704  -42.6677 C.3       9 UNK        -0.1800 
     29 N           1.2653  -21.1698  -42.7968 N.am      9 UNK        -0.5000 
     30 C           1.5233  -20.4801  -43.9184 C.2       8 UNK         0.5000 
     31 O           1.7076  -21.0054  -45.0186 O.2       8 UNK        -0.5000 
     32 CA          1.5387  -18.9386  -43.8116 C.3       8 UNK         0.1400 
     33 CB          1.6341  -18.4009  -42.3666 C.3       8 UNK        -0.1800 
     34 N           2.5715  -18.3247  -44.6487 N.am      8 UNK        -0.5000 
     35 C           3.8992  -18.5026  -44.5728 C.2       7 UNK         0.5000 
     36 O           4.4571  -19.2456  -43.7660 O.2       7 UNK        -0.5000 
     37 CA          4.7570  -17.6622  -45.5430 C.3       7 UNK         0.1400 
     38 CB          5.1830  -18.5159  -46.7445 C.3       7 UNK        -0.1800 
     39 N           4.0539  -16.4710  -46.0383 N.am      7 UNK        -0.5000 
     40 C           3.7730  -15.3460  -45.3628 C.2       6 UNK         0.5000 
     41 O           3.0629  -14.4698  -45.8554 O.2       6 UNK        -0.5000 
     42 CA          4.3772  -15.1064  -43.9665 C.3       6 UNK         0.1400 
     43 CB          5.6726  -14.2807  -44.0886 C.3       6 UNK        -0.1800 
     44 N           3.3907  -14.4078  -43.1521 N.am      6 UNK        -0.5000 
     45 C           3.4599  -14.2080  -41.8312 C.2       5 UNK         0.5000 
     46 O           4.3970  -14.6050  -41.1367 O.2       5 UNK        -0.5000 
     47 CA          2.2788  -13.4811  -41.1545 C.3       5 UNK         0.1400 
     48 CB          2.7424  -12.4538  -40.1012 C.3       5 UNK        -0.1800 
     49 N           1.3172  -12.8866  -42.0885 N.am      5 UNK        -0.5000 
     50 C           1.4739  -11.8383  -42.9110 C.2       4 UNK         0.5000 
     51 O           2.5099  -11.1796  -43.0005 O.2       4 UNK        -0.5000 
     52 CA          0.2647  -11.4708  -43.7976 C.3       4 UNK         0.1400 
     53 CB          0.5297  -11.8599  -45.2612 C.3       4 UNK        -0.1800 
     54 N          -0.9748  -12.1161  -43.3554 N.am      4 UNK        -0.5000 
     55 C          -1.7384  -11.6984  -42.3354 C.2       3 UNK         0.5000 
     56 O          -1.5399  -10.6546  -41.7137 O.2       3 UNK        -0.5000 
     57 CA         -2.8972  -12.6263  -41.9201 C.3       3 UNK         0.1400 
     58 CB         -4.1793  -12.2637  -42.6840 C.3       3 UNK        -0.1800 
     59 N          -2.5826  -14.0423  -42.1370 N.am      3 UNK        -0.5000 
     60 C          -1.7072  -14.7413  -41.3952 C.2       2 UNK         0.5000 
     61 O          -1.1283  -14.2767  -40.4142 O.2       2 UNK        -0.5000 
     62 CA         -1.3699  -16.1764  -41.8490 C.3       2 UNK         0.1400 
     63 CB         -2.2526  -17.1993  -41.1198 C.3       2 UNK        -0.1800 
     64 N          -1.5026  -16.3559  -43.2959 N.am      2 UNK        -0.5000 
     65 C          -0.7295  -15.7513  -44.2089 C.2       1 UNK         0.5000 
     66 O           0.3077  -15.1583  -43.9149 O.2       1 UNK        -0.5000 
     67 C          -1.6778  -21.1009  -47.1125 C.2       11 UNK         0.5000 
     68 O          -2.6173  -20.7500  -47.8235 O.2       11 UNK        -0.5000 
     69 N          -1.6470  -20.8938  -45.7872 N.am      12 UNK        -0.5000 
     70 CA         -2.7666  -20.3121  -45.0423 C.3       12 UNK         0.1400 
     71 CB         -2.3280  -19.8999  -43.6311 C.3       12 UNK        -0.1800 
     72 C          -3.9717  -21.2646  -44.9930 C.2       12 UNK         0.5000 
     73 O          -5.0958  -20.8284  -45.2411 O.2       12 UNK        -0.5000 
     74 N          -3.7045  -22.5551  -44.7441 N.am      13 UNK        -0.5000 
     75 CA         -4.6985  -23.6328  -44.7662 C.3       13 UNK         0.1400 
     76 CB         -4.0420  -24.9382  -44.2927 C.3       13 UNK        -0.1800 
     77 C          -5.3583  -23.8196  -46.1484 C.2       13 UNK         0.5000 
     78 O          -6.5565  -24.0917  -46.2214 O.2       13 UNK        -0.5000 
     79 N          -4.5735  -23.6205  -47.2150 N.am      14 UNK        -0.5000 
     80 CA         -5.0025  -23.6450  -48.6146 C.3       14 UNK         0.1400 
     81 CB         -3.8214  -24.1297  -49.4706 C.3       14 UNK        -0.1800 
     82 C          -5.5716  -22.2969  -49.1181 C.2       14 UNK         0.5000 
     83 O          -5.7493  -22.1412  -50.3285 O.2       14 UNK        -0.5000 
     84 N          -5.8531  -21.3595  -48.1974 N.am      15 UNK        -0.5000 
     85 CA         -6.4909  -20.0542  -48.4047 C.3       15 UNK         0.1400 
     86 CB         -7.9375  -20.2307  -48.9129 C.3       15 UNK        -0.1800 
     87 C          -5.6512  -19.1182  -49.2940 C.2       15 UNK         0.5000 
     88 O          -6.0944  -18.7201  -50.3703 O.2       15 UNK        -0.5000 
     89 N          -4.4252  -18.8256  -48.8372 N.am      16 UNK        -0.5000 
     90 CA         -3.3657  -18.0947  -49.5507 C.3       16 UNK         0.1400 
     91 CB         -3.7821  -16.6392  -49.8501 C.3       16 UNK        -0.1800 
     92 C          -2.8873  -18.8682  -50.7966 C.2       16 UNK         0.5000 
     93 O          -2.5931  -18.2755  -51.8344 O.2       16 UNK        -0.5000 
     94 N          -2.8824  -20.2016  -50.6559 N.am      17 UNK        -0.5000 
     95 CA         -2.6383  -21.2295  -51.6666 C.3       17 UNK         0.1400 
     96 CB         -1.1494  -21.2933  -52.0386 C.3       17 UNK        -0.1800 
     97 C          -3.5616  -21.1577  -52.8980 C.2       17 UNK         0.5000 
     98 O          -3.2204  -21.7317  -53.9322 O.2       17 UNK        -0.5000 
     99 N          -4.7306  -20.5103  -52.7737 N.am      18 UNK        -0.5000 
    100 CA        -5.7382  -20.3950  -53.8297 C.3       18 UNK         0.1400 
    101 CB        -6.8532  -19.4397  -53.3849 C.3       18 UNK        -0.1800 
    102 C         -6.3279  -21.7542  -54.2407 C.2       18 UNK         0.5000 
    103 O         -6.6274  -21.9489  -55.4186 O.2       18 UNK        -0.5000 
    104 N         -6.4124  -22.6924  -53.2854 N.am      19 UNK        -0.5000 
    105 CA        -6.8163  -24.0821  -53.5166 C.3       19 UNK         0.1400 
    106 CB        -7.0124  -24.7756  -52.1599 C.3       19 UNK        -0.1800 
    107 C         -5.8255  -24.8780  -54.3953 C.2       19 UNK         0.5000 
    108 O         -6.2212  -25.8811  -54.9900 O.2       19 UNK        -0.5000 
    109 N         -4.5703  -24.4151  -54.4699 N.am      20 UNK        -0.5000 
    110 CA        -3.4961  -24.9804  -55.2873 C.3       20 UNK         0.1400 
    111 CB        -2.2847  -25.2299  -54.3717 C.3       20 UNK        -0.1800 
    112 C         -3.1056  -24.0513  -56.4558 C.2       20 UNK         0.5000 
    113 O         -2.1466  -24.3569  -57.1660 O.2       20 UNK        -0.5000 
    114 N         -3.8050  -22.9143  -56.6098 N.am      21 UNK        -0.5000 
    115 CA        -3.5318  -21.8123  -57.5439 C.3       21 UNK         0.1400 
    116 CB        -3.8746  -22.2405  -58.9852 C.3       21 UNK        -0.1800 
    117 C         -2.1025  -21.2290  -57.4166 C.2       21 UNK         0.5000 
    118 O         -1.5224  -20.7925  -58.4123 O.2       21 UNK        -0.5000 
    119 N         -1.5520  -21.2596  -56.1949 N.am      22 UNK        -0.5000 
    120 CA        -0.1496  -20.9576  -55.8597 C.3       22 UNK         0.1400 
    121 C          0.8950  -21.9559  -56.4603 C.2       22 UNK         0.5000 
    122 N          0.5021  -23.1324  -56.9361 N.am      22 UNK        -0.7600 
    123 O          2.0915  -21.6819  -56.4769 O.2       22 UNK        -0.5000 
    124 C124        0.2108  -19.4584  -56.0842 C.3       23 UNK        -0.0398 
    125 S125        1.4506  -18.8410  -54.8884 S.3       23 UNK        -0.2404 
    126 C126        0.3961  -18.0160  -53.6481 C.3       23 UNK        -0.0205 
    127 H127       -5.5890  -16.8646  -44.9799 H         1 UNK         0.0600 
    128 H128       -5.5258  -16.1247  -46.5834 H         1 UNK         0.0600 
    129 H129       -4.7094  -17.6621  -46.2817 H         1 UNK         0.0600 
    130 H130       -2.5151  -17.1811  -46.5005 H         1 UNK         0.3000 
    131 H131       -1.3601  -14.6744  -45.8988 H         1 UNK         0.0600 
    132 H132        0.8242  -15.8339  -46.4324 H         1 UNK         0.0800 
    133 H133       -0.0453  -17.3475  -46.5901 H         1 UNK         0.0800 
    134 H134        1.8320  -15.5813  -48.4807 H         1 UNK         0.0800 
    135 H135        1.0384  -14.7899  -49.8122 H         1 UNK         0.0800 
    136 H136        0.2418  -16.0571  -51.7789 H         1 UNK         0.1150 
    137 H137        1.7939  -20.0183  -52.3359 H         1 UNK         0.1150 
    138 H138        2.3070  -18.0209  -48.5829 H         1 UNK         0.1150 
    139 H139        3.5753  -20.7276  -50.6110 H         1 UNK         0.0800 
    140 H140        3.4740  -20.0909  -48.9945 H         1 UNK         0.0800 
    141 H141        1.0981  -20.3862  -47.4859 H         1 UNK         0.0800 
    142 H142        0.0756  -20.0869  -48.8746 H         1 UNK         0.0800 
    143 H143       -0.9213  -22.3812  -48.6222 H         1 UNK         0.0600 
    144 H144        0.9232  -22.6437  -46.4001 H         1 UNK         0.3000 
    145 H145       -0.7075  -25.4992  -45.0152 H         1 UNK         0.0600 
    146 H146        1.4390  -26.6414  -45.4979 H         1 UNK         0.0600 
    147 H147        0.4921  -26.4969  -46.9699 H         1 UNK         0.0600 
    148 H148        1.8545  -25.4170  -46.6985 H         1 UNK         0.0600 
    149 H149        1.8183  -24.3817  -44.4296 H         1 UNK         0.3000 
    150 H150        0.8502  -22.8253  -41.6383 H         1 UNK         0.0600 
    151 H151        2.7275  -24.2426  -42.4687 H         1 UNK         0.0600 
    152 H152        3.3101  -22.6907  -41.9026 H         1 UNK         0.0600 
    153 H153        3.1836  -22.9918  -43.6288 H         1 UNK         0.0600 
    154 H154        1.0880  -20.6439  -41.9532 H         1 UNK         0.3000 
    155 H155        0.5913  -18.5997  -44.2282 H         1 UNK         0.0600 
    156 H156        1.7063  -17.3131  -42.3622 H         1 UNK         0.0600 
    157 H157        2.5108  -18.7869  -41.8449 H         1 UNK         0.0600 
    158 H158        0.7519  -18.6660  -41.7832 H         1 UNK         0.0600 
    159 H159        2.2376  -17.7018  -45.3672 H         1 UNK         0.3000 
    160 H160        5.6639  -17.3536  -45.0198 H         1 UNK         0.0600 
    161 H161        4.3186  -18.8655  -47.3061 H         1 UNK         0.0600 
    162 H162        5.7425  -19.3952  -46.4222 H         1 UNK         0.0600 
    163 H163        5.8237  -17.9540  -47.4244 H         1 UNK         0.0600 
    164 H164        3.7143  -16.5396  -46.9848 H         1 UNK         0.3000 
    165 H165        4.5976  -16.0483  -43.4669 H         1 UNK         0.0600 
    166 H166        6.3921  -14.7771  -44.7408 H         1 UNK         0.0600 
    167 H167        5.4776  -13.2920  -44.5063 H         1 UNK         0.0600 
    168 H168        6.1582  -14.1447  -43.1226 H         1 UNK         0.0600 
    169 H169        2.5671  -14.1001  -43.6567 H         1 UNK         0.3000 
    170 H170        1.7252  -14.2578  -40.6253 H         1 UNK         0.0600 
    171 H171        3.3143  -12.9374  -39.3085 H         1 UNK         0.0600 
    172 H172        3.3794  -11.6837  -40.5365 H         1 UNK         0.0600 
    173 H173        1.8915  -11.9614  -39.6302 H         1 UNK         0.0600 
    174 H174        0.4291  -13.3650  -42.1338 H         1 UNK         0.3000 
    175 H175        0.1375  -10.3873  -43.7500 H         1 UNK         0.0600 
    176 H176        0.6863  -12.9328  -45.3751 H         1 UNK         0.0600 
    177 H177       -0.3021  -11.5719  -45.9041 H         1 UNK         0.0600 
    178 H178        1.4216  -11.3609  -45.6422 H         1 UNK         0.0600 
    179 H179       -1.2161  -12.9844  -43.8077 H         1 UNK         0.3000 
    180 H180       -3.0824  -12.4739  -40.8546 H         1 UNK         0.0600 
    181 H181       -4.4683  -11.2297  -42.4917 H         1 UNK         0.0600 
    182 H182       -4.0517  -12.3732  -43.7616 H         1 UNK         0.0600 
    183 H183       -5.0128  -12.8969  -42.3795 H         1 UNK         0.0600 
    184 H184       -3.0222  -14.4808  -42.9412 H         1 UNK         0.3000 
    185 H185       -0.3319  -16.3634  -41.5702 H         1 UNK         0.0600 
    186 H186       -3.2963  -17.1252  -41.4272 H         1 UNK         0.0600 
    187 H187       -1.9134  -18.2170  -41.3091 H         1 UNK         0.0600 
    188 H188       -2.2166  -17.0479  -40.0400 H         1 UNK         0.0600 
    189 H189       -2.3541  -16.7898  -43.6191 H         1 UNK         0.3000 
    190 H190       -0.8833  -21.2819  -45.2504 H         1 UNK         0.3000 
    191 H191       -3.0850  -19.4078  -45.5635 H         1 UNK         0.0600 
    192 H192       -3.1613  -19.4568  -43.0845 H         1 UNK         0.0600 
    193 H193       -1.5350  -19.1573  -43.6662 H         1 UNK         0.0600 
    194 H194       -1.9710  -20.7458  -43.0451 H         1 UNK         0.0600 
    195 H195       -2.7498  -22.8161  -44.5197 H         1 UNK         0.3000 
    196 H196       -5.4861  -23.3704  -44.0568 H         1 UNK         0.0600 
    197 H197       -4.7728  -25.7464  -44.2437 H         1 UNK         0.0600 
    198 H198       -3.6126  -24.8260  -43.2970 H         1 UNK         0.0600 
    199 H199       -3.2464  -25.2567  -44.9662 H         1 UNK         0.0600 
    200 H200       -3.5827  -23.4741  -47.0572 H         1 UNK         0.3000 
    201 H201       -5.8071  -24.3747  -48.7244 H         1 UNK         0.0600 
    202 H202       -3.5224  -25.1379  -49.1834 H         1 UNK         0.0600 
    203 H203       -2.9524  -23.4848  -49.3474 H         1 UNK         0.0600 
    204 H204       -4.0715  -24.1609  -50.5310 H         1 UNK         0.0600 
    205 H205       -5.6276  -21.5707  -47.2331 H         1 UNK         0.3000 
    206 H206       -6.5469  -19.5797  -47.4238 H         1 UNK         0.0600 
    207 H207       -8.5174  -20.8601  -48.2379 H         1 UNK         0.0600 
    208 H208       -8.4466  -19.2685  -48.9780 H         1 UNK         0.0600 
    209 H209       -7.9709  -20.6836  -49.9045 H         1 UNK         0.0600 
    210 H210       -4.1105  -19.3269  -48.0152 H         1 UNK         0.3000 
    211 H211       -2.5101  -18.0615  -48.8759 H         1 UNK         0.0600 
    212 H212       -4.6051  -16.5855  -50.5625 H         1 UNK         0.0600 
    213 H213       -2.9511  -16.0781  -50.2784 H         1 UNK         0.0600 
    214 H214       -4.0874  -16.1219  -48.9408 H         1 UNK         0.0600 
    215 H215       -3.1131  -20.5502  -49.7314 H         1 UNK         0.3000 
    216 H216       -2.8838  -22.1747  -51.1910 H         1 UNK         0.0600 
    217 H217       -0.8411  -20.4105  -52.5901 H         1 UNK         0.0600 
    218 H218       -0.9313  -22.1642  -52.6573 H         1 UNK         0.0600 
    219 H219       -0.5273  -21.3659  -51.1494 H         1 UNK         0.0600 
    220 H220       -4.9636  -20.0911  -51.8820 H         1 UNK         0.3000 
    221 H221       -5.2500  -19.9659  -54.7072 H         1 UNK         0.0600 
    222 H222       -7.3786  -19.8183  -52.5070 H         1 UNK         0.0600 
    223 H223       -6.4543  -18.4552  -53.1396 H         1 UNK         0.0600 
    224 H224       -7.5912  -19.3039  -54.1764 H         1 UNK         0.0600 
    225 H225       -6.1500  -22.4443  -52.3356 H         1 UNK         0.3000 
    226 H226       -7.7767  -24.0694  -54.0358 H         1 UNK         0.0600 
    227 H227       -7.7402  -24.2447  -51.5457 H         1 UNK         0.0600 
    228 H228       -7.3786  -25.7946  -52.2909 H         1 UNK         0.0600 
    229 H229       -6.0797  -24.8322  -51.5994 H         1 UNK         0.0600 
    230 H230       -4.3350  -23.5661  -53.9710 H         1 UNK         0.3000 
    231 H231       -3.8019  -25.9337  -55.7223 H         1 UNK         0.0600 
    232 H232       -1.9042  -24.3003  -53.9463 H         1 UNK         0.0600 
    233 H233       -2.5449  -25.8935  -53.5469 H         1 UNK         0.0600 
    234 H234       -1.4664  -25.7002  -54.9183 H         1 UNK         0.0600 
    235 H235       -4.5813  -22.7573  -55.9811 H         1 UNK         0.3000 
    236 H236       -4.2116  -21.0054  -57.2672 H         1 UNK         0.0600 
    237 H237       -4.8917  -22.6271  -59.0493 H         1 UNK         0.0600 
    238 H238       -3.8063  -21.3969  -59.6729 H         1 UNK         0.0600 
    239 H239       -3.1978  -23.0150  -59.3477 H         1 UNK         0.0600 
    240 H240       -2.1257  -21.5941  -55.4236 H         1 UNK         0.3000 
    241 H241       -0.1009  -21.1435  -54.7876 H         1 UNK         0.0600 
    242 H242       -0.4763  -23.4033  -56.9581 H         1 UNK         0.3800 
    243 H243        1.1939  -23.7619  -57.3102 H         1 UNK         0.3800 
    244 H244       -0.6809  -18.8358  -56.0007 H         1 UNK         0.0800 
    245 H245        0.5821  -19.2981  -57.0976 H         1 UNK         0.0800 
    246 H246        0.2301  -16.9900  -53.9799 H         1 UNK         0.0800 
    247 H247       -0.5870  -18.4836  -53.6239 H         1 UNK         0.0800 
@<TRIPOS>BOND
     1    1    2 1    
     2    1  127 1    
     3    1  128 1    
     4    1  129 1    
     5    2    3 2    
     6    2    4 am   BACKBONE|DICT|INTERRES
     7    4    5 1    
     8    4  130 1    
     9    5    6 1    
    10    5   65 1    
    11    5  131 1    
    12    6    7 1    
    13    6  132 1    
    14    6  133 1    
    15    7    8 1    
    16    8    9 1    
    17    8  134 1    
    18    8  135 1    
    19    9   10 ar   
    20    9   14 ar   
    21   10   11 ar   
    22   10  136 1    
    23   11   12 ar   
    24   11  126 1    
    25   12   13 ar   
    26   12  137 1    
    27   13   14 ar   
    28   13   15 1    
    29   14  138 1    
    30   15   16 1    
    31   15  139 1    
    32   15  140 1    
    33   16   17 1    
    34   17   18 1    
    35   17  141 1    
    36   17  142 1    
    37   18   19 1    
    38   18   67 1    
    39   18  143 1    
    40   19   20 am   BACKBONE|DICT|INTERRES
    41   19  144 1    
    42   20   21 2    
    43   20   22 1    
    44   22   23 1    
    45   22   24 1    
    46   22  145 1    
    47   23  146 1    
    48   23  147 1    
    49   23  148 1    
    50   24   25 am   BACKBONE|DICT|INTERRES
    51   24  149 1    
    52   25   26 2    
    53   25   27 1    
    54   27   28 1    
    55   27   29 1    
    56   27  150 1    
    57   28  151 1    
    58   28  152 1    
    59   28  153 1    
    60   29   30 am   BACKBONE|DICT|INTERRES
    61   29  154 1    
    62   30   31 2    
    63   30   32 1    
    64   32   33 1    
    65   32   34 1    
    66   32  155 1    
    67   33  156 1    
    68   33  157 1    
    69   33  158 1    
    70   34   35 am   BACKBONE|DICT|INTERRES
    71   34  159 1    
    72   35   36 2    
    73   35   37 1    
    74   37   38 1    
    75   37   39 1    
    76   37  160 1    
    77   38  161 1    
    78   38  162 1    
    79   38  163 1    
    80   39   40 am   BACKBONE|DICT|INTERRES
    81   39  164 1    
    82   40   41 2    
    83   40   42 1    
    84   42   43 1    
    85   42   44 1    
    86   42  165 1    
    87   43  166 1    
    88   43  167 1    
    89   43  168 1    
    90   44   45 am   BACKBONE|DICT|INTERRES
    91   44  169 1    
    92   45   46 2    
    93   45   47 1    
    94   47   48 1    
    95   47   49 1    
    96   47  170 1    
    97   48  171 1    
    98   48  172 1    
    99   48  173 1    
   100   49   50 am   BACKBONE|DICT|INTERRES
   101   49  174 1    
   102   50   51 2    
   103   50   52 1    
   104   52   53 1    
   105   52   54 1    
   106   52  175 1    
   107   53  176 1    
   108   53  177 1    
   109   53  178 1    
   110   54   55 am   BACKBONE|DICT|INTERRES
   111   54  179 1    
   112   55   56 2    
   113   55   57 1    
   114   57   58 1    
   115   57   59 1    
   116   57  180 1    
   117   58  181 1    
   118   58  182 1    
   119   58  183 1    
   120   59   60 am   BACKBONE|DICT|INTERRES
   121   59  184 1    
   122   60   61 2    
   123   60   62 1    
   124   62   63 1    
   125   62   64 1    
   126   62  185 1    
   127   63  186 1    
   128   63  187 1    
   129   63  188 1    
   130   64   65 am   BACKBONE|DICT|INTERRES
   131   64  189 1    
   132   65   66 2    
   133   67   68 2    
   134   67   69 am   BACKBONE|DICT|INTERRES
   135   69   70 1    
   136   69  190 1    
   137   70   71 1    
   138   70   72 1    
   139   70  191 1    
   140   71  192 1    
   141   71  193 1    
   142   71  194 1    
   143   72   73 2    
   144   72   74 am   BACKBONE|DICT|INTERRES
   145   74   75 1    
   146   74  195 1    
   147   75   76 1    
   148   75   77 1    
   149   75  196 1    
   150   76  197 1    
   151   76  198 1    
   152   76  199 1    
   153   77   78 2    
   154   77   79 am   BACKBONE|DICT|INTERRES
   155   79   80 1    
   156   79  200 1    
   157   80   81 1    
   158   80   82 1    
   159   80  201 1    
   160   81  202 1    
   161   81  203 1    
   162   81  204 1    
   163   82   83 2    
   164   82   84 am   BACKBONE|DICT|INTERRES
   165   84   85 1    
   166   84  205 1    
   167   85   86 1    
   168   85   87 1    
   169   85  206 1    
   170   86  207 1    
   171   86  208 1    
   172   86  209 1    
   173   87   88 2    
   174   87   89 am   BACKBONE|DICT|INTERRES
   175   89   90 1    
   176   89  210 1    
   177   90   91 1    
   178   90   92 1    
   179   90  211 1    
   180   91  212 1    
   181   91  213 1    
   182   91  214 1    
   183   92   93 2    
   184   92   94 am   BACKBONE|DICT|INTERRES
   185   94   95 1    
   186   94  215 1    
   187   95   96 1    
   188   95   97 1    
   189   95  216 1    
   190   96  217 1    
   191   96  218 1    
   192   96  219 1    
   193   97   98 2    
   194   97   99 am   BACKBONE|DICT|INTERRES
   195   99  100 1    
   196   99  220 1    
   197  100  101 1    
   198  100  102 1    
   199  100  221 1    
   200  101  222 1    
   201  101  223 1    
   202  101  224 1    
   203  102  103 2    
   204  102  104 am   BACKBONE|DICT|INTERRES
   205  104  105 1    
   206  104  225 1    
   207  105  106 1    
   208  105  107 1    
   209  105  226 1    
   210  106  227 1    
   211  106  228 1    
   212  106  229 1    
   213  107  108 2    
   214  107  109 am   BACKBONE|DICT|INTERRES
   215  109  110 1    
   216  109  230 1    
   217  110  111 1    
   218  110  112 1    
   219  110  231 1    
   220  111  232 1    
   221  111  233 1    
   222  111  234 1    
   223  112  113 2    
   224  112  114 am   BACKBONE|DICT|INTERRES
   225  114  115 1    
   226  114  235 1    
   227  115  116 1    
   228  115  117 1    
   229  115  236 1    
   230  116  237 1    
   231  116  238 1    
   232  116  239 1    
   233  117  118 2    
   234  117  119 am   BACKBONE|DICT|INTERRES
   235  119  120 1    
   236  119  240 1    
   237  120  121 1    
   238  120  124 1    
   239  120  241 1    
   240  121  122 am   BACKBONE|DICT|INTERRES
   241  121  123 2    
   242  122  242 1    
   243  122  243 1    
   244  124  125 1    
   245  124  244 1    
   246  124  245 1    
   247  125  126 1    
   248  126  246 1    
   249  126  247 1    
@<TRIPOS>SUBSTRUCTURE
     1 UNK         1 GROUP             0       ****    0 ROOT    
