@<TRIPOS>MOLECULE
3R540
247   249    1
SMALL
USER_CHARGES


@<TRIPOS>ATOM
      1 CA         -0.4646  -11.6937  -50.5034 C.3       0 UNK        -0.1800 
      2 C          -0.5146  -12.8636  -49.5314 C.2       0 UNK         0.5000 
      3 O          -0.1228  -12.7150  -48.3746 O.2       0 UNK        -0.5000 
      4 N          -0.9867  -14.0272  -49.9982 N.am      1 UNK        -0.5000 
      5 CA         -1.1232  -15.2972  -49.2688 C.3       1 UNK         0.1400 
      6 C6         -1.8978  -15.1642  -47.9307 C.3       23 UNK        -0.0398 
      7 S7         -2.7860  -16.6804  -47.4464 S.3       23 UNK        -0.2404 
      8 C8         -3.7315  -16.0467  -46.0243 C.3       23 UNK        -0.0205 
      9 C9         -5.0365  -16.8006  -45.8421 C.ar      23 UNK        -0.0193 
     10 C10        -6.1260  -16.5046  -46.6631 C.ar      23 UNK        -0.1150 
     11 C11        -7.3350  -17.1879  -46.5157 C.ar      23 UNK        -0.0193 
     12 C12        -7.4501  -18.1662  -45.5227 C.ar      23 UNK        -0.1150 
     13 C13        -6.3770  -18.4549  -44.6722 C.ar      23 UNK        -0.0193 
     14 C14        -5.1701  -17.7653  -44.8406 C.ar      23 UNK        -0.1150 
     15 C15        -6.5701  -19.4626  -43.5404 C.3       23 UNK        -0.0205 
     16 S16        -5.1171  -20.5101  -43.1941 S.3       23 UNK        -0.2404 
     17 C17        -5.0088  -21.5171  -44.7107 C.3       23 UNK        -0.0398 
     18 CA         -3.7695  -21.1513  -45.5733 C.3       11 UNK         0.1400 
     19 N          -2.5008  -21.3374  -44.8566 N.am      11 UNK        -0.5000 
     20 C          -1.9299  -22.4959  -44.4869 C.2       10 UNK         0.5000 
     21 O          -2.3217  -23.5983  -44.8729 O.2       10 UNK        -0.5000 
     22 CA         -0.7324  -22.4300  -43.5093 C.3       10 UNK         0.1400 
     23 CB          0.5775  -22.8681  -44.1820 C.3       10 UNK        -0.1800 
     24 N          -0.5448  -21.1038  -42.9177 N.am      10 UNK        -0.5000 
     25 C          -1.2995  -20.6024  -41.9272 C.2       9 UNK         0.5000 
     26 O          -2.1457  -21.2649  -41.3262 O.2       9 UNK        -0.5000 
     27 CA         -1.1018  -19.1194  -41.5385 C.3       9 UNK         0.1400 
     28 CB         -0.4227  -19.0088  -40.1644 C.3       9 UNK        -0.1800 
     29 N          -0.3367  -18.3234  -42.5003 N.am      9 UNK        -0.5000 
     30 C          -0.6563  -18.1090  -43.7838 C.2       8 UNK         0.5000 
     31 O          -1.6839  -18.5317  -44.3121 O.2       8 UNK        -0.5000 
     32 CA          0.3867  -17.3585  -44.6323 C.3       8 UNK         0.1400 
     33 CB          0.1165  -15.8483  -44.5994 C.3       8 UNK        -0.1800 
     34 N           1.7716  -17.6084  -44.2152 N.am      8 UNK        -0.5000 
     35 C           2.3728  -18.8079  -44.1779 C.2       7 UNK         0.5000 
     36 O           1.8118  -19.8631  -44.4669 O.2       7 UNK        -0.5000 
     37 CA          3.8294  -18.8392  -43.6876 C.3       7 UNK         0.1400 
     38 CB          4.8062  -18.4261  -44.7991 C.3       7 UNK        -0.1800 
     39 N           4.0102  -17.9710  -42.5270 N.am      7 UNK        -0.5000 
     40 C           3.6963  -18.3197  -41.2715 C.2       6 UNK         0.5000 
     41 O           3.3093  -19.4428  -40.9486 O.2       6 UNK        -0.5000 
     42 CA          3.8180  -17.2241  -40.1951 C.3       6 UNK         0.1400 
     43 CB          5.2130  -17.2530  -39.5526 C.3       6 UNK        -0.1800 
     44 N           3.5571  -15.8794  -40.7118 N.am      6 UNK        -0.5000 
     45 C           2.3677  -15.4505  -41.1572 C.2       5 UNK         0.5000 
     46 O           1.3482  -16.1403  -41.1600 O.2       5 UNK        -0.5000 
     47 CA          2.3277  -14.0245  -41.7393 C.3       5 UNK         0.1400 
     48 CB          2.0648  -12.9981  -40.6273 C.3       5 UNK        -0.1800 
     49 N           3.5466  -13.6516  -42.4653 N.am      5 UNK        -0.5000 
     50 C           4.0109  -14.2736  -43.5570 C.2       4 UNK         0.5000 
     51 O           3.4846  -15.2719  -44.0561 O.2       4 UNK        -0.5000 
     52 CA          5.3081  -13.7202  -44.1566 C.3       4 UNK         0.1400 
     53 CB          6.5320  -14.3236  -43.4459 C.3       4 UNK        -0.1800 
     54 N           5.3585  -14.0476  -45.5777 N.am      4 UNK        -0.5000 
     55 C           5.9696  -13.3169  -46.5183 C.2       3 UNK         0.5000 
     56 O           6.5795  -12.2741  -46.2761 O.2       3 UNK        -0.5000 
     57 CA          5.9127  -13.8279  -47.9740 C.3       3 UNK         0.1400 
     58 CB          7.2688  -14.4256  -48.3821 C.3       3 UNK        -0.1800 
     59 N           4.8700  -14.8282  -48.2174 N.am      3 UNK        -0.5000 
     60 C           3.5597  -14.5648  -48.2925 C.2       2 UNK         0.5000 
     61 O           3.0820  -13.4337  -48.1773 O.2       2 UNK        -0.5000 
     62 CA          2.6402  -15.7759  -48.5167 C.3       2 UNK         0.1400 
     63 CB          2.7930  -16.7958  -47.3745 C.3       2 UNK        -0.1800 
     64 N           1.2563  -15.3214  -48.6242 N.am      2 UNK        -0.5000 
     65 C           0.2284  -16.0280  -49.1092 C.2       1 UNK         0.5000 
     66 O           0.3255  -17.1983  -49.4771 O.2       1 UNK        -0.5000 
     67 C          -3.7615  -21.8470  -46.9502 C.2       11 UNK         0.5000 
     68 O          -3.1253  -21.3397  -47.8730 O.2       11 UNK        -0.5000 
     69 N          -4.4336  -23.0014  -47.0764 N.am      12 UNK        -0.5000 
     70 CA         -4.4882  -23.8018  -48.3015 C.3       12 UNK         0.1400 
     71 CB         -5.4394  -24.9894  -48.0998 C.3       12 UNK        -0.1800 
     72 C          -3.1060  -24.2925  -48.7680 C.2       12 UNK         0.5000 
     73 O          -2.8638  -24.3490  -49.9735 O.2       12 UNK        -0.5000 
     74 N          -2.2139  -24.5976  -47.8154 N.am      13 UNK        -0.5000 
     75 CA         -0.8329  -24.9899  -48.0923 C.3       13 UNK         0.1400 
     76 CB         -0.2633  -25.7523  -46.8894 C.3       13 UNK        -0.1800 
     77 C           0.0552  -23.7917  -48.4775 C.2       13 UNK         0.5000 
     78 O           0.9598  -23.9601  -49.2951 O.2       13 UNK        -0.5000 
     79 N          -0.2456  -22.5973  -47.9416 N.am      14 UNK        -0.5000 
     80 CA          0.3827  -21.3312  -48.3433 C.3       14 UNK         0.1400 
     81 CB         -0.0134  -20.2115  -47.3671 C.3       14 UNK        -0.1800 
     82 C          -0.0077  -20.9536  -49.7841 C.2       14 UNK         0.5000 
     83 O           0.8420  -20.5432  -50.5736 O.2       14 UNK        -0.5000 
     84 N          -1.2833  -21.1946  -50.1076 N.am      15 UNK        -0.5000 
     85 CA         -1.8995  -21.0688  -51.4246 C.3       15 UNK         0.1400 
     86 CB         -3.4192  -21.0207  -51.2166 C.3       15 UNK        -0.1800 
     87 C          -1.5128  -22.1805  -52.4274 C.2       15 UNK         0.5000 
     88 O          -2.0971  -22.2251  -53.5109 O.2       15 UNK        -0.5000 
     89 N          -0.5632  -23.0573  -52.0648 N.am      16 UNK        -0.5000 
     90 CA         -0.0038  -24.1500  -52.8674 C.3       16 UNK         0.1400 
     91 CB          0.7690  -23.5924  -54.0815 C.3       16 UNK        -0.1800 
     92 C          -1.0640  -25.2000  -53.2530 C.2       16 UNK         0.5000 
     93 O          -1.2692  -25.4746  -54.4356 O.2       16 UNK        -0.5000 
     94 N          -1.7384  -25.7406  -52.2288 N.am      17 UNK        -0.5000 
     95 CA         -2.8702  -26.6726  -52.3000 C.3       17 UNK         0.1400 
     96 CB         -2.4731  -28.0027  -52.9746 C.3       17 UNK        -0.1800 
     97 C          -4.1139  -26.0082  -52.9239 C.2       17 UNK         0.5000 
     98 O          -4.8084  -26.6183  -53.7385 O.2       17 UNK        -0.5000 
     99 N          -4.3494  -24.7502  -52.5219 N.am      18 UNK        -0.5000 
    100 CA        -5.4280  -23.8565  -52.9570 C.3       18 UNK         0.1400 
    101 CB        -6.7975  -24.3821  -52.4811 C.3       18 UNK        -0.1800 
    102 C         -5.4050  -23.5146  -54.4646 C.2       18 UNK         0.5000 
    103 O         -6.4412  -23.1504  -55.0222 O.2       18 UNK        -0.5000 
    104 N         -4.2273  -23.6040  -55.0986 N.am      19 UNK        -0.5000 
    105 CA        -4.0010  -23.2070  -56.4897 C.3       19 UNK         0.1400 
    106 CB        -2.6605  -23.7801  -56.9715 C.3       19 UNK        -0.1800 
    107 C         -4.0300  -21.6775  -56.6616 C.2       19 UNK         0.5000 
    108 O         -4.5710  -21.1820  -57.6506 O.2       19 UNK        -0.5000 
    109 N         -3.4791  -20.9652  -55.6730 N.am      20 UNK        -0.5000 
    110 CA        -3.5000  -19.5122  -55.5430 C.3       20 UNK         0.1400 
    111 CB        -2.0490  -18.9990  -55.5043 C.3       20 UNK        -0.1800 
    112 C         -4.2925  -19.1603  -54.2731 C.2       20 UNK         0.5000 
    113 O         -3.7496  -18.5356  -53.3595 O.2       20 UNK        -0.5000 
    114 N         -5.5452  -19.6422  -54.2192 N.am      21 UNK        -0.5000 
    115 CA        -6.4777  -19.5898  -53.0874 C.3       21 UNK         0.1400 
    116 CB        -7.8687  -20.0379  -53.5637 C.3       21 UNK        -0.1800 
    117 C         -6.5496  -18.2135  -52.3990 C.2       21 UNK         0.5000 
    118 O         -7.0270  -17.2526  -53.0062 O.2       21 UNK        -0.5000 
    119 N         -6.0493  -18.1590  -51.1575 N.am      22 UNK        -0.5000 
    120 CA        -5.9517  -16.9616  -50.3034 C.3       22 UNK         0.1400 
    121 C         -4.9536  -15.8724  -50.8091 C.2       22 UNK         0.5000 
    122 N         -4.0881  -16.1508  -51.7772 N.am      22 UNK        -0.7600 
    123 O         -4.9396  -14.7570  -50.2958 O.2       22 UNK        -0.5000 
    124 C124       -7.3433  -16.3702  -49.9340 C.3       23 UNK        -0.0398 
    125 S125       -8.4130  -17.5688  -49.0591 S.3       23 UNK        -0.2404 
    126 C126       -8.5299  -16.8390  -47.3934 C.3       23 UNK        -0.0205 
    127 H127       -0.8412  -11.9677  -51.4892 H         1 UNK         0.0600 
    128 H128        0.5619  -11.3446  -50.6160 H         1 UNK         0.0600 
    129 H129       -1.0675  -10.8674  -50.1267 H         1 UNK         0.0600 
    130 H130       -1.2634  -14.0724  -50.9686 H         1 UNK         0.3000 
    131 H131       -1.7283  -15.9174  -49.9327 H         1 UNK         0.0600 
    132 H132       -2.6502  -14.3808  -48.0336 H         1 UNK         0.0800 
    133 H133       -1.2423  -14.8440  -47.1206 H         1 UNK         0.0800 
    134 H134       -3.9534  -14.9869  -46.1576 H         1 UNK         0.0800 
    135 H135       -3.1228  -16.1224  -45.1233 H         1 UNK         0.0800 
    136 H136       -6.0247  -15.7366  -47.4157 H         1 UNK         0.1150 
    137 H137       -8.3899  -18.6847  -45.3931 H         1 UNK         0.1150 
    138 H138       -4.3339  -17.9712  -44.1873 H         1 UNK         0.1150 
    139 H139       -6.8166  -18.9091  -42.6336 H         1 UNK         0.0800 
    140 H140       -7.4243  -20.1103  -43.7441 H         1 UNK         0.0800 
    141 H141       -5.9282  -21.3892  -45.2851 H         1 UNK         0.0800 
    142 H142       -4.9773  -22.5643  -44.4061 H         1 UNK         0.0800 
    143 H143       -3.8265  -20.0843  -45.7928 H         1 UNK         0.0600 
    144 H144       -2.0869  -20.4725  -44.5223 H         1 UNK         0.3000 
    145 H145       -0.9374  -23.1356  -42.7015 H         1 UNK         0.0600 
    146 H146        1.4361  -22.6818  -43.5364 H         1 UNK         0.0600 
    147 H147        0.5675  -23.9363  -44.3892 H         1 UNK         0.0600 
    148 H148        0.7516  -22.3487  -45.1233 H         1 UNK         0.0600 
    149 H149        0.1525  -20.5118  -43.3566 H         1 UNK         0.3000 
    150 H150       -2.0964  -18.6750  -41.4671 H         1 UNK         0.0600 
    151 H151       -0.9797  -19.5579  -39.4042 H         1 UNK         0.0600 
    152 H152       -0.3634  -17.9712  -39.8351 H         1 UNK         0.0600 
    153 H153        0.5904  -19.4122  -40.1858 H         1 UNK         0.0600 
    154 H154        0.5055  -17.8842  -42.1472 H         1 UNK         0.3000 
    155 H155        0.2818  -17.7024  -45.6627 H         1 UNK         0.0600 
    156 H156        0.1905  -15.4547  -43.5872 H         1 UNK         0.0600 
    157 H157       -0.8867  -15.6239  -44.9554 H         1 UNK         0.0600 
    158 H158        0.8158  -15.2992  -45.2297 H         1 UNK         0.0600 
    159 H159        2.3258  -16.7868  -43.9918 H         1 UNK         0.3000 
    160 H160        4.0634  -19.8685  -43.4065 H         1 UNK         0.0600 
    161 H161        5.8400  -18.5501  -44.4765 H         1 UNK         0.0600 
    162 H162        4.6746  -17.3856  -45.0931 H         1 UNK         0.0600 
    163 H163        4.6675  -19.0416  -45.6888 H         1 UNK         0.0600 
    164 H164        4.2724  -17.0138  -42.7141 H         1 UNK         0.3000 
    165 H165        3.0783  -17.4387  -39.4207 H         1 UNK         0.0600 
    166 H166        5.2868  -16.5337  -38.7368 H         1 UNK         0.0600 
    167 H167        5.4308  -18.2377  -39.1367 H         1 UNK         0.0600 
    168 H168        5.9952  -17.0221  -40.2770 H         1 UNK         0.0600 
    169 H169        4.3403  -15.2439  -40.7467 H         1 UNK         0.3000 
    170 H170        1.4973  -13.9749  -42.4444 H         1 UNK         0.0600 
    171 H171        1.1503  -13.2380  -40.0831 H         1 UNK         0.0600 
    172 H172        2.8799  -12.9697  -39.9031 H         1 UNK         0.0600 
    173 H173        1.9433  -11.9951  -41.0366 H         1 UNK         0.0600 
    174 H174        4.0477  -12.8493  -42.1115 H         1 UNK         0.3000 
    175 H175        5.3071  -12.6356  -44.0285 H         1 UNK         0.0600 
    176 H176        6.5645  -15.4086  -43.5546 H         1 UNK         0.0600 
    177 H177        7.4608  -13.9202  -43.8496 H         1 UNK         0.0600 
    178 H178        6.5192  -14.0990  -42.3787 H         1 UNK         0.0600 
    179 H179        4.8225  -14.8619  -45.8447 H         1 UNK         0.3000 
    180 H180        5.7162  -12.9645  -48.6132 H         1 UNK         0.0600 
    181 H181        7.5190  -15.3017  -47.7824 H         1 UNK         0.0600 
    182 H182        8.0723  -13.6992  -48.2522 H         1 UNK         0.0600 
    183 H183        7.2700  -14.7233  -49.4308 H         1 UNK         0.0600 
    184 H184        5.1857  -15.7811  -48.3267 H         1 UNK         0.3000 
    185 H185        2.9236  -16.2432  -49.4619 H         1 UNK         0.0600 
    186 H186        2.0780  -17.6113  -47.4547 H         1 UNK         0.0600 
    187 H187        3.7846  -17.2472  -47.3804 H         1 UNK         0.0600 
    188 H188        2.6527  -16.3183  -46.4069 H         1 UNK         0.0600 
    189 H189        1.1133  -14.3417  -48.3879 H         1 UNK         0.3000 
    190 H190       -4.8945  -23.3908  -46.2675 H         1 UNK         0.3000 
    191 H191       -4.9012  -23.1720  -49.0910 H         1 UNK         0.0600 
    192 H192       -5.5143  -25.5875  -49.0093 H         1 UNK         0.0600 
    193 H193       -6.4457  -24.6513  -47.8520 H         1 UNK         0.0600 
    194 H194       -5.0987  -25.6480  -47.2999 H         1 UNK         0.0600 
    195 H195       -2.4737  -24.4858  -46.8414 H         1 UNK         0.3000 
    196 H196       -0.8314  -25.6759  -48.9423 H         1 UNK         0.0600 
    197 H197        0.7926  -25.9862  -47.0317 H         1 UNK         0.0600 
    198 H198       -0.7887  -26.6960  -46.7421 H         1 UNK         0.0600 
    199 H199       -0.3568  -25.1776  -45.9710 H         1 UNK         0.0600 
    200 H200       -1.0452  -22.5304  -47.3294 H         1 UNK         0.3000 
    201 H201        1.4662  -21.4590  -48.2989 H         1 UNK         0.0600 
    202 H202       -1.0574  -19.9174  -47.4684 H         1 UNK         0.0600 
    203 H203        0.5829  -19.3200  -47.5524 H         1 UNK         0.0600 
    204 H204        0.1463  -20.5012  -46.3316 H         1 UNK         0.0600 
    205 H205       -1.9090  -21.4724  -49.3565 H         1 UNK         0.3000 
    206 H206       -1.5840  -20.1212  -51.8656 H         1 UNK         0.0600 
    207 H207       -3.7077  -20.1405  -50.6421 H         1 UNK         0.0600 
    208 H208       -3.9432  -20.9792  -52.1670 H         1 UNK         0.0600 
    209 H209       -3.7800  -21.9005  -50.6881 H         1 UNK         0.0600 
    210 H210       -0.1576  -22.9481  -51.1454 H         1 UNK         0.3000 
    211 H211        0.7178  -24.6618  -52.2288 H         1 UNK         0.0600 
    212 H212        1.5391  -22.8881  -53.7669 H         1 UNK         0.0600 
    213 H213        0.1125  -23.0778  -54.7835 H         1 UNK         0.0600 
    214 H214        1.2660  -24.3943  -54.6284 H         1 UNK         0.0600 
    215 H215       -1.5715  -25.3576  -51.3061 H         1 UNK         0.3000 
    216 H216       -3.1383  -26.9012  -51.2674 H         1 UNK         0.0600 
    217 H217       -3.2740  -28.7373  -52.8840 H         1 UNK         0.0600 
    218 H218       -1.5859  -28.4315  -52.5089 H         1 UNK         0.0600 
    219 H219       -2.2679  -27.8778  -54.0380 H         1 UNK         0.0600 
    220 H220       -3.7177  -24.3729  -51.8229 H         1 UNK         0.3000 
    221 H221       -5.2567  -22.9119  -52.4433 H         1 UNK         0.0600 
    222 H222       -7.0808  -25.2990  -52.9986 H         1 UNK         0.0600 
    223 H223       -6.7898  -24.5887  -51.4108 H         1 UNK         0.0600 
    224 H224       -7.5842  -23.6486  -52.6618 H         1 UNK         0.0600 
    225 H225       -3.4089  -23.8691  -54.5656 H         1 UNK         0.3000 
    226 H226       -4.7961  -23.6324  -57.1056 H         1 UNK         0.0600 
    227 H227       -2.4725  -23.5150  -58.0126 H         1 UNK         0.0600 
    228 H228       -1.8262  -23.4026  -56.3789 H         1 UNK         0.0600 
    229 H229       -2.6512  -24.8682  -56.9048 H         1 UNK         0.0600 
    230 H230       -3.0550  -21.4692  -54.8954 H         1 UNK         0.3000 
    231 H231       -4.0098  -19.0462  -56.3884 H         1 UNK         0.0600 
    232 H232       -1.5182  -19.2551  -56.4212 H         1 UNK         0.0600 
    233 H233       -1.4937  -19.4251  -54.6674 H         1 UNK         0.0600 
    234 H234       -2.0198  -17.9135  -55.4030 H         1 UNK         0.0600 
    235 H235       -5.8786  -20.1457  -55.0285 H         1 UNK         0.3000 
    236 H236       -6.1398  -20.3236  -52.3550 H         1 UNK         0.0600 
    237 H237       -7.8499  -21.0613  -53.9376 H         1 UNK         0.0600 
    238 H238       -8.5906  -20.0062  -52.7465 H         1 UNK         0.0600 
    239 H239       -8.2467  -19.3964  -54.3608 H         1 UNK         0.0600 
    240 H240       -5.6587  -18.9982  -50.7570 H         1 UNK         0.3000 
    241 H241       -5.4991  -17.3163  -49.3771 H         1 UNK         0.0600 
    242 H242       -4.0690  -17.0627  -52.2281 H         1 UNK         0.3800 
    243 H243       -3.4670  -15.4296  -52.1012 H         1 UNK         0.3800 
    244 H244       -7.2370  -15.4759  -49.3202 H         1 UNK         0.0800 
    245 H245       -7.8669  -16.0373  -50.8305 H         1 UNK         0.0800 
    246 H246       -9.4483  -17.2002  -46.9281 H         1 UNK         0.0800 
    247 H247       -8.6411  -15.7559  -47.4621 H         1 UNK         0.0800 
@<TRIPOS>BOND
     1    1    2 1    
     2    1  127 1    
     3    1  128 1    
     4    1  129 1    
     5    2    3 2    
     6    2    4 am   BACKBONE|DICT|INTERRES
     7    4    5 1    
     8    4  130 1    
     9    5    6 1    
    10    5   65 1    
    11    5  131 1    
    12    6    7 1    
    13    6  132 1    
    14    6  133 1    
    15    7    8 1    
    16    8    9 1    
    17    8  134 1    
    18    8  135 1    
    19    9   10 ar   
    20    9   14 ar   
    21   10   11 ar   
    22   10  136 1    
    23   11   12 ar   
    24   11  126 1    
    25   12   13 ar   
    26   12  137 1    
    27   13   14 ar   
    28   13   15 1    
    29   14  138 1    
    30   15   16 1    
    31   15  139 1    
    32   15  140 1    
    33   16   17 1    
    34   17   18 1    
    35   17  141 1    
    36   17  142 1    
    37   18   19 1    
    38   18   67 1    
    39   18  143 1    
    40   19   20 am   BACKBONE|DICT|INTERRES
    41   19  144 1    
    42   20   21 2    
    43   20   22 1    
    44   22   23 1    
    45   22   24 1    
    46   22  145 1    
    47   23  146 1    
    48   23  147 1    
    49   23  148 1    
    50   24   25 am   BACKBONE|DICT|INTERRES
    51   24  149 1    
    52   25   26 2    
    53   25   27 1    
    54   27   28 1    
    55   27   29 1    
    56   27  150 1    
    57   28  151 1    
    58   28  152 1    
    59   28  153 1    
    60   29   30 am   BACKBONE|DICT|INTERRES
    61   29  154 1    
    62   30   31 2    
    63   30   32 1    
    64   32   33 1    
    65   32   34 1    
    66   32  155 1    
    67   33  156 1    
    68   33  157 1    
    69   33  158 1    
    70   34   35 am   BACKBONE|DICT|INTERRES
    71   34  159 1    
    72   35   36 2    
    73   35   37 1    
    74   37   38 1    
    75   37   39 1    
    76   37  160 1    
    77   38  161 1    
    78   38  162 1    
    79   38  163 1    
    80   39   40 am   BACKBONE|DICT|INTERRES
    81   39  164 1    
    82   40   41 2    
    83   40   42 1    
    84   42   43 1    
    85   42   44 1    
    86   42  165 1    
    87   43  166 1    
    88   43  167 1    
    89   43  168 1    
    90   44   45 am   BACKBONE|DICT|INTERRES
    91   44  169 1    
    92   45   46 2    
    93   45   47 1    
    94   47   48 1    
    95   47   49 1    
    96   47  170 1    
    97   48  171 1    
    98   48  172 1    
    99   48  173 1    
   100   49   50 am   BACKBONE|DICT|INTERRES
   101   49  174 1    
   102   50   51 2    
   103   50   52 1    
   104   52   53 1    
   105   52   54 1    
   106   52  175 1    
   107   53  176 1    
   108   53  177 1    
   109   53  178 1    
   110   54   55 am   BACKBONE|DICT|INTERRES
   111   54  179 1    
   112   55   56 2    
   113   55   57 1    
   114   57   58 1    
   115   57   59 1    
   116   57  180 1    
   117   58  181 1    
   118   58  182 1    
   119   58  183 1    
   120   59   60 am   BACKBONE|DICT|INTERRES
   121   59  184 1    
   122   60   61 2    
   123   60   62 1    
   124   62   63 1    
   125   62   64 1    
   126   62  185 1    
   127   63  186 1    
   128   63  187 1    
   129   63  188 1    
   130   64   65 am   BACKBONE|DICT|INTERRES
   131   64  189 1    
   132   65   66 2    
   133   67   68 2    
   134   67   69 am   BACKBONE|DICT|INTERRES
   135   69   70 1    
   136   69  190 1    
   137   70   71 1    
   138   70   72 1    
   139   70  191 1    
   140   71  192 1    
   141   71  193 1    
   142   71  194 1    
   143   72   73 2    
   144   72   74 am   BACKBONE|DICT|INTERRES
   145   74   75 1    
   146   74  195 1    
   147   75   76 1    
   148   75   77 1    
   149   75  196 1    
   150   76  197 1    
   151   76  198 1    
   152   76  199 1    
   153   77   78 2    
   154   77   79 am   BACKBONE|DICT|INTERRES
   155   79   80 1    
   156   79  200 1    
   157   80   81 1    
   158   80   82 1    
   159   80  201 1    
   160   81  202 1    
   161   81  203 1    
   162   81  204 1    
   163   82   83 2    
   164   82   84 am   BACKBONE|DICT|INTERRES
   165   84   85 1    
   166   84  205 1    
   167   85   86 1    
   168   85   87 1    
   169   85  206 1    
   170   86  207 1    
   171   86  208 1    
   172   86  209 1    
   173   87   88 2    
   174   87   89 am   BACKBONE|DICT|INTERRES
   175   89   90 1    
   176   89  210 1    
   177   90   91 1    
   178   90   92 1    
   179   90  211 1    
   180   91  212 1    
   181   91  213 1    
   182   91  214 1    
   183   92   93 2    
   184   92   94 am   BACKBONE|DICT|INTERRES
   185   94   95 1    
   186   94  215 1    
   187   95   96 1    
   188   95   97 1    
   189   95  216 1    
   190   96  217 1    
   191   96  218 1    
   192   96  219 1    
   193   97   98 2    
   194   97   99 am   BACKBONE|DICT|INTERRES
   195   99  100 1    
   196   99  220 1    
   197  100  101 1    
   198  100  102 1    
   199  100  221 1    
   200  101  222 1    
   201  101  223 1    
   202  101  224 1    
   203  102  103 2    
   204  102  104 am   BACKBONE|DICT|INTERRES
   205  104  105 1    
   206  104  225 1    
   207  105  106 1    
   208  105  107 1    
   209  105  226 1    
   210  106  227 1    
   211  106  228 1    
   212  106  229 1    
   213  107  108 2    
   214  107  109 am   BACKBONE|DICT|INTERRES
   215  109  110 1    
   216  109  230 1    
   217  110  111 1    
   218  110  112 1    
   219  110  231 1    
   220  111  232 1    
   221  111  233 1    
   222  111  234 1    
   223  112  113 2    
   224  112  114 am   BACKBONE|DICT|INTERRES
   225  114  115 1    
   226  114  235 1    
   227  115  116 1    
   228  115  117 1    
   229  115  236 1    
   230  116  237 1    
   231  116  238 1    
   232  116  239 1    
   233  117  118 2    
   234  117  119 am   BACKBONE|DICT|INTERRES
   235  119  120 1    
   236  119  240 1    
   237  120  121 1    
   238  120  124 1    
   239  120  241 1    
   240  121  122 am   BACKBONE|DICT|INTERRES
   241  121  123 2    
   242  122  242 1    
   243  122  243 1    
   244  124  125 1    
   245  124  244 1    
   246  124  245 1    
   247  125  126 1    
   248  126  246 1    
   249  126  247 1    
@<TRIPOS>SUBSTRUCTURE
     1 UNK         1 GROUP             0       ****    0 ROOT    
