@<TRIPOS>MOLECULE
3R540
247   249    1
SMALL
USER_CHARGES


@<TRIPOS>ATOM
      1 CA         -3.2004  -11.4477  -41.5167 C.3       0 UNK        -0.1800 
      2 C          -2.8680  -11.6165  -42.9921 C.2       0 UNK         0.5000 
      3 O          -3.0869  -10.6952  -43.7794 O.2       0 UNK        -0.5000 
      4 N          -2.3306  -12.7854  -43.3684 N.am      1 UNK        -0.5000 
      5 CA         -1.9745  -13.1484  -44.7484 C.3       1 UNK         0.1400 
      6 C6         -1.5875  -14.6403  -44.8908 C.3       23 UNK        -0.0398 
      7 S7         -2.8872  -15.7758  -44.3026 S.3       23 UNK        -0.2404 
      8 C8         -3.9746  -15.8773  -45.7601 C.3       23 UNK        -0.0205 
      9 C9         -3.2994  -16.5317  -46.9570 C.ar      23 UNK        -0.0193 
     10 C10        -3.0698  -15.8009  -48.1281 C.ar      23 UNK        -0.1150 
     11 C11        -2.4950  -16.4142  -49.2458 C.ar      23 UNK        -0.0193 
     12 C12        -2.1364  -17.7623  -49.1774 C.ar      23 UNK        -0.1150 
     13 C13        -2.3448  -18.4974  -48.0098 C.ar      23 UNK        -0.0193 
     14 C14        -2.9308  -17.8787  -46.9032 C.ar      23 UNK        -0.1150 
     15 C15        -1.9330  -19.9561  -47.9453 C.3       23 UNK        -0.0205 
     16 S16        -3.3712  -21.0581  -48.0448 S.3       23 UNK        -0.2404 
     17 C17        -3.2392  -21.9722  -46.4759 C.3       23 UNK        -0.0398 
     18 CA         -2.4518  -23.2892  -46.6656 C.3       11 UNK         0.1400 
     19 N          -1.0011  -23.0852  -46.7633 N.am      11 UNK        -0.5000 
     20 C          -0.1375  -24.0260  -47.1725 C.2       10 UNK         0.5000 
     21 O          -0.4807  -25.1441  -47.5453 O.2       10 UNK        -0.5000 
     22 CA          1.3586  -23.6896  -47.1040 C.3       10 UNK         0.1400 
     23 CB          1.8053  -22.9259  -48.3597 C.3       10 UNK        -0.1800 
     24 N           1.6755  -22.9222  -45.9014 N.am      10 UNK        -0.5000 
     25 C           1.6931  -23.4459  -44.6668 C.2       9 UNK         0.5000 
     26 O           1.4950  -24.6391  -44.4350 O.2       9 UNK        -0.5000 
     27 CA          1.9331  -22.4785  -43.4902 C.3       9 UNK         0.1400 
     28 CB          3.4313  -22.3910  -43.1650 C.3       9 UNK        -0.1800 
     29 N           1.4134  -21.1291  -43.7219 N.am      9 UNK        -0.5000 
     30 C           0.1204  -20.8262  -43.9001 C.2       8 UNK         0.5000 
     31 O          -0.7863  -21.6596  -43.8665 O.2       8 UNK        -0.5000 
     32 CA         -0.2116  -19.3552  -44.2252 C.3       8 UNK         0.1400 
     33 CB         -0.3998  -18.5572  -42.9270 C.3       8 UNK        -0.1800 
     34 N           0.7605  -18.6546  -45.0770 N.am      8 UNK        -0.5000 
     35 C           1.2920  -19.0921  -46.2292 C.2       7 UNK         0.5000 
     36 O           1.1101  -20.2251  -46.6710 O.2       7 UNK        -0.5000 
     37 CA          2.1596  -18.1145  -47.0427 C.3       7 UNK         0.1400 
     38 CB          1.6105  -17.9645  -48.4711 C.3       7 UNK        -0.1800 
     39 N           2.2447  -16.7809  -46.4519 N.am      7 UNK        -0.5000 
     40 C           3.1524  -16.3594  -45.5666 C.2       6 UNK         0.5000 
     41 O           4.0029  -17.0952  -45.0643 O.2       6 UNK        -0.5000 
     42 CA          3.0965  -14.8547  -45.2097 C.3       6 UNK         0.1400 
     43 CB          4.2081  -14.4285  -44.2347 C.3       6 UNK        -0.1800 
     44 N           3.1544  -13.9918  -46.3964 N.am      6 UNK        -0.5000 
     45 C           2.1453  -13.7870  -47.2515 C.2       5 UNK         0.5000 
     46 O           1.0459  -14.3335  -47.1382 O.2       5 UNK        -0.5000 
     47 CA          2.4101  -12.8517  -48.4370 C.3       5 UNK         0.1400 
     48 CB          2.9246  -13.6646  -49.6405 C.3       5 UNK        -0.1800 
     49 N           1.1597  -12.1664  -48.7475 N.am      5 UNK        -0.5000 
     50 C           0.9716  -11.1870  -49.6392 C.2       4 UNK         0.5000 
     51 O           1.8595  -10.7227  -50.3553 O.2       4 UNK        -0.5000 
     52 CA         -0.4434  -10.5900  -49.7018 C.3       4 UNK         0.1400 
     53 CB         -1.5062  -11.6626  -50.0020 C.3       4 UNK        -0.1800 
     54 N          -0.7397   -9.9515  -48.4233 N.am      4 UNK        -0.5000 
     55 C          -0.6298   -8.6402  -48.1698 C.2       3 UNK         0.5000 
     56 O          -0.4120   -7.7902  -49.0342 O.2       3 UNK        -0.5000 
     57 CA         -0.7614   -8.1990  -46.6951 C.3       3 UNK         0.1400 
     58 CB         -2.2171   -7.8323  -46.3694 C.3       3 UNK        -0.1800 
     59 N          -0.3049   -9.2166  -45.7460 N.am      3 UNK        -0.5000 
     60 C           0.9521   -9.6749  -45.6570 C.2       2 UNK         0.5000 
     61 O           1.9012   -9.1784  -46.2641 O.2       2 UNK        -0.5000 
     62 CA          1.1973  -10.9171  -44.7747 C.3       2 UNK         0.1400 
     63 CB          1.8786  -10.5176  -43.4574 C.3       2 UNK        -0.1800 
     64 N           0.0122  -11.7245  -44.4631 N.am      2 UNK        -0.5000 
     65 C          -0.8523  -12.2695  -45.3340 C.2       1 UNK         0.5000 
     66 O          -0.8081  -12.0876  -46.5500 O.2       1 UNK        -0.5000 
     67 C          -2.8129  -24.3077  -45.5711 C.2       11 UNK         0.5000 
     68 O          -3.7262  -25.1051  -45.7829 O.2       11 UNK        -0.5000 
     69 N          -2.0770  -24.2993  -44.4517 N.am      12 UNK        -0.5000 
     70 CA         -2.2090  -25.2887  -43.3816 C.3       12 UNK         0.1400 
     71 CB         -1.3532  -24.8611  -42.1799 C.3       12 UNK        -0.1800 
     72 C          -1.8433  -26.7143  -43.8425 C.2       12 UNK         0.5000 
     73 O          -2.5200  -27.6680  -43.4571 O.2       12 UNK        -0.5000 
     74 N          -0.7996  -26.8295  -44.6751 N.am      13 UNK        -0.5000 
     75 CA         -0.3369  -28.0903  -45.2528 C.3       13 UNK         0.1400 
     76 CB          1.1106  -27.9204  -45.7407 C.3       13 UNK        -0.1800 
     77 C          -1.2412  -28.5933  -46.3943 C.2       13 UNK         0.5000 
     78 O          -1.5953  -29.7725  -46.4152 O.2       13 UNK        -0.5000 
     79 N          -1.5856  -27.6982  -47.3293 N.am      14 UNK        -0.5000 
     80 CA         -2.3028  -28.0109  -48.5686 C.3       14 UNK         0.1400 
     81 CB         -1.8841  -26.9959  -49.6461 C.3       14 UNK        -0.1800 
     82 C          -3.8364  -28.0317  -48.4229 C.2       14 UNK         0.5000 
     83 O          -4.5186  -28.3092  -49.4093 O.2       14 UNK        -0.5000 
     84 N          -4.3552  -27.7123  -47.2283 N.am      15 UNK        -0.5000 
     85 CA         -5.7776  -27.5817  -46.8889 C.3       15 UNK         0.1400 
     86 CB         -6.5044  -28.9391  -46.9922 C.3       15 UNK        -0.1800 
     87 C          -6.4537  -26.4584  -47.7027 C.2       15 UNK         0.5000 
     88 O          -7.4478  -26.6869  -48.3930 O.2       15 UNK        -0.5000 
     89 N          -5.8520  -25.2647  -47.6172 N.am      16 UNK        -0.5000 
     90 CA         -6.2338  -23.9895  -48.2373 C.3       16 UNK         0.1400 
     91 CB         -7.6594  -23.5691  -47.8284 C.3       16 UNK        -0.1800 
     92 C          -6.0267  -23.9018  -49.7632 C.2       16 UNK         0.5000 
     93 O          -6.2229  -22.8244  -50.3251 O.2       16 UNK        -0.5000 
     94 N          -5.5928  -24.9888  -50.4179 N.am      17 UNK        -0.5000 
     95 CA         -5.3618  -25.0431  -51.8670 C.3       17 UNK         0.1400 
     96 CB         -5.1246  -26.4998  -52.2887 C.3       17 UNK        -0.1800 
     97 C          -4.2084  -24.1395  -52.3514 C.2       17 UNK         0.5000 
     98 O          -4.2028  -23.7292  -53.5126 O.2       17 UNK        -0.5000 
     99 N          -3.2724  -23.8158  -51.4480 N.am      18 UNK        -0.5000 
    100 CA        -2.1410  -22.9191  -51.6909 C.3       18 UNK         0.1400 
    101 CB        -1.1092  -23.0990  -50.5688 C.3       18 UNK        -0.1800 
    102 C         -2.5322  -21.4336  -51.8296 C.2       18 UNK         0.5000 
    103 O         -1.6950  -20.6402  -52.2622 O.2       18 UNK        -0.5000 
    104 N         -3.7793  -21.0702  -51.4898 N.am      19 UNK        -0.5000 
    105 CA        -4.3032  -19.7019  -51.5611 C.3       19 UNK         0.1400 
    106 CB        -5.7044  -19.6551  -50.9360 C.3       19 UNK        -0.1800 
    107 C         -4.3249  -19.1153  -52.9847 C.2       19 UNK         0.5000 
    108 O         -4.2202  -17.8989  -53.1424 O.2       19 UNK        -0.5000 
    109 N         -4.4307  -19.9912  -53.9931 N.am      20 UNK        -0.5000 
    110 CA        -4.3507  -19.6404  -55.4101 C.3       20 UNK         0.1400 
    111 CB        -4.9127  -20.8066  -56.2376 C.3       20 UNK        -0.1800 
    112 C         -2.9193  -19.2957  -55.8700 C.2       20 UNK         0.5000 
    113 O         -2.7658  -18.5888  -56.8669 O.2       20 UNK        -0.5000 
    114 N         -1.9056  -19.8054  -55.1568 N.am      21 UNK        -0.5000 
    115 CA        -0.4910  -19.5927  -55.4535 C.3       21 UNK         0.1400 
    116 CB         0.2830  -20.8979  -55.2027 C.3       21 UNK        -0.1800 
    117 C          0.0848  -18.4438  -54.6120 C.2       21 UNK         0.5000 
    118 O          0.7168  -17.5452  -55.1684 O.2       21 UNK        -0.5000 
    119 N         -0.1464  -18.4930  -53.2920 N.am      22 UNK        -0.5000 
    120 CA         0.3780  -17.5431  -52.2948 C.3       22 UNK         0.1400 
    121 C          1.9343  -17.5499  -52.1594 C.2       22 UNK         0.5000 
    122 N          2.6010  -18.6671  -52.4264 N.am      22 UNK        -0.7600 
    123 O          2.5514  -16.5509  -51.8026 O.2       22 UNK        -0.5000 
    124 C124       -0.2429  -16.1237  -52.4496 C.3       23 UNK        -0.0398 
    125 S125       -0.5297  -15.2893  -50.8476 S.3       23 UNK        -0.2404 
    126 C126       -2.2918  -15.6365  -50.5374 C.3       23 UNK        -0.0205 
    127 H127       -4.2647  -11.2479  -41.3930 H         1 UNK         0.0600 
    128 H128       -2.6439  -10.6079  -41.1007 H         1 UNK         0.0600 
    129 H129       -2.9525  -12.3394  -40.9405 H         1 UNK         0.0600 
    130 H130       -2.1958  -13.5124  -42.6798 H         1 UNK         0.3000 
    131 H131       -2.8582  -12.9715  -45.3649 H         1 UNK         0.0600 
    132 H132       -0.6802  -14.8533  -44.3230 H         1 UNK         0.0800 
    133 H133       -1.3494  -14.8813  -45.9284 H         1 UNK         0.0800 
    134 H134       -4.3330  -14.8783  -46.0122 H         1 UNK         0.0800 
    135 H135       -4.8590  -16.4584  -45.4956 H         1 UNK         0.0800 
    136 H136       -3.3538  -14.7590  -48.1760 H         1 UNK         0.1150 
    137 H137       -1.6982  -18.2441  -50.0375 H         1 UNK         0.1150 
    138 H138       -3.1087  -18.4472  -46.0015 H         1 UNK         0.1150 
    139 H139       -1.2394  -20.2016  -48.7512 H         1 UNK         0.0800 
    140 H140       -1.3928  -20.1277  -47.0184 H         1 UNK         0.0800 
    141 H141       -4.2614  -22.1689  -46.1477 H         1 UNK         0.0800 
    142 H142       -2.7995  -21.3496  -45.6958 H         1 UNK         0.0800 
    143 H143       -2.7772  -23.7421  -47.6053 H         1 UNK         0.0600 
    144 H144       -0.6338  -22.2012  -46.4416 H         1 UNK         0.3000 
    145 H145        1.9148  -24.6288  -47.0677 H         1 UNK         0.0600 
    146 H146        2.8528  -22.6320  -48.2936 H         1 UNK         0.0600 
    147 H147        1.6979  -23.5501  -49.2474 H         1 UNK         0.0600 
    148 H148        1.2131  -22.0256  -48.5246 H         1 UNK         0.0600 
    149 H149        1.7602  -21.9169  -46.0199 H         1 UNK         0.3000 
    150 H150        1.4176  -22.8884  -42.6192 H         1 UNK         0.0600 
    151 H151        3.8456  -23.3799  -42.9636 H         1 UNK         0.0600 
    152 H152        3.6082  -21.7797  -42.2799 H         1 UNK         0.0600 
    153 H153        3.9977  -21.9595  -43.9912 H         1 UNK         0.0600 
    154 H154        2.0919  -20.3848  -43.7899 H         1 UNK         0.3000 
    155 H155       -1.1623  -19.3519  -44.7596 H         1 UNK         0.0600 
    156 H156        0.5262  -18.4979  -42.3538 H         1 UNK         0.0600 
    157 H157       -1.1536  -19.0201  -42.2884 H         1 UNK         0.0600 
    158 H158       -0.7315  -17.5397  -43.1315 H         1 UNK         0.0600 
    159 H159        0.9825  -17.7087  -44.8070 H         1 UNK         0.3000 
    160 H160        3.1599  -18.5473  -47.1058 H         1 UNK         0.0600 
    161 H161        0.6150  -17.5198  -48.4724 H         1 UNK         0.0600 
    162 H162        1.5442  -18.9276  -48.9792 H         1 UNK         0.0600 
    163 H163        2.2574  -17.3255  -49.0721 H         1 UNK         0.0600 
    164 H164        1.5945  -16.0850  -46.8113 H         1 UNK         0.3000 
    165 H165        2.1414  -14.6846  -44.7078 H         1 UNK         0.0600 
    166 H166        4.1051  -13.3800  -43.9542 H         1 UNK         0.0600 
    167 H167        4.1685  -15.0131  -43.3146 H         1 UNK         0.0600 
    168 H168        5.1991  -14.5647  -44.6694 H         1 UNK         0.0600 
    169 H169        4.0452  -13.5522  -46.5790 H         1 UNK         0.3000 
    170 H170        3.1522  -12.1054  -48.1474 H         1 UNK         0.0600 
    171 H171        3.8296  -14.2158  -49.3826 H         1 UNK         0.0600 
    172 H172        2.1860  -14.3935  -49.9744 H         1 UNK         0.0600 
    173 H173        3.1709  -13.0268  -50.4885 H         1 UNK         0.0600 
    174 H174        0.3790  -12.4658  -48.1678 H         1 UNK         0.3000 
    175 H175       -0.4686   -9.8575  -50.5113 H         1 UNK         0.0600 
    176 H176       -1.5622  -12.4211  -49.2201 H         1 UNK         0.0600 
    177 H177       -2.4953  -11.2154  -50.0997 H         1 UNK         0.0600 
    178 H178       -1.2868  -12.1746  -50.9397 H         1 UNK         0.0600 
    179 H179       -0.8714  -10.5874  -47.6405 H         1 UNK         0.3000 
    180 H180       -0.1432   -7.3094  -46.5587 H         1 UNK         0.0600 
    181 H181       -2.3089   -7.4454  -45.3544 H         1 UNK         0.0600 
    182 H182       -2.8783   -8.6953  -46.4601 H         1 UNK         0.0600 
    183 H183       -2.5871   -7.0610  -47.0462 H         1 UNK         0.0600 
    184 H184       -1.0210   -9.6861  -45.2087 H         1 UNK         0.3000 
    185 H185        1.8853  -11.5588  -45.3257 H         1 UNK         0.0600 
    186 H186        2.1697  -11.3959  -42.8808 H         1 UNK         0.0600 
    187 H187        2.7852   -9.9399  -43.6431 H         1 UNK         0.0600 
    188 H188        1.2219   -9.9078  -42.8357 H         1 UNK         0.0600 
    189 H189       -0.1448  -11.9120  -43.4837 H         1 UNK         0.3000 
    190 H190       -1.3887  -23.5653  -44.3221 H         1 UNK         0.3000 
    191 H191       -3.2544  -25.3000  -43.0657 H         1 UNK         0.0600 
    192 H192       -1.4840  -25.5501  -41.3446 H         1 UNK         0.0600 
    193 H193       -1.6327  -23.8671  -41.8298 H         1 UNK         0.0600 
    194 H194       -0.2916  -24.8428  -42.4253 H         1 UNK         0.0600 
    195 H195       -0.2747  -25.9980  -44.9153 H         1 UNK         0.3000 
    196 H196       -0.3371  -28.8498  -44.4680 H         1 UNK         0.0600 
    197 H197        1.1907  -27.1546  -46.5130 H         1 UNK         0.0600 
    198 H198        1.7707  -27.6357  -44.9211 H         1 UNK         0.0600 
    199 H199        1.4940  -28.8516  -46.1597 H         1 UNK         0.0600 
    200 H200       -1.2223  -26.7487  -47.2589 H         1 UNK         0.3000 
    201 H201       -1.9980  -29.0028  -48.9085 H         1 UNK         0.0600 
    202 H202       -2.2555  -25.9958  -49.4208 H         1 UNK         0.0600 
    203 H203       -2.2696  -27.2799  -50.6248 H         1 UNK         0.0600 
    204 H204       -0.7992  -26.9378  -49.7359 H         1 UNK         0.0600 
    205 H205       -3.7071  -27.4423  -46.5005 H         1 UNK         0.3000 
    206 H206       -5.8158  -27.2705  -45.8438 H         1 UNK         0.0600 
    207 H207       -6.0069  -29.6982  -46.3887 H         1 UNK         0.0600 
    208 H208       -7.5301  -28.8576  -46.6311 H         1 UNK         0.0600 
    209 H209       -6.5500  -29.3039  -48.0186 H         1 UNK         0.0600 
    210 H210       -5.0392  -25.2178  -47.0043 H         1 UNK         0.3000 
    211 H211       -5.5537  -23.2514  -47.8152 H         1 UNK         0.0600 
    212 H212       -7.8754  -22.5521  -48.1581 H         1 UNK         0.0600 
    213 H213       -7.7818  -23.5900  -46.7455 H         1 UNK         0.0600 
    214 H214       -8.4176  -24.2183  -48.2664 H         1 UNK         0.0600 
    215 H215       -5.4790  -25.8514  -49.9034 H         1 UNK         0.3000 
    216 H216       -6.2718  -24.6946  -52.3600 H         1 UNK         0.0600 
    217 H217       -4.2242  -26.9094  -51.8328 H         1 UNK         0.0600 
    218 H218       -5.0098  -26.5802  -53.3704 H         1 UNK         0.0600 
    219 H219       -5.9626  -27.1357  -52.0025 H         1 UNK         0.0600 
    220 H220       -3.3661  -24.1867  -50.5153 H         1 UNK         0.3000 
    221 H221       -1.6709  -23.2138  -52.6314 H         1 UNK         0.0600 
    222 H222       -0.7660  -24.1317  -50.5045 H         1 UNK         0.0600 
    223 H223       -1.5212  -22.8203  -49.6004 H         1 UNK         0.0600 
    224 H224       -0.2306  -22.4760  -50.7411 H         1 UNK         0.0600 
    225 H225       -4.4160  -21.7730  -51.1349 H         1 UNK         0.3000 
    226 H226       -3.6499  -19.0691  -50.9641 H         1 UNK         0.0600 
    227 H227       -6.4087  -20.2840  -51.4817 H         1 UNK         0.0600 
    228 H228       -5.6852  -19.9933  -49.8998 H         1 UNK         0.0600 
    229 H229       -6.0994  -18.6385  -50.9373 H         1 UNK         0.0600 
    230 H230       -4.5145  -20.9735  -53.7703 H         1 UNK         0.3000 
    231 H231       -4.9758  -18.7625  -55.5867 H         1 UNK         0.0600 
    232 H232       -4.3385  -21.7216  -56.0847 H         1 UNK         0.0600 
    233 H233       -4.8893  -20.5775  -57.3039 H         1 UNK         0.0600 
    234 H234       -5.9500  -21.0137  -55.9735 H         1 UNK         0.0600 
    235 H235       -2.1150  -20.3158  -54.3086 H         1 UNK         0.3000 
    236 H236       -0.3645  -19.3330  -56.5068 H         1 UNK         0.0600 
    237 H237       -0.0809  -21.6982  -55.8472 H         1 UNK         0.0600 
    238 H238        1.3449  -20.7679  -55.4152 H         1 UNK         0.0600 
    239 H239        0.1935  -21.2365  -54.1701 H         1 UNK         0.0600 
    240 H240       -0.6801  -19.2750  -52.9178 H         1 UNK         0.3000 
    241 H241        0.0387  -17.9495  -51.3442 H         1 UNK         0.0600 
    242 H242        3.6048  -18.6739  -52.3399 H         1 UNK         0.3800 
    243 H243        2.1164  -19.5002  -52.7178 H         1 UNK         0.3800 
    244 H244       -1.1912  -16.1772  -52.9854 H         1 UNK         0.0800 
    245 H245        0.3921  -15.4880  -53.0687 H         1 UNK         0.0800 
    246 H246       -2.8296  -14.6880  -50.5016 H         1 UNK         0.0800 
    247 H247       -2.7330  -16.2016  -51.3590 H         1 UNK         0.0800 
@<TRIPOS>BOND
     1    1    2 1    
     2    1  127 1    
     3    1  128 1    
     4    1  129 1    
     5    2    3 2    
     6    2    4 am   BACKBONE|DICT|INTERRES
     7    4    5 1    
     8    4  130 1    
     9    5    6 1    
    10    5   65 1    
    11    5  131 1    
    12    6    7 1    
    13    6  132 1    
    14    6  133 1    
    15    7    8 1    
    16    8    9 1    
    17    8  134 1    
    18    8  135 1    
    19    9   10 ar   
    20    9   14 ar   
    21   10   11 ar   
    22   10  136 1    
    23   11   12 ar   
    24   11  126 1    
    25   12   13 ar   
    26   12  137 1    
    27   13   14 ar   
    28   13   15 1    
    29   14  138 1    
    30   15   16 1    
    31   15  139 1    
    32   15  140 1    
    33   16   17 1    
    34   17   18 1    
    35   17  141 1    
    36   17  142 1    
    37   18   19 1    
    38   18   67 1    
    39   18  143 1    
    40   19   20 am   BACKBONE|DICT|INTERRES
    41   19  144 1    
    42   20   21 2    
    43   20   22 1    
    44   22   23 1    
    45   22   24 1    
    46   22  145 1    
    47   23  146 1    
    48   23  147 1    
    49   23  148 1    
    50   24   25 am   BACKBONE|DICT|INTERRES
    51   24  149 1    
    52   25   26 2    
    53   25   27 1    
    54   27   28 1    
    55   27   29 1    
    56   27  150 1    
    57   28  151 1    
    58   28  152 1    
    59   28  153 1    
    60   29   30 am   BACKBONE|DICT|INTERRES
    61   29  154 1    
    62   30   31 2    
    63   30   32 1    
    64   32   33 1    
    65   32   34 1    
    66   32  155 1    
    67   33  156 1    
    68   33  157 1    
    69   33  158 1    
    70   34   35 am   BACKBONE|DICT|INTERRES
    71   34  159 1    
    72   35   36 2    
    73   35   37 1    
    74   37   38 1    
    75   37   39 1    
    76   37  160 1    
    77   38  161 1    
    78   38  162 1    
    79   38  163 1    
    80   39   40 am   BACKBONE|DICT|INTERRES
    81   39  164 1    
    82   40   41 2    
    83   40   42 1    
    84   42   43 1    
    85   42   44 1    
    86   42  165 1    
    87   43  166 1    
    88   43  167 1    
    89   43  168 1    
    90   44   45 am   BACKBONE|DICT|INTERRES
    91   44  169 1    
    92   45   46 2    
    93   45   47 1    
    94   47   48 1    
    95   47   49 1    
    96   47  170 1    
    97   48  171 1    
    98   48  172 1    
    99   48  173 1    
   100   49   50 am   BACKBONE|DICT|INTERRES
   101   49  174 1    
   102   50   51 2    
   103   50   52 1    
   104   52   53 1    
   105   52   54 1    
   106   52  175 1    
   107   53  176 1    
   108   53  177 1    
   109   53  178 1    
   110   54   55 am   BACKBONE|DICT|INTERRES
   111   54  179 1    
   112   55   56 2    
   113   55   57 1    
   114   57   58 1    
   115   57   59 1    
   116   57  180 1    
   117   58  181 1    
   118   58  182 1    
   119   58  183 1    
   120   59   60 am   BACKBONE|DICT|INTERRES
   121   59  184 1    
   122   60   61 2    
   123   60   62 1    
   124   62   63 1    
   125   62   64 1    
   126   62  185 1    
   127   63  186 1    
   128   63  187 1    
   129   63  188 1    
   130   64   65 am   BACKBONE|DICT|INTERRES
   131   64  189 1    
   132   65   66 2    
   133   67   68 2    
   134   67   69 am   BACKBONE|DICT|INTERRES
   135   69   70 1    
   136   69  190 1    
   137   70   71 1    
   138   70   72 1    
   139   70  191 1    
   140   71  192 1    
   141   71  193 1    
   142   71  194 1    
   143   72   73 2    
   144   72   74 am   BACKBONE|DICT|INTERRES
   145   74   75 1    
   146   74  195 1    
   147   75   76 1    
   148   75   77 1    
   149   75  196 1    
   150   76  197 1    
   151   76  198 1    
   152   76  199 1    
   153   77   78 2    
   154   77   79 am   BACKBONE|DICT|INTERRES
   155   79   80 1    
   156   79  200 1    
   157   80   81 1    
   158   80   82 1    
   159   80  201 1    
   160   81  202 1    
   161   81  203 1    
   162   81  204 1    
   163   82   83 2    
   164   82   84 am   BACKBONE|DICT|INTERRES
   165   84   85 1    
   166   84  205 1    
   167   85   86 1    
   168   85   87 1    
   169   85  206 1    
   170   86  207 1    
   171   86  208 1    
   172   86  209 1    
   173   87   88 2    
   174   87   89 am   BACKBONE|DICT|INTERRES
   175   89   90 1    
   176   89  210 1    
   177   90   91 1    
   178   90   92 1    
   179   90  211 1    
   180   91  212 1    
   181   91  213 1    
   182   91  214 1    
   183   92   93 2    
   184   92   94 am   BACKBONE|DICT|INTERRES
   185   94   95 1    
   186   94  215 1    
   187   95   96 1    
   188   95   97 1    
   189   95  216 1    
   190   96  217 1    
   191   96  218 1    
   192   96  219 1    
   193   97   98 2    
   194   97   99 am   BACKBONE|DICT|INTERRES
   195   99  100 1    
   196   99  220 1    
   197  100  101 1    
   198  100  102 1    
   199  100  221 1    
   200  101  222 1    
   201  101  223 1    
   202  101  224 1    
   203  102  103 2    
   204  102  104 am   BACKBONE|DICT|INTERRES
   205  104  105 1    
   206  104  225 1    
   207  105  106 1    
   208  105  107 1    
   209  105  226 1    
   210  106  227 1    
   211  106  228 1    
   212  106  229 1    
   213  107  108 2    
   214  107  109 am   BACKBONE|DICT|INTERRES
   215  109  110 1    
   216  109  230 1    
   217  110  111 1    
   218  110  112 1    
   219  110  231 1    
   220  111  232 1    
   221  111  233 1    
   222  111  234 1    
   223  112  113 2    
   224  112  114 am   BACKBONE|DICT|INTERRES
   225  114  115 1    
   226  114  235 1    
   227  115  116 1    
   228  115  117 1    
   229  115  236 1    
   230  116  237 1    
   231  116  238 1    
   232  116  239 1    
   233  117  118 2    
   234  117  119 am   BACKBONE|DICT|INTERRES
   235  119  120 1    
   236  119  240 1    
   237  120  121 1    
   238  120  124 1    
   239  120  241 1    
   240  121  122 am   BACKBONE|DICT|INTERRES
   241  121  123 2    
   242  122  242 1    
   243  122  243 1    
   244  124  125 1    
   245  124  244 1    
   246  124  245 1    
   247  125  126 1    
   248  126  246 1    
   249  126  247 1    
@<TRIPOS>SUBSTRUCTURE
     1 UNK         1 GROUP             0       ****    0 ROOT    
