@<TRIPOS>MOLECULE
3R540
247   249    1
SMALL
USER_CHARGES


@<TRIPOS>ATOM
      1 CA          1.4277  -12.7028  -51.1760 C.3       0 UNK        -0.1800 
      2 C           1.6277  -13.7647  -50.1035 C.2       0 UNK         0.5000 
      3 O           1.9499  -13.4207  -48.9676 O.2       0 UNK        -0.5000 
      4 N           1.4214  -15.0365  -50.4736 N.am      1 UNK        -0.5000 
      5 CA          1.5590  -16.2551  -49.6641 C.3       1 UNK         0.1400 
      6 C6          0.2668  -16.6581  -48.8929 C.3       23 UNK        -0.0398 
      7 S7         -0.2059  -15.6613  -47.4317 S.3       23 UNK        -0.2404 
      8 C8         -1.3614  -14.4072  -48.0847 C.3       23 UNK        -0.0205 
      9 C9         -2.5801  -15.0114  -48.7635 C.ar      23 UNK        -0.0193 
     10 C10        -2.6219  -15.1189  -50.1567 C.ar      23 UNK        -0.1150 
     11 C11        -3.7183  -15.7065  -50.7913 C.ar      23 UNK        -0.0193 
     12 C12        -4.7930  -16.1568  -50.0209 C.ar      23 UNK        -0.1150 
     13 C13        -4.7732  -16.0427  -48.6279 C.ar      23 UNK        -0.0193 
     14 C14        -3.6653  -15.4585  -48.0045 C.ar      23 UNK        -0.1150 
     15 C15        -5.9545  -16.5651  -47.8161 C.3       23 UNK        -0.0205 
     16 S16        -5.4918  -17.6964  -46.4591 S.3       23 UNK        -0.2404 
     17 C17        -4.3129  -18.8480  -47.2499 C.3       23 UNK        -0.0398 
     18 CA         -2.9167  -18.7621  -46.5667 C.3       11 UNK         0.1400 
     19 N          -2.9534  -19.1571  -45.1548 N.am      11 UNK        -0.5000 
     20 C          -3.2519  -20.3702  -44.6643 C.2       10 UNK         0.5000 
     21 O          -3.5807  -21.3255  -45.3697 O.2       10 UNK        -0.5000 
     22 CA         -3.1735  -20.5626  -43.1346 C.3       10 UNK         0.1400 
     23 CB         -2.2625  -21.7489  -42.7746 C.3       10 UNK        -0.1800 
     24 N          -2.6841  -19.3645  -42.4490 N.am      10 UNK        -0.5000 
     25 C          -3.4609  -18.4143  -41.9080 C.2       9 UNK         0.5000 
     26 O          -4.6879  -18.4945  -41.8441 O.2       9 UNK        -0.5000 
     27 CA         -2.7636  -17.1468  -41.3649 C.3       9 UNK         0.1400 
     28 CB         -2.5932  -17.2382  -39.8411 C.3       9 UNK        -0.1800 
     29 N          -1.4579  -16.8785  -41.9709 N.am      9 UNK        -0.5000 
     30 C          -1.2401  -16.6370  -43.2711 C.2       8 UNK         0.5000 
     31 O          -2.1415  -16.5242  -44.1006 O.2       8 UNK        -0.5000 
     32 CA          0.2270  -16.5792  -43.7348 C.3       8 UNK         0.1400 
     33 CB          0.7179  -15.1262  -43.7742 C.3       8 UNK        -0.1800 
     34 N           1.1382  -17.3801  -42.9113 N.am      8 UNK        -0.5000 
     35 C           1.0623  -18.7087  -42.7399 C.2       7 UNK         0.5000 
     36 O           0.1883  -19.4112  -43.2438 O.2       7 UNK        -0.5000 
     37 CA          2.1010  -19.3510  -41.8065 C.3       7 UNK         0.1400 
     38 CB          3.4431  -19.5603  -42.5215 C.3       7 UNK        -0.1800 
     39 N           2.3059  -18.5369  -40.6113 N.am      7 UNK        -0.5000 
     40 C           1.5033  -18.5601  -39.5388 C.2       6 UNK         0.5000 
     41 O           0.5520  -19.3310  -39.4118 O.2       6 UNK        -0.5000 
     42 CA          1.8024  -17.5371  -38.4264 C.3       6 UNK         0.1400 
     43 CB          2.7624  -18.1363  -37.3877 C.3       6 UNK        -0.1800 
     44 N           2.3666  -16.2852  -38.9348 N.am      6 UNK        -0.5000 
     45 C           1.7003  -15.4035  -39.6933 C.2       5 UNK         0.5000 
     46 O           0.5262  -15.5442  -40.0356 O.2       5 UNK        -0.5000 
     47 CA          2.4976  -14.1804  -40.1848 C.3       5 UNK         0.1400 
     48 CB          2.4546  -13.0554  -39.1399 C.3       5 UNK        -0.1800 
     49 N           3.8946  -14.4792  -40.5192 N.am      5 UNK        -0.5000 
     50 C           4.2860  -15.3388  -41.4689 C.2       4 UNK         0.5000 
     51 O           3.5103  -16.0392  -42.1218 O.2       4 UNK        -0.5000 
     52 CA          5.7970  -15.4785  -41.7020 C.3       4 UNK         0.1400 
     53 CB          6.3047  -16.8190  -41.1482 C.3       4 UNK        -0.1800 
     54 N           6.0942  -15.4041  -43.1307 N.am      4 UNK        -0.5000 
     55 C           6.2031  -14.2614  -43.8221 C.2       3 UNK         0.5000 
     56 O           6.1199  -13.1437  -43.3108 O.2       3 UNK        -0.5000 
     57 CA          6.4597  -14.3833  -45.3366 C.3       3 UNK         0.1400 
     58 CB          7.9687  -14.4211  -45.6241 C.3       3 UNK        -0.1800 
     59 N           5.8283  -15.5633  -45.9324 N.am      3 UNK        -0.5000 
     60 C           4.5188  -15.6601  -46.1948 C.2       2 UNK         0.5000 
     61 O           3.7063  -14.7638  -45.9604 O.2       2 UNK        -0.5000 
     62 CA          4.0435  -16.9995  -46.7871 C.3       2 UNK         0.1400 
     63 CB          3.6994  -17.9864  -45.6644 C.3       2 UNK        -0.1800 
     64 N           2.8684  -16.8331  -47.6406 N.am      2 UNK        -0.5000 
     65 C           2.8989  -16.3528  -48.8896 C.2       1 UNK         0.5000 
     66 O           3.9466  -16.0502  -49.4675 O.2       1 UNK        -0.5000 
     67 C          -1.7766  -19.4953  -47.3129 C.2       11 UNK         0.5000 
     68 O          -0.7908  -19.8920  -46.6851 O.2       11 UNK        -0.5000 
     69 N          -1.8850  -19.6476  -48.6397 N.am      12 UNK        -0.5000 
     70 CA         -0.9544  -20.4338  -49.4477 C.3       12 UNK         0.1400 
     71 CB         -1.0578  -19.9962  -50.9178 C.3       12 UNK        -0.1800 
     72 C          -1.2481  -21.9317  -49.2542 C.2       12 UNK         0.5000 
     73 O          -1.9845  -22.5243  -50.0453 O.2       12 UNK        -0.5000 
     74 N          -0.7142  -22.5051  -48.1683 N.am      13 UNK        -0.5000 
     75 CA         -0.9349  -23.8866  -47.7280 C.3       13 UNK         0.1400 
     76 CB         -0.1555  -24.1326  -46.4284 C.3       13 UNK        -0.1800 
     77 C          -0.5791  -24.9455  -48.7896 C.2       13 UNK         0.5000 
     78 O          -1.3000  -25.9338  -48.9268 O.2       13 UNK        -0.5000 
     79 N           0.4800  -24.6796  -49.5674 N.am      14 UNK        -0.5000 
     80 CA          0.9240  -25.4932  -50.7036 C.3       14 UNK         0.1400 
     81 CB          2.3019  -24.9912  -51.1615 C.3       14 UNK        -0.1800 
     82 C          -0.0647  -25.5037  -51.8895 C.2       14 UNK         0.5000 
     83 O          -0.0259  -26.4305  -52.6987 O.2       14 UNK        -0.5000 
     84 N          -0.9419  -24.4941  -51.9580 N.am      15 UNK        -0.5000 
     85 CA         -2.0234  -24.3565  -52.9320 C.3       15 UNK         0.1400 
     86 CB         -2.0058  -22.9197  -53.4827 C.3       15 UNK        -0.1800 
     87 C          -3.3840  -24.7205  -52.3027 C.2       15 UNK         0.5000 
     88 O          -4.4131  -24.2089  -52.7460 O.2       15 UNK        -0.5000 
     89 N          -3.3646  -25.5824  -51.2727 N.am      16 UNK        -0.5000 
     90 CA         -4.5095  -26.0810  -50.5041 C.3       16 UNK         0.1400 
     91 CB         -5.4231  -26.9552  -51.3889 C.3       16 UNK        -0.1800 
     92 C          -5.2600  -24.9462  -49.7801 C.2       16 UNK         0.5000 
     93 O          -6.4767  -24.8181  -49.9143 O.2       16 UNK        -0.5000 
     94 N          -4.4948  -24.1178  -49.0541 N.am      17 UNK        -0.5000 
     95 CA         -4.9274  -22.8934  -48.3662 C.3       17 UNK         0.1400 
     96 CB         -5.9040  -23.2087  -47.2149 C.3       17 UNK        -0.1800 
     97 C          -5.4683  -21.8487  -49.3634 C.2       17 UNK         0.5000 
     98 O          -6.5212  -21.2501  -49.1432 O.2       17 UNK        -0.5000 
     99 N          -4.7188  -21.6830  -50.4610 N.am      18 UNK        -0.5000 
    100 CA        -4.9625  -20.8144  -51.6134 C.3       18 UNK         0.1400 
    101 CB        -4.9951  -19.3310  -51.1986 C.3       18 UNK        -0.1800 
    102 C         -6.1665  -21.1918  -52.4985 C.2       18 UNK         0.5000 
    103 O         -6.4693  -20.4401  -53.4272 O.2       18 UNK        -0.5000 
    104 N         -6.8012  -22.3479  -52.2548 N.am      19 UNK        -0.5000 
    105 CA        -7.9309  -22.8590  -53.0362 C.3       19 UNK         0.1400 
    106 CB        -8.4846  -24.1301  -52.3790 C.3       19 UNK        -0.1800 
    107 C         -7.5855  -23.1204  -54.5143 C.2       19 UNK         0.5000 
    108 O         -8.4277  -22.8864  -55.3822 O.2       19 UNK        -0.5000 
    109 N         -6.3408  -23.5341  -54.7891 N.am      20 UNK        -0.5000 
    110 CA        -5.7833  -23.6909  -56.1336 C.3       20 UNK         0.1400 
    111 CB        -4.6871  -24.7710  -56.0991 C.3       20 UNK        -0.1800 
    112 C         -5.2831  -22.3430  -56.7011 C.2       20 UNK         0.5000 
    113 O         -4.1311  -22.2399  -57.1270 O.2       20 UNK        -0.5000 
    114 N         -6.1558  -21.3236  -56.6707 N.am      21 UNK        -0.5000 
    115 CA        -5.9764  -19.9601  -57.1915 C.3       21 UNK         0.1400 
    116 CB        -6.0325  -19.9800  -58.7328 C.3       21 UNK        -0.1800 
    117 C         -4.7205  -19.2366  -56.6535 C.2       21 UNK         0.5000 
    118 O         -4.0756  -18.4851  -57.3872 O.2       21 UNK        -0.5000 
    119 N         -4.3850  -19.4973  -55.3838 N.am      22 UNK        -0.5000 
    120 CA        -3.1509  -19.0593  -54.7086 C.3       22 UNK         0.1400 
    121 C         -1.8283  -19.6713  -55.2748 C.2       22 UNK         0.5000 
    122 N         -1.8690  -20.7007  -56.1134 N.am      22 UNK        -0.7600 
    123 O         -0.7372  -19.2273  -54.9297 O.2       22 UNK        -0.5000 
    124 C124       -3.0805  -17.5134  -54.5220 C.3       23 UNK        -0.0398 
    125 S125       -2.4748  -17.0549  -52.8597 S.3       23 UNK        -0.2404 
    126 C126       -3.7389  -15.8668  -52.3043 C.3       23 UNK        -0.0205 
    127 H127        1.1300  -13.1382  -52.1304 H         1 UNK         0.0600 
    128 H128        2.3522  -12.1461  -51.3299 H         1 UNK         0.0600 
    129 H129        0.6529  -12.0007  -50.8676 H         1 UNK         0.0600 
    130 H130        1.1840  -15.2092  -51.4399 H         1 UNK         0.3000 
    131 H131        1.6721  -17.0319  -50.4221 H         1 UNK         0.0600 
    132 H132        0.3724  -17.6865  -48.5459 H         1 UNK         0.0800 
    133 H133       -0.5673  -16.7023  -49.5902 H         1 UNK         0.0800 
    134 H134       -0.8385  -13.7433  -48.7711 H         1 UNK         0.0800 
    135 H135       -1.6874  -13.7770  -47.2562 H         1 UNK         0.0800 
    136 H136       -1.7865  -14.7722  -50.7491 H         1 UNK         0.1150 
    137 H137       -5.6468  -16.6052  -50.5085 H         1 UNK         0.1150 
    138 H138       -3.6378  -15.3716  -46.9269 H         1 UNK         0.1150 
    139 H139       -6.4945  -15.7158  -47.3961 H         1 UNK         0.0800 
    140 H140       -6.6615  -17.0876  -48.4625 H         1 UNK         0.0800 
    141 H141       -4.2598  -18.6173  -48.3118 H         1 UNK         0.0800 
    142 H142       -4.7220  -19.8561  -47.1876 H         1 UNK         0.0800 
    143 H143       -2.6117  -17.7152  -46.5695 H         1 UNK         0.0600 
    144 H144       -2.6891  -18.4240  -44.5076 H         1 UNK         0.3000 
    145 H145       -4.1814  -20.8010  -42.7895 H         1 UNK         0.0600 
    146 H146       -2.1842  -21.8746  -41.6946 H         1 UNK         0.0600 
    147 H147       -2.6560  -22.6811  -43.1817 H         1 UNK         0.0600 
    148 H148       -1.2557  -21.6209  -43.1725 H         1 UNK         0.0600 
    149 H149       -1.6809  -19.2159  -42.4993 H         1 UNK         0.3000 
    150 H150       -3.4117  -16.2969  -41.5878 H         1 UNK         0.0600 
    151 H151       -3.5524  -17.4025  -39.3485 H         1 UNK         0.0600 
    152 H152       -2.1730  -16.3180  -39.4345 H         1 UNK         0.0600 
    153 H153       -1.9341  -18.0603  -39.5603 H         1 UNK         0.0600 
    154 H154       -0.6594  -16.8827  -41.3480 H         1 UNK         0.3000 
    155 H155        0.2668  -16.9849  -44.7473 H         1 UNK         0.0600 
    156 H156        0.6606  -14.6592  -42.7919 H         1 UNK         0.0600 
    157 H157        0.1128  -14.5291  -44.4575 H         1 UNK         0.0600 
    158 H158        1.7503  -15.0657  -44.1175 H         1 UNK         0.0600 
    159 H159        1.9205  -16.8799  -42.4950 H         1 UNK         0.3000 
    160 H160        1.7241  -20.3334  -41.5129 H         1 UNK         0.0600 
    161 H161        4.1473  -20.0965  -41.8854 H         1 UNK         0.0600 
    162 H162        3.9019  -18.6128  -42.8005 H         1 UNK         0.0600 
    163 H163        3.3138  -20.1469  -43.4319 H         1 UNK         0.0600 
    164 H164        3.0311  -17.8358  -40.6594 H         1 UNK         0.3000 
    165 H165        0.8585  -17.3060  -37.9280 H         1 UNK         0.0600 
    166 H166        2.9219  -17.4501  -36.5557 H         1 UNK         0.0600 
    167 H167        2.3599  -19.0610  -36.9720 H         1 UNK         0.0600 
    168 H168        3.7348  -18.3684  -37.8240 H         1 UNK         0.0600 
    169 H169        3.3289  -16.0890  -38.7021 H         1 UNK         0.3000 
    170 H170        2.0144  -13.8145  -41.0920 H         1 UNK         0.0600 
    171 H171        1.4254  -12.7970  -38.8867 H         1 UNK         0.0600 
    172 H172        2.9578  -13.3431  -38.2160 H         1 UNK         0.0600 
    173 H173        2.9318  -12.1499  -39.5150 H         1 UNK         0.0600 
    174 H174        4.5958  -13.9500  -40.0210 H         1 UNK         0.3000 
    175 H175        6.3203  -14.6732  -41.1817 H         1 UNK         0.0600 
    176 H176        5.8350  -17.6684  -41.6448 H         1 UNK         0.0600 
    177 H177        7.3832  -16.9131  -41.2759 H         1 UNK         0.0600 
    178 H178        6.0959  -16.9059  -40.0811 H         1 UNK         0.0600 
    179 H179        6.1246  -16.2779  -43.6332 H         1 UNK         0.3000 
    180 H180        6.0487  -13.4909  -45.8142 H         1 UNK         0.0600 
    181 H181        8.4418  -15.3005  -45.1853 H         1 UNK         0.0600 
    182 H182        8.4663  -13.5416  -45.2132 H         1 UNK         0.0600 
    183 H183        8.1659  -14.4326  -46.6963 H         1 UNK         0.0600 
    184 H184        6.4365  -16.3389  -46.1528 H         1 UNK         0.3000 
    185 H185        4.8506  -17.4271  -47.3860 H         1 UNK         0.0600 
    186 H186        3.3410  -18.9360  -46.0621 H         1 UNK         0.0600 
    187 H187        4.5779  -18.2000  -45.0552 H         1 UNK         0.0600 
    188 H188        2.9299  -17.5849  -45.0058 H         1 UNK         0.0600 
    189 H189        1.9707  -16.9752  -47.2008 H         1 UNK         0.3000 
    190 H190       -2.6958  -19.2885  -49.1189 H         1 UNK         0.3000 
    191 H191        0.0696  -20.2412  -49.1204 H         1 UNK         0.0600 
    192 H192       -0.3840  -20.5784  -51.5475 H         1 UNK         0.0600 
    193 H193       -0.7840  -18.9478  -51.0355 H         1 UNK         0.0600 
    194 H194       -2.0632  -20.1223  -51.3143 H         1 UNK         0.0600 
    195 H195       -0.2030  -21.9083  -47.5294 H         1 UNK         0.3000 
    196 H196       -1.9975  -23.9910  -47.5033 H         1 UNK         0.0600 
    197 H197       -0.3164  -25.1471  -46.0612 H         1 UNK         0.0600 
    198 H198       -0.4773  -23.4490  -45.6419 H         1 UNK         0.0600 
    199 H199        0.9177  -23.9998  -46.5705 H         1 UNK         0.0600 
    200 H200        1.0047  -23.8368  -49.3842 H         1 UNK         0.3000 
    201 H201        1.0308  -26.5238  -50.3587 H         1 UNK         0.0600 
    202 H202        2.2598  -23.9559  -51.5022 H         1 UNK         0.0600 
    203 H203        2.6832  -25.5933  -51.9875 H         1 UNK         0.0600 
    204 H204        3.0324  -25.0511  -50.3545 H         1 UNK         0.0600 
    205 H205       -0.9471  -23.8023  -51.2172 H         1 UNK         0.3000 
    206 H206       -1.8710  -25.0393  -53.7698 H         1 UNK         0.0600 
    207 H207       -1.0566  -22.7008  -53.9715 H         1 UNK         0.0600 
    208 H208       -2.7914  -22.7607  -54.2216 H         1 UNK         0.0600 
    209 H209       -2.1461  -22.1850  -52.6924 H         1 UNK         0.0600 
    210 H210       -2.4613  -25.9061  -50.9524 H         1 UNK         0.3000 
    211 H211       -4.1011  -26.7226  -49.7219 H         1 UNK         0.0600 
    212 H212       -4.8673  -27.7843  -51.8265 H         1 UNK         0.0600 
    213 H213       -5.8684  -26.3866  -52.2050 H         1 UNK         0.0600 
    214 H214       -6.2388  -27.3839  -50.8056 H         1 UNK         0.0600 
    215 H215       -3.4981  -24.2802  -49.0717 H         1 UNK         0.3000 
    216 H216       -4.0334  -22.4546  -47.9212 H         1 UNK         0.0600 
    217 H217       -6.1186  -22.3107  -46.6342 H         1 UNK         0.0600 
    218 H218       -5.4792  -23.9417  -46.5293 H         1 UNK         0.0600 
    219 H219       -6.8555  -23.5974  -47.5783 H         1 UNK         0.0600 
    220 H220       -3.8616  -22.2259  -50.5119 H         1 UNK         0.3000 
    221 H221       -4.0962  -20.9591  -52.2549 H         1 UNK         0.0600 
    222 H222       -5.8392  -19.1100  -50.5454 H         1 UNK         0.0600 
    223 H223       -4.0825  -19.0418  -50.6813 H         1 UNK         0.0600 
    224 H224       -5.0837  -18.6804  -52.0688 H         1 UNK         0.0600 
    225 H225       -6.4653  -22.9375  -51.5048 H         1 UNK         0.3000 
    226 H226       -8.7136  -22.0982  -53.0128 H         1 UNK         0.0600 
    227 H227       -9.3610  -24.4975  -52.9143 H         1 UNK         0.0600 
    228 H228       -7.7453  -24.9308  -52.3716 H         1 UNK         0.0600 
    229 H229       -8.7870  -23.9428  -51.3485 H         1 UNK         0.0600 
    230 H230       -5.7004  -23.6943  -54.0136 H         1 UNK         0.3000 
    231 H231       -6.5677  -24.0472  -56.8044 H         1 UNK         0.0600 
    232 H232       -5.0704  -25.7094  -55.6981 H         1 UNK         0.0600 
    233 H233       -3.8394  -24.4681  -55.4860 H         1 UNK         0.0600 
    234 H234       -4.3093  -24.9759  -57.1014 H         1 UNK         0.0600 
    235 H235       -7.0640  -21.5181  -56.2643 H         1 UNK         0.3000 
    236 H236       -6.8308  -19.3828  -56.8358 H         1 UNK         0.0600 
    237 H237       -6.9413  -20.4656  -59.0881 H         1 UNK         0.0600 
    238 H238       -6.0276  -18.9685  -59.1408 H         1 UNK         0.0600 
    239 H239       -5.1803  -20.5107  -59.1589 H         1 UNK         0.0600 
    240 H240       -5.0135  -20.0776  -54.8395 H         1 UNK         0.3000 
    241 H241       -3.2322  -19.5061  -53.7205 H         1 UNK         0.0600 
    242 H242       -2.7471  -21.1053  -56.4256 H         1 UNK         0.3800 
    243 H243       -1.0032  -21.0793  -56.4605 H         1 UNK         0.3800 
    244 H244       -2.4477  -17.0468  -55.2788 H         1 UNK         0.0800 
    245 H245       -4.0674  -17.0720  -54.6633 H         1 UNK         0.0800 
    246 H246       -3.5617  -14.9007  -52.7788 H         1 UNK         0.0800 
    247 H247       -4.7256  -16.1981  -52.6310 H         1 UNK         0.0800 
@<TRIPOS>BOND
     1    1    2 1    
     2    1  127 1    
     3    1  128 1    
     4    1  129 1    
     5    2    3 2    
     6    2    4 am   BACKBONE|DICT|INTERRES
     7    4    5 1    
     8    4  130 1    
     9    5    6 1    
    10    5   65 1    
    11    5  131 1    
    12    6    7 1    
    13    6  132 1    
    14    6  133 1    
    15    7    8 1    
    16    8    9 1    
    17    8  134 1    
    18    8  135 1    
    19    9   10 ar   
    20    9   14 ar   
    21   10   11 ar   
    22   10  136 1    
    23   11   12 ar   
    24   11  126 1    
    25   12   13 ar   
    26   12  137 1    
    27   13   14 ar   
    28   13   15 1    
    29   14  138 1    
    30   15   16 1    
    31   15  139 1    
    32   15  140 1    
    33   16   17 1    
    34   17   18 1    
    35   17  141 1    
    36   17  142 1    
    37   18   19 1    
    38   18   67 1    
    39   18  143 1    
    40   19   20 am   BACKBONE|DICT|INTERRES
    41   19  144 1    
    42   20   21 2    
    43   20   22 1    
    44   22   23 1    
    45   22   24 1    
    46   22  145 1    
    47   23  146 1    
    48   23  147 1    
    49   23  148 1    
    50   24   25 am   BACKBONE|DICT|INTERRES
    51   24  149 1    
    52   25   26 2    
    53   25   27 1    
    54   27   28 1    
    55   27   29 1    
    56   27  150 1    
    57   28  151 1    
    58   28  152 1    
    59   28  153 1    
    60   29   30 am   BACKBONE|DICT|INTERRES
    61   29  154 1    
    62   30   31 2    
    63   30   32 1    
    64   32   33 1    
    65   32   34 1    
    66   32  155 1    
    67   33  156 1    
    68   33  157 1    
    69   33  158 1    
    70   34   35 am   BACKBONE|DICT|INTERRES
    71   34  159 1    
    72   35   36 2    
    73   35   37 1    
    74   37   38 1    
    75   37   39 1    
    76   37  160 1    
    77   38  161 1    
    78   38  162 1    
    79   38  163 1    
    80   39   40 am   BACKBONE|DICT|INTERRES
    81   39  164 1    
    82   40   41 2    
    83   40   42 1    
    84   42   43 1    
    85   42   44 1    
    86   42  165 1    
    87   43  166 1    
    88   43  167 1    
    89   43  168 1    
    90   44   45 am   BACKBONE|DICT|INTERRES
    91   44  169 1    
    92   45   46 2    
    93   45   47 1    
    94   47   48 1    
    95   47   49 1    
    96   47  170 1    
    97   48  171 1    
    98   48  172 1    
    99   48  173 1    
   100   49   50 am   BACKBONE|DICT|INTERRES
   101   49  174 1    
   102   50   51 2    
   103   50   52 1    
   104   52   53 1    
   105   52   54 1    
   106   52  175 1    
   107   53  176 1    
   108   53  177 1    
   109   53  178 1    
   110   54   55 am   BACKBONE|DICT|INTERRES
   111   54  179 1    
   112   55   56 2    
   113   55   57 1    
   114   57   58 1    
   115   57   59 1    
   116   57  180 1    
   117   58  181 1    
   118   58  182 1    
   119   58  183 1    
   120   59   60 am   BACKBONE|DICT|INTERRES
   121   59  184 1    
   122   60   61 2    
   123   60   62 1    
   124   62   63 1    
   125   62   64 1    
   126   62  185 1    
   127   63  186 1    
   128   63  187 1    
   129   63  188 1    
   130   64   65 am   BACKBONE|DICT|INTERRES
   131   64  189 1    
   132   65   66 2    
   133   67   68 2    
   134   67   69 am   BACKBONE|DICT|INTERRES
   135   69   70 1    
   136   69  190 1    
   137   70   71 1    
   138   70   72 1    
   139   70  191 1    
   140   71  192 1    
   141   71  193 1    
   142   71  194 1    
   143   72   73 2    
   144   72   74 am   BACKBONE|DICT|INTERRES
   145   74   75 1    
   146   74  195 1    
   147   75   76 1    
   148   75   77 1    
   149   75  196 1    
   150   76  197 1    
   151   76  198 1    
   152   76  199 1    
   153   77   78 2    
   154   77   79 am   BACKBONE|DICT|INTERRES
   155   79   80 1    
   156   79  200 1    
   157   80   81 1    
   158   80   82 1    
   159   80  201 1    
   160   81  202 1    
   161   81  203 1    
   162   81  204 1    
   163   82   83 2    
   164   82   84 am   BACKBONE|DICT|INTERRES
   165   84   85 1    
   166   84  205 1    
   167   85   86 1    
   168   85   87 1    
   169   85  206 1    
   170   86  207 1    
   171   86  208 1    
   172   86  209 1    
   173   87   88 2    
   174   87   89 am   BACKBONE|DICT|INTERRES
   175   89   90 1    
   176   89  210 1    
   177   90   91 1    
   178   90   92 1    
   179   90  211 1    
   180   91  212 1    
   181   91  213 1    
   182   91  214 1    
   183   92   93 2    
   184   92   94 am   BACKBONE|DICT|INTERRES
   185   94   95 1    
   186   94  215 1    
   187   95   96 1    
   188   95   97 1    
   189   95  216 1    
   190   96  217 1    
   191   96  218 1    
   192   96  219 1    
   193   97   98 2    
   194   97   99 am   BACKBONE|DICT|INTERRES
   195   99  100 1    
   196   99  220 1    
   197  100  101 1    
   198  100  102 1    
   199  100  221 1    
   200  101  222 1    
   201  101  223 1    
   202  101  224 1    
   203  102  103 2    
   204  102  104 am   BACKBONE|DICT|INTERRES
   205  104  105 1    
   206  104  225 1    
   207  105  106 1    
   208  105  107 1    
   209  105  226 1    
   210  106  227 1    
   211  106  228 1    
   212  106  229 1    
   213  107  108 2    
   214  107  109 am   BACKBONE|DICT|INTERRES
   215  109  110 1    
   216  109  230 1    
   217  110  111 1    
   218  110  112 1    
   219  110  231 1    
   220  111  232 1    
   221  111  233 1    
   222  111  234 1    
   223  112  113 2    
   224  112  114 am   BACKBONE|DICT|INTERRES
   225  114  115 1    
   226  114  235 1    
   227  115  116 1    
   228  115  117 1    
   229  115  236 1    
   230  116  237 1    
   231  116  238 1    
   232  116  239 1    
   233  117  118 2    
   234  117  119 am   BACKBONE|DICT|INTERRES
   235  119  120 1    
   236  119  240 1    
   237  120  121 1    
   238  120  124 1    
   239  120  241 1    
   240  121  122 am   BACKBONE|DICT|INTERRES
   241  121  123 2    
   242  122  242 1    
   243  122  243 1    
   244  124  125 1    
   245  124  244 1    
   246  124  245 1    
   247  125  126 1    
   248  126  246 1    
   249  126  247 1    
@<TRIPOS>SUBSTRUCTURE
     1 UNK         1 GROUP             0       ****    0 ROOT    
