@<TRIPOS>MOLECULE
3R540
247   249    1
SMALL
USER_CHARGES


@<TRIPOS>ATOM
      1 CA          5.7709  -15.4964  -50.7069 C.3       0 UNK        -0.1800 
      2 C           5.6121  -15.0993  -49.2458 C.2       0 UNK         0.5000 
      3 O           6.5899  -15.1099  -48.4973 O.2       0 UNK        -0.5000 
      4 N           4.3845  -14.7583  -48.8381 N.am      1 UNK        -0.5000 
      5 CA          4.0435  -14.3087  -47.4849 C.3       1 UNK         0.1400 
      6 C6          2.5161  -14.3381  -47.2250 C.3       23 UNK        -0.0398 
      7 S7          1.7758  -15.9866  -47.4722 S.3       23 UNK        -0.2404 
      8 C8          0.8634  -15.7190  -49.0265 C.3       23 UNK        -0.0205 
      9 C9          0.0926  -16.9572  -49.4587 C.ar      23 UNK        -0.0193 
     10 C10        -1.3027  -16.9307  -49.5465 C.ar      23 UNK        -0.1150 
     11 C11        -2.0111  -18.0557  -49.9831 C.ar      23 UNK        -0.0193 
     12 C12        -1.3121  -19.2310  -50.2737 C.ar      23 UNK        -0.1150 
     13 C13         0.0822  -19.2741  -50.1889 C.ar      23 UNK        -0.0193 
     14 C14         0.7789  -18.1242  -49.8037 C.ar      23 UNK        -0.1150 
     15 C15         0.8174  -20.5699  -50.5174 C.3       23 UNK        -0.0205 
     16 S16         2.1403  -21.0013  -49.3348 S.3       23 UNK        -0.2404 
     17 C17         1.2861  -20.8821  -47.7260 C.3       23 UNK        -0.0398 
     18 CA          0.8547  -22.2455  -47.1422 C.3       11 UNK         0.1400 
     19 N           0.7312  -22.1623  -45.6843 N.am      11 UNK        -0.5000 
     20 C           0.5142  -23.1891  -44.8511 C.2       10 UNK         0.5000 
     21 O           0.3826  -24.3568  -45.2183 O.2       10 UNK        -0.5000 
     22 CA          0.3761  -22.8313  -43.3620 C.3       10 UNK         0.1400 
     23 CB          1.7488  -22.5580  -42.7278 C.3       10 UNK        -0.1800 
     24 N          -0.4872  -21.6631  -43.1879 N.am      10 UNK        -0.5000 
     25 C          -1.8259  -21.7087  -43.2278 C.2       9 UNK         0.5000 
     26 O          -2.4697  -22.7546  -43.3083 O.2       9 UNK        -0.5000 
     27 CA         -2.5749  -20.3637  -43.1922 C.3       9 UNK         0.1400 
     28 CB         -2.9496  -19.9909  -41.7501 C.3       9 UNK        -0.1800 
     29 N          -1.8104  -19.2708  -43.7973 N.am      9 UNK        -0.5000 
     30 C          -1.6079  -19.1374  -45.1172 C.2       8 UNK         0.5000 
     31 O          -2.0392  -19.9291  -45.9519 O.2       8 UNK        -0.5000 
     32 CA         -0.7467  -17.9511  -45.5894 C.3       8 UNK         0.1400 
     33 CB         -1.6286  -16.7210  -45.8500 C.3       8 UNK        -0.1800 
     34 N           0.3177  -17.5936  -44.6519 N.am      8 UNK        -0.5000 
     35 C           1.2981  -18.4142  -44.2501 C.2       7 UNK         0.5000 
     36 O           1.4233  -19.5744  -44.6428 O.2       7 UNK        -0.5000 
     37 CA          2.2679  -17.8709  -43.1846 C.3       7 UNK         0.1400 
     38 CB          3.4784  -17.2103  -43.8629 C.3       7 UNK        -0.1800 
     39 N           1.6736  -16.9157  -42.2431 N.am      7 UNK        -0.5000 
     40 C           0.5595  -17.0846  -41.5128 C.2       6 UNK         0.5000 
     41 O          -0.1481  -18.0904  -41.5733 O.2       6 UNK        -0.5000 
     42 CA          0.1582  -15.9399  -40.5585 C.3       6 UNK         0.1400 
     43 CB          0.2449  -16.4038  -39.0959 C.3       6 UNK        -0.1800 
     44 N           0.9718  -14.7301  -40.7171 N.am      6 UNK        -0.5000 
     45 C           0.8558  -13.8517  -41.7208 C.2       5 UNK         0.5000 
     46 O           0.0329  -13.9560  -42.6335 O.2       5 UNK        -0.5000 
     47 CA          1.8876  -12.7105  -41.7291 C.3       5 UNK         0.1400 
     48 CB          3.1734  -13.1645  -42.4337 C.3       5 UNK        -0.1800 
     49 N           1.3816  -11.5075  -42.3879 N.am      5 UNK        -0.5000 
     50 C           0.4785  -10.6774  -41.8471 C.2       4 UNK         0.5000 
     51 O           0.0050  -10.8419  -40.7206 O.2       4 UNK        -0.5000 
     52 CA          0.0212   -9.4697  -42.6976 C.3       4 UNK         0.1400 
     53 CB         -0.4099   -8.2639  -41.8356 C.3       4 UNK        -0.1800 
     54 N           0.9835   -9.0524  -43.7251 N.am      4 UNK        -0.5000 
     55 C           2.2297   -8.5924  -43.5416 C.2       3 UNK         0.5000 
     56 O           2.7681   -8.4477  -42.4421 O.2       3 UNK        -0.5000 
     57 CA          3.0153   -8.2605  -44.8259 C.3       3 UNK         0.1400 
     58 CB          3.5592   -6.8230  -44.7867 C.3       3 UNK        -0.1800 
     59 N           4.1240   -9.1857  -45.0730 N.am      3 UNK        -0.5000 
     60 C           4.0234  -10.5173  -45.1771 C.2       2 UNK         0.5000 
     61 O           2.9676  -11.1402  -45.0257 O.2       2 UNK        -0.5000 
     62 CA          5.3249  -11.2737  -45.5166 C.3       2 UNK         0.1400 
     63 CB          6.2591  -11.3726  -44.2998 C.3       2 UNK        -0.1800 
     64 N           5.0335  -12.6216  -46.0060 N.am      2 UNK        -0.5000 
     65 C           4.5780  -12.8839  -47.2368 C.2       1 UNK         0.5000 
     66 O           4.5215  -12.0435  -48.1394 O.2       1 UNK        -0.5000 
     67 C          -0.4268  -22.7786  -47.8218 C.2       11 UNK         0.5000 
     68 O          -0.3343  -23.4660  -48.8397 O.2       11 UNK        -0.5000 
     69 N          -1.5964  -22.5076  -47.2220 N.am      12 UNK        -0.5000 
     70 CA         -2.9106  -22.9876  -47.6504 C.3       12 UNK         0.1400 
     71 CB         -3.9872  -22.5135  -46.6641 C.3       12 UNK        -0.1800 
     72 C          -3.0059  -24.5124  -47.8297 C.2       12 UNK         0.5000 
     73 O          -3.7273  -24.9575  -48.7208 O.2       12 UNK        -0.5000 
     74 N          -2.2655  -25.2805  -47.0179 N.am      13 UNK        -0.5000 
     75 CA         -2.1918  -26.7393  -47.1095 C.3       13 UNK         0.1400 
     76 CB         -1.4611  -27.2912  -45.8768 C.3       13 UNK        -0.1800 
     77 C          -1.5151  -27.2237  -48.4061 C.2       13 UNK         0.5000 
     78 O          -1.9529  -28.2202  -48.9820 O.2       13 UNK        -0.5000 
     79 N          -0.4850  -26.4953  -48.8593 N.am      14 UNK        -0.5000 
     80 CA          0.2060  -26.7438  -50.1255 C.3       14 UNK         0.1400 
     81 CB          1.5891  -26.0748  -50.0950 C.3       14 UNK        -0.1800 
     82 C          -0.6160  -26.2471  -51.3281 C.2       14 UNK         0.5000 
     83 O          -0.6052  -26.8854  -52.3804 O.2       14 UNK        -0.5000 
     84 N          -1.3429  -25.1387  -51.1364 N.am      15 UNK        -0.5000 
     85 CA         -2.2211  -24.5099  -52.1243 C.3       15 UNK         0.1400 
     86 CB         -2.2390  -22.9921  -51.8764 C.3       15 UNK        -0.1800 
     87 C          -3.6420  -25.1162  -52.1841 C.2       15 UNK         0.5000 
     88 O          -4.5486  -24.4587  -52.6951 O.2       15 UNK        -0.5000 
     89 N          -3.8162  -26.3514  -51.6895 N.am      16 UNK        -0.5000 
     90 CA         -5.0334  -27.1700  -51.7615 C.3       16 UNK         0.1400 
     91 CB         -5.3119  -27.5843  -53.2222 C.3       16 UNK        -0.1800 
     92 C          -6.2488  -26.5015  -51.0863 C.2       16 UNK         0.5000 
     93 O          -7.2807  -26.2887  -51.7254 O.2       16 UNK        -0.5000 
     94 N          -6.0760  -26.1609  -49.8018 N.am      17 UNK        -0.5000 
     95 CA         -6.9886  -25.3830  -48.9564 C.3       17 UNK         0.1400 
     96 CB         -8.3483  -26.0902  -48.7735 C.3       17 UNK        -0.1800 
     97 C          -7.1059  -23.9307  -49.4584 C.2       17 UNK         0.5000 
     98 O          -8.2079  -23.3957  -49.5812 O.2       17 UNK        -0.5000 
     99 N          -5.9425  -23.3450  -49.7779 N.am      18 UNK        -0.5000 
    100 CA        -5.6862  -21.9961  -50.3025 C.3       18 UNK         0.1400 
    101 CB        -6.2336  -20.9136  -49.3523 C.3       18 UNK        -0.1800 
    102 C         -6.1591  -21.7420  -51.7467 C.2       18 UNK         0.5000 
    103 O         -5.6443  -20.8188  -52.3776 O.2       18 UNK        -0.5000 
    104 N         -7.1030  -22.5459  -52.2495 N.am      19 UNK        -0.5000 
    105 CA        -7.8171  -22.3800  -53.5153 C.3       19 UNK         0.1400 
    106 CB        -8.8008  -23.5476  -53.6815 C.3       19 UNK        -0.1800 
    107 C         -6.9357  -22.2433  -54.7705 C.2       19 UNK         0.5000 
    108 O         -7.3166  -21.5144  -55.6874 O.2       19 UNK        -0.5000 
    109 N         -5.7782  -22.9170  -54.7981 N.am      20 UNK        -0.5000 
    110 CA        -4.8477  -22.8796  -55.9290 C.3       20 UNK         0.1400 
    111 CB        -3.8962  -24.0830  -55.8471 C.3       20 UNK        -0.1800 
    112 C         -4.0434  -21.5677  -56.0215 C.2       20 UNK         0.5000 
    113 O         -3.5160  -21.2698  -57.0943 O.2       20 UNK        -0.5000 
    114 N         -3.9461  -20.8228  -54.9122 N.am      21 UNK        -0.5000 
    115 CA        -3.1669  -19.5888  -54.8068 C.3       21 UNK         0.1400 
    116 CB        -2.1812  -19.7267  -53.6373 C.3       21 UNK        -0.1800 
    117 C         -4.0642  -18.3594  -54.5996 C.2       21 UNK         0.5000 
    118 O         -3.8267  -17.3263  -55.2270 O.2       21 UNK        -0.5000 
    119 N         -5.0632  -18.4894  -53.7205 N.am      22 UNK        -0.5000 
    120 CA        -5.9375  -17.4055  -53.2462 C.3       22 UNK         0.1400 
    121 C         -7.4358  -17.6250  -53.6057 C.2       22 UNK         0.5000 
    122 N         -7.7956  -18.6252  -54.4009 N.am      22 UNK        -0.7600 
    123 O         -8.2937  -16.8591  -53.1749 O.2       22 UNK        -0.5000 
    124 C124       -5.7441  -17.1501  -51.7251 C.3       23 UNK        -0.0398 
    125 S125       -4.0292  -16.6778  -51.3029 S.3       23 UNK        -0.2404 
    126 C126       -3.5251  -18.0050  -50.1570 C.3       23 UNK        -0.0205 
    127 H127        4.8218  -15.4611  -51.2424 H         1 UNK         0.0600 
    128 H128        6.1638  -16.5106  -50.7796 H         1 UNK         0.0600 
    129 H129        6.4680  -14.8227  -51.2052 H         1 UNK         0.0600 
    130 H130        3.6282  -14.7450  -49.5049 H         1 UNK         0.3000 
    131 H131        4.5221  -14.9880  -46.7757 H         1 UNK         0.0600 
    132 H132        2.3045  -14.0400  -46.1961 H         1 UNK         0.0800 
    133 H133        2.0028  -13.6096  -47.8556 H         1 UNK         0.0800 
    134 H134        1.5607  -15.4428  -49.8179 H         1 UNK         0.0800 
    135 H135        0.1844  -14.8743  -48.8997 H         1 UNK         0.0800 
    136 H136       -1.8405  -16.0251  -49.3037 H         1 UNK         0.1150 
    137 H137       -1.8533  -20.1146  -50.5790 H         1 UNK         0.1150 
    138 H138        1.8581  -18.1423  -49.7458 H         1 UNK         0.1150 
    139 H139        0.1173  -21.4040  -50.5563 H         1 UNK         0.0800 
    140 H140        1.2496  -20.4844  -51.5149 H         1 UNK         0.0800 
    141 H141        0.4439  -20.1914  -47.7637 H         1 UNK         0.0800 
    142 H142        2.0092  -20.4115  -47.0592 H         1 UNK         0.0800 
    143 H143        1.6467  -22.9706  -47.3411 H         1 UNK         0.0600 
    144 H144        0.8606  -21.2373  -45.2814 H         1 UNK         0.3000 
    145 H145       -0.0681  -23.6862  -42.8474 H         1 UNK         0.0600 
    146 H146        1.6539  -22.3440  -41.6631 H         1 UNK         0.0600 
    147 H147        2.4023  -23.4255  -42.8279 H         1 UNK         0.0600 
    148 H148        2.2542  -21.7121  -43.1945 H         1 UNK         0.0600 
    149 H149       -0.0351  -20.7602  -43.1479 H         1 UNK         0.3000 
    150 H150       -3.5000  -20.4863  -43.7598 H         1 UNK         0.0600 
    151 H151       -3.5885  -20.7546  -41.3051 H         1 UNK         0.0600 
    152 H152       -3.4958  -19.0482  -41.7139 H         1 UNK         0.0600 
    153 H153       -2.0681  -19.8935  -41.1157 H         1 UNK         0.0600 
    154 H154       -1.3616  -18.6239  -43.1576 H         1 UNK         0.3000 
    155 H155       -0.2758  -18.2374  -46.5317 H         1 UNK         0.0600 
    156 H156       -1.0475  -15.8977  -46.2652 H         1 UNK         0.0600 
    157 H157       -2.1069  -16.3672  -44.9359 H         1 UNK         0.0600 
    158 H158       -2.4169  -16.9527  -46.5676 H         1 UNK         0.0600 
    159 H159        0.2879  -16.6609  -44.2667 H         1 UNK         0.3000 
    160 H160        2.6204  -18.7244  -42.6024 H         1 UNK         0.0600 
    161 H161        3.1882  -16.3222  -44.4261 H         1 UNK         0.0600 
    162 H162        3.9591  -17.8973  -44.5609 H         1 UNK         0.0600 
    163 H163        4.2302  -16.9142  -43.1311 H         1 UNK         0.0600 
    164 H164        2.1779  -16.0526  -42.1137 H         1 UNK         0.3000 
    165 H165       -0.8826  -15.6901  -40.7751 H         1 UNK         0.0600 
    166 H166       -0.0964  -15.6247  -38.4138 H         1 UNK         0.0600 
    167 H167       -0.3825  -17.2796  -38.9240 H         1 UNK         0.0600 
    168 H168        1.2651  -16.6716  -38.8180 H         1 UNK         0.0600 
    169 H169        1.6803  -14.5773  -40.0131 H         1 UNK         0.3000 
    170 H170        2.1349  -12.4567  -40.6959 H         1 UNK         0.0600 
    171 H171        3.6101  -14.0355  -41.9437 H         1 UNK         0.0600 
    172 H172        2.9926  -13.4271  -43.4769 H         1 UNK         0.0600 
    173 H173        3.9187  -12.3719  -42.4069 H         1 UNK         0.0600 
    174 H174        1.7234  -11.3241  -43.3249 H         1 UNK         0.3000 
    175 H175       -0.8615   -9.8125  -43.2390 H         1 UNK         0.0600 
    176 H176       -0.7430   -7.4331  -42.4575 H         1 UNK         0.0600 
    177 H177       -1.2402   -8.5269  -41.1792 H         1 UNK         0.0600 
    178 H178        0.4038   -7.9058  -41.2043 H         1 UNK         0.0600 
    179 H179        0.6653   -9.1728  -44.6769 H         1 UNK         0.3000 
    180 H180        2.3365   -8.3336  -45.6782 H         1 UNK         0.0600 
    181 H181        4.2971   -6.6923  -43.9939 H         1 UNK         0.0600 
    182 H182        2.7560   -6.1068  -44.6084 H         1 UNK         0.0600 
    183 H183        4.0303   -6.5523  -45.7318 H         1 UNK         0.0600 
    184 H184        5.0330   -8.7611  -45.1843 H         1 UNK         0.3000 
    185 H185        5.8440  -10.7162  -46.2994 H         1 UNK         0.0600 
    186 H186        6.4667  -10.3888  -43.8772 H         1 UNK         0.0600 
    187 H187        5.8369  -11.9881  -43.5075 H         1 UNK         0.0600 
    188 H188        7.2173  -11.8101  -44.5806 H         1 UNK         0.0600 
    189 H189        5.0250  -13.3536  -45.3116 H         1 UNK         0.3000 
    190 H190       -1.5967  -21.8567  -46.4444 H         1 UNK         0.3000 
    191 H191       -3.1143  -22.5305  -48.6178 H         1 UNK         0.0600 
    192 H192       -3.7810  -22.8558  -45.6503 H         1 UNK         0.0600 
    193 H193       -4.9713  -22.8938  -46.9413 H         1 UNK         0.0600 
    194 H194       -4.0583  -21.4268  -46.6454 H         1 UNK         0.0600 
    195 H195       -1.6721  -24.8356  -46.3294 H         1 UNK         0.3000 
    196 H196       -3.2122  -27.1284  -47.1022 H         1 UNK         0.0600 
    197 H197       -1.4329  -28.3814  -45.8957 H         1 UNK         0.0600 
    198 H198       -1.9618  -26.9945  -44.9551 H         1 UNK         0.0600 
    199 H199       -0.4307  -26.9372  -45.8273 H         1 UNK         0.0600 
    200 H200       -0.2304  -25.6504  -48.3647 H         1 UNK         0.3000 
    201 H201        0.3536  -27.8199  -50.2397 H         1 UNK         0.0600 
    202 H202        2.1867  -26.4428  -49.2609 H         1 UNK         0.0600 
    203 H203        1.5157  -24.9908  -50.0021 H         1 UNK         0.0600 
    204 H204        2.1430  -26.2868  -51.0103 H         1 UNK         0.0600 
    205 H205       -1.2528  -24.6633  -50.2450 H         1 UNK         0.3000 
    206 H206       -1.7922  -24.6658  -53.1158 H         1 UNK         0.0600 
    207 H207       -1.2532  -22.5642  -52.0533 H         1 UNK         0.0600 
    208 H208       -2.9306  -22.4784  -52.5446 H         1 UNK         0.0600 
    209 H209       -2.5239  -22.7575  -50.8530 H         1 UNK         0.0600 
    210 H210       -3.0167  -26.7936  -51.2592 H         1 UNK         0.3000 
    211 H211       -4.8279  -28.0801  -51.1960 H         1 UNK         0.0600 
    212 H212       -5.5498  -26.7253  -53.8507 H         1 UNK         0.0600 
    213 H213       -6.1558  -28.2729  -53.2779 H         1 UNK         0.0600 
    214 H214       -4.4509  -28.0901  -53.6591 H         1 UNK         0.0600 
    215 H215       -5.1490  -26.2854  -49.4100 H         1 UNK         0.3000 
    216 H216       -6.5180  -25.3267  -47.9737 H         1 UNK         0.0600 
    217 H217       -8.9549  -25.5740  -48.0287 H         1 UNK         0.0600 
    218 H218       -8.2159  -27.1160  -48.4299 H         1 UNK         0.0600 
    219 H219       -8.9261  -26.1169  -49.6975 H         1 UNK         0.0600 
    220 H220       -5.1158  -23.9229  -49.6627 H         1 UNK         0.3000 
    221 H221       -4.6033  -21.8865  -50.3251 H         1 UNK         0.0600 
    222 H222       -7.3230  -20.9182  -49.3134 H         1 UNK         0.0600 
    223 H223       -5.8624  -21.0472  -48.3377 H         1 UNK         0.0600 
    224 H224       -5.9303  -19.9190  -49.6763 H         1 UNK         0.0600 
    225 H225       -7.4480  -23.2768  -51.6419 H         1 UNK         0.3000 
    226 H226       -8.3966  -21.4589  -53.4298 H         1 UNK         0.0600 
    227 H227       -9.3842  -23.4435  -54.5972 H         1 UNK         0.0600 
    228 H228       -8.2789  -24.5044  -53.7296 H         1 UNK         0.0600 
    229 H229       -9.5051  -23.5926  -52.8505 H         1 UNK         0.0600 
    230 H230       -5.5039  -23.4775  -53.9930 H         1 UNK         0.3000 
    231 H231       -5.4268  -22.9758  -56.8500 H         1 UNK         0.0600 
    232 H232       -4.4441  -25.0185  -55.7322 H         1 UNK         0.0600 
    233 H233       -3.2058  -23.9899  -55.0096 H         1 UNK         0.0600 
    234 H234       -3.2958  -24.1654  -56.7538 H         1 UNK         0.0600 
    235 H235       -4.4557  -21.1148  -54.0867 H         1 UNK         0.3000 
    236 H236       -2.5838  -19.4180  -55.7140 H         1 UNK         0.0600 
    237 H237       -1.6082  -18.8100  -53.4911 H         1 UNK         0.0600 
    238 H238       -2.7068  -19.9381  -52.7067 H         1 UNK         0.0600 
    239 H239       -1.4696  -20.5334  -53.8126 H         1 UNK         0.0600 
    240 H240       -5.2073  -19.3831  -53.2531 H         1 UNK         0.3000 
    241 H241       -5.6719  -16.4805  -53.7604 H         1 UNK         0.0600 
    242 H242       -7.1095  -19.2522  -54.7924 H         1 UNK         0.3800 
    243 H243       -8.7680  -18.7407  -54.6375 H         1 UNK         0.3800 
    244 H244       -6.3913  -16.3388  -51.3878 H         1 UNK         0.0800 
    245 H245       -6.0413  -18.0302  -51.1543 H         1 UNK         0.0800 
    246 H246       -3.9994  -17.8526  -49.1867 H         1 UNK         0.0800 
    247 H247       -3.8889  -18.9584  -50.5427 H         1 UNK         0.0800 
@<TRIPOS>BOND
     1    1    2 1    
     2    1  127 1    
     3    1  128 1    
     4    1  129 1    
     5    2    3 2    
     6    2    4 am   BACKBONE|DICT|INTERRES
     7    4    5 1    
     8    4  130 1    
     9    5    6 1    
    10    5   65 1    
    11    5  131 1    
    12    6    7 1    
    13    6  132 1    
    14    6  133 1    
    15    7    8 1    
    16    8    9 1    
    17    8  134 1    
    18    8  135 1    
    19    9   10 ar   
    20    9   14 ar   
    21   10   11 ar   
    22   10  136 1    
    23   11   12 ar   
    24   11  126 1    
    25   12   13 ar   
    26   12  137 1    
    27   13   14 ar   
    28   13   15 1    
    29   14  138 1    
    30   15   16 1    
    31   15  139 1    
    32   15  140 1    
    33   16   17 1    
    34   17   18 1    
    35   17  141 1    
    36   17  142 1    
    37   18   19 1    
    38   18   67 1    
    39   18  143 1    
    40   19   20 am   BACKBONE|DICT|INTERRES
    41   19  144 1    
    42   20   21 2    
    43   20   22 1    
    44   22   23 1    
    45   22   24 1    
    46   22  145 1    
    47   23  146 1    
    48   23  147 1    
    49   23  148 1    
    50   24   25 am   BACKBONE|DICT|INTERRES
    51   24  149 1    
    52   25   26 2    
    53   25   27 1    
    54   27   28 1    
    55   27   29 1    
    56   27  150 1    
    57   28  151 1    
    58   28  152 1    
    59   28  153 1    
    60   29   30 am   BACKBONE|DICT|INTERRES
    61   29  154 1    
    62   30   31 2    
    63   30   32 1    
    64   32   33 1    
    65   32   34 1    
    66   32  155 1    
    67   33  156 1    
    68   33  157 1    
    69   33  158 1    
    70   34   35 am   BACKBONE|DICT|INTERRES
    71   34  159 1    
    72   35   36 2    
    73   35   37 1    
    74   37   38 1    
    75   37   39 1    
    76   37  160 1    
    77   38  161 1    
    78   38  162 1    
    79   38  163 1    
    80   39   40 am   BACKBONE|DICT|INTERRES
    81   39  164 1    
    82   40   41 2    
    83   40   42 1    
    84   42   43 1    
    85   42   44 1    
    86   42  165 1    
    87   43  166 1    
    88   43  167 1    
    89   43  168 1    
    90   44   45 am   BACKBONE|DICT|INTERRES
    91   44  169 1    
    92   45   46 2    
    93   45   47 1    
    94   47   48 1    
    95   47   49 1    
    96   47  170 1    
    97   48  171 1    
    98   48  172 1    
    99   48  173 1    
   100   49   50 am   BACKBONE|DICT|INTERRES
   101   49  174 1    
   102   50   51 2    
   103   50   52 1    
   104   52   53 1    
   105   52   54 1    
   106   52  175 1    
   107   53  176 1    
   108   53  177 1    
   109   53  178 1    
   110   54   55 am   BACKBONE|DICT|INTERRES
   111   54  179 1    
   112   55   56 2    
   113   55   57 1    
   114   57   58 1    
   115   57   59 1    
   116   57  180 1    
   117   58  181 1    
   118   58  182 1    
   119   58  183 1    
   120   59   60 am   BACKBONE|DICT|INTERRES
   121   59  184 1    
   122   60   61 2    
   123   60   62 1    
   124   62   63 1    
   125   62   64 1    
   126   62  185 1    
   127   63  186 1    
   128   63  187 1    
   129   63  188 1    
   130   64   65 am   BACKBONE|DICT|INTERRES
   131   64  189 1    
   132   65   66 2    
   133   67   68 2    
   134   67   69 am   BACKBONE|DICT|INTERRES
   135   69   70 1    
   136   69  190 1    
   137   70   71 1    
   138   70   72 1    
   139   70  191 1    
   140   71  192 1    
   141   71  193 1    
   142   71  194 1    
   143   72   73 2    
   144   72   74 am   BACKBONE|DICT|INTERRES
   145   74   75 1    
   146   74  195 1    
   147   75   76 1    
   148   75   77 1    
   149   75  196 1    
   150   76  197 1    
   151   76  198 1    
   152   76  199 1    
   153   77   78 2    
   154   77   79 am   BACKBONE|DICT|INTERRES
   155   79   80 1    
   156   79  200 1    
   157   80   81 1    
   158   80   82 1    
   159   80  201 1    
   160   81  202 1    
   161   81  203 1    
   162   81  204 1    
   163   82   83 2    
   164   82   84 am   BACKBONE|DICT|INTERRES
   165   84   85 1    
   166   84  205 1    
   167   85   86 1    
   168   85   87 1    
   169   85  206 1    
   170   86  207 1    
   171   86  208 1    
   172   86  209 1    
   173   87   88 2    
   174   87   89 am   BACKBONE|DICT|INTERRES
   175   89   90 1    
   176   89  210 1    
   177   90   91 1    
   178   90   92 1    
   179   90  211 1    
   180   91  212 1    
   181   91  213 1    
   182   91  214 1    
   183   92   93 2    
   184   92   94 am   BACKBONE|DICT|INTERRES
   185   94   95 1    
   186   94  215 1    
   187   95   96 1    
   188   95   97 1    
   189   95  216 1    
   190   96  217 1    
   191   96  218 1    
   192   96  219 1    
   193   97   98 2    
   194   97   99 am   BACKBONE|DICT|INTERRES
   195   99  100 1    
   196   99  220 1    
   197  100  101 1    
   198  100  102 1    
   199  100  221 1    
   200  101  222 1    
   201  101  223 1    
   202  101  224 1    
   203  102  103 2    
   204  102  104 am   BACKBONE|DICT|INTERRES
   205  104  105 1    
   206  104  225 1    
   207  105  106 1    
   208  105  107 1    
   209  105  226 1    
   210  106  227 1    
   211  106  228 1    
   212  106  229 1    
   213  107  108 2    
   214  107  109 am   BACKBONE|DICT|INTERRES
   215  109  110 1    
   216  109  230 1    
   217  110  111 1    
   218  110  112 1    
   219  110  231 1    
   220  111  232 1    
   221  111  233 1    
   222  111  234 1    
   223  112  113 2    
   224  112  114 am   BACKBONE|DICT|INTERRES
   225  114  115 1    
   226  114  235 1    
   227  115  116 1    
   228  115  117 1    
   229  115  236 1    
   230  116  237 1    
   231  116  238 1    
   232  116  239 1    
   233  117  118 2    
   234  117  119 am   BACKBONE|DICT|INTERRES
   235  119  120 1    
   236  119  240 1    
   237  120  121 1    
   238  120  124 1    
   239  120  241 1    
   240  121  122 am   BACKBONE|DICT|INTERRES
   241  121  123 2    
   242  122  242 1    
   243  122  243 1    
   244  124  125 1    
   245  124  244 1    
   246  124  245 1    
   247  125  126 1    
   248  126  246 1    
   249  126  247 1    
@<TRIPOS>SUBSTRUCTURE
     1 UNK         1 GROUP             0       ****    0 ROOT    
