@<TRIPOS>MOLECULE
3R540
247   249    1
SMALL
USER_CHARGES


@<TRIPOS>ATOM
      1 CA         -0.8187  -12.7803  -47.3288 C.3       0 UNK        -0.1800 
      2 C           0.3613  -12.2739  -48.1436 C.2       0 UNK         0.5000 
      3 O           0.4088  -11.0909  -48.4830 O.2       0 UNK        -0.5000 
      4 N           1.3248  -13.1550  -48.4402 N.am      1 UNK        -0.5000 
      5 CA          2.5921  -12.8365  -49.1072 C.3       1 UNK         0.1400 
      6 C6          3.3825  -14.1012  -49.5396 C.3       23 UNK        -0.0398 
      7 S7          3.4035  -15.4625  -48.3119 S.3       23 UNK        -0.2404 
      8 C8          3.4291  -16.9277  -49.4010 C.3       23 UNK        -0.0205 
      9 C9          2.0541  -17.4714  -49.7925 C.ar      23 UNK        -0.0193 
     10 C10         0.9578  -16.6356  -50.0350 C.ar      23 UNK        -0.1150 
     11 C11        -0.2764  -17.1685  -50.4125 C.ar      23 UNK        -0.0193 
     12 C12        -0.4190  -18.5521  -50.5372 C.ar      23 UNK        -0.1150 
     13 C13         0.6650  -19.4065  -50.3217 C.ar      23 UNK        -0.0193 
     14 C14         1.8992  -18.8516  -49.9566 C.ar      23 UNK        -0.1150 
     15 C15         0.4675  -20.9111  -50.5269 C.3       23 UNK        -0.0205 
     16 S16         1.6531  -21.9840  -49.6413 S.3       23 UNK        -0.2404 
     17 C17         1.2569  -21.5666  -47.9093 C.3       23 UNK        -0.0398 
     18 CA          0.6587  -22.7271  -47.0825 C.3       11 UNK         0.1400 
     19 N           0.4519  -22.3197  -45.6941 N.am      11 UNK        -0.5000 
     20 C           0.0809  -23.1255  -44.6912 C.2       10 UNK         0.5000 
     21 O          -0.0661  -24.3429  -44.8044 O.2       10 UNK        -0.5000 
     22 CA         -0.2309  -22.4381  -43.3494 C.3       10 UNK         0.1400 
     23 CB          1.0613  -22.1305  -42.5786 C.3       10 UNK        -0.1800 
     24 N          -1.0077  -21.2075  -43.5221 N.am      10 UNK        -0.5000 
     25 C          -2.2492  -21.1663  -44.0279 C.2       9 UNK         0.5000 
     26 O          -2.8857  -22.1690  -44.3517 O.2       9 UNK        -0.5000 
     27 CA         -2.8729  -19.7762  -44.2458 C.3       9 UNK         0.1400 
     28 CB         -3.4131  -19.2091  -42.9248 C.3       9 UNK        -0.1800 
     29 N          -1.9436  -18.8227  -44.8543 N.am      9 UNK        -0.5000 
     30 C          -1.4281  -18.9424  -46.0865 C.2       8 UNK         0.5000 
     31 O          -1.7089  -19.8596  -46.8552 O.2       8 UNK        -0.5000 
     32 CA         -0.3845  -17.8957  -46.5177 C.3       8 UNK         0.1400 
     33 CB         -1.0601  -16.6004  -46.9843 C.3       8 UNK        -0.1800 
     34 N           0.5835  -17.5976  -45.4629 N.am      8 UNK        -0.5000 
     35 C           1.4227  -18.4984  -44.9322 C.2       7 UNK         0.5000 
     36 O           1.5089  -19.6662  -45.3105 O.2       7 UNK        -0.5000 
     37 CA          2.2600  -18.0320  -43.7321 C.3       7 UNK         0.1400 
     38 CB          3.4846  -17.2288  -44.1954 C.3       7 UNK        -0.1800 
     39 N           1.4599  -17.2409  -42.7963 N.am      7 UNK        -0.5000 
     40 C           0.4814  -17.7474  -42.0310 C.2       6 UNK         0.5000 
     41 O           0.1791  -18.9406  -42.0099 O.2       6 UNK        -0.5000 
     42 CA         -0.3185  -16.7489  -41.1738 C.3       6 UNK         0.1400 
     43 CB          0.4145  -16.4582  -39.8558 C.3       6 UNK        -0.1800 
     44 N          -0.5826  -15.4891  -41.8703 N.am      6 UNK        -0.5000 
     45 C          -1.3672  -15.3704  -42.9508 C.2       5 UNK         0.5000 
     46 O          -1.9840  -16.3083  -43.4522 O.2       5 UNK        -0.5000 
     47 CA         -1.4337  -13.9819  -43.6136 C.3       5 UNK         0.1400 
     48 CB         -2.5451  -13.1311  -42.9831 C.3       5 UNK        -0.1800 
     49 N          -0.1684  -13.2461  -43.5539 N.am      5 UNK        -0.5000 
     50 C           0.9934  -13.6621  -44.0729 C.2       4 UNK         0.5000 
     51 O           1.1200  -14.7254  -44.6838 O.2       4 UNK        -0.5000 
     52 CA          2.1938  -12.7165  -43.8773 C.3       4 UNK         0.1400 
     53 CB          3.5402  -13.4138  -44.1359 C.3       4 UNK        -0.1800 
     54 N           2.0680  -11.5389  -44.7387 N.am      4 UNK        -0.5000 
     55 C           1.2864  -10.4809  -44.4679 C.2       3 UNK         0.5000 
     56 O           0.6309  -10.3907  -43.4276 O.2       3 UNK        -0.5000 
     57 CA          1.1608   -9.3627  -45.5266 C.3       3 UNK         0.1400 
     58 CB          1.1412   -7.9526  -44.9000 C.3       3 UNK        -0.1800 
     59 N           2.1260   -9.4528  -46.6262 N.am      3 UNK        -0.5000 
     60 C           3.4510   -9.2390  -46.5923 C.2       2 UNK         0.5000 
     61 O           4.0621   -8.8591  -45.5925 O.2       2 UNK        -0.5000 
     62 CA          4.2144   -9.5367  -47.9063 C.3       2 UNK         0.1400 
     63 CB          5.7244   -9.7664  -47.6857 C.3       2 UNK        -0.1800 
     64 N           3.6249  -10.6490  -48.6680 N.am      2 UNK        -0.5000 
     65 C           3.4297  -11.8974  -48.2168 C.2       1 UNK         0.5000 
     66 O           3.8071  -12.2866  -47.1128 O.2       1 UNK        -0.5000 
     67 C          -0.6344  -23.3019  -47.6977 C.2       11 UNK         0.5000 
     68 O          -0.5956  -24.3985  -48.2510 O.2       11 UNK        -0.5000 
     69 N          -1.7607  -22.5903  -47.5467 N.am      12 UNK        -0.5000 
     70 CA         -3.0839  -23.0192  -48.0018 C.3       12 UNK         0.1400 
     71 CB         -4.1080  -21.9076  -47.7384 C.3       12 UNK        -0.1800 
     72 C          -3.5483  -24.3382  -47.3620 C.2       12 UNK         0.5000 
     73 O          -4.0963  -25.1858  -48.0654 O.2       12 UNK        -0.5000 
     74 N          -3.2957  -24.5056  -46.0567 N.am      13 UNK        -0.5000 
     75 CA         -3.5684  -25.7371  -45.3165 C.3       13 UNK         0.1400 
     76 CB         -3.3425  -25.5040  -43.8150 C.3       13 UNK        -0.1800 
     77 C          -2.7325  -26.9244  -45.8286 C.2       13 UNK         0.5000 
     78 O          -3.2911  -27.9928  -46.0799 O.2       13 UNK        -0.5000 
     79 N          -1.4241  -26.7038  -46.0234 N.am      14 UNK        -0.5000 
     80 CA         -0.4873  -27.6855  -46.5780 C.3       14 UNK         0.1400 
     81 CB          0.9461  -27.1467  -46.4562 C.3       14 UNK        -0.1800 
     82 C          -0.8047  -28.0691  -48.0372 C.2       14 UNK         0.5000 
     83 O          -0.6700  -29.2364  -48.4050 O.2       14 UNK        -0.5000 
     84 N          -1.2519  -27.0866  -48.8289 N.am      15 UNK        -0.5000 
     85 CA         -1.6729  -27.2342  -50.2226 C.3       15 UNK         0.1400 
     86 CB         -1.5723  -25.8635  -50.9112 C.3       15 UNK        -0.1800 
     87 C          -3.0891  -27.8253  -50.3891 C.2       15 UNK         0.5000 
     88 O          -3.5237  -28.0071  -51.5262 O.2       15 UNK        -0.5000 
     89 N          -3.7891  -28.1027  -49.2785 N.am      16 UNK        -0.5000 
     90 CA         -5.1440  -28.6581  -49.2000 C.3       16 UNK         0.1400 
     91 CB         -5.1803  -30.1029  -49.7413 C.3       16 UNK        -0.1800 
     92 C          -6.1986  -27.7348  -49.8455 C.2       16 UNK         0.5000 
     93 O          -6.9896  -28.1738  -50.6816 O.2       16 UNK        -0.5000 
     94 N          -6.1671  -26.4606  -49.4337 N.am      17 UNK        -0.5000 
     95 CA         -7.0446  -25.3470  -49.8106 C.3       17 UNK         0.1400 
     96 CB         -8.5383  -25.6938  -49.6407 C.3       17 UNK        -0.1800 
     97 C          -6.7357  -24.7215  -51.1842 C.2       17 UNK         0.5000 
     98 O          -7.4107  -23.7645  -51.5686 O.2       17 UNK        -0.5000 
     99 N          -5.6951  -25.1997  -51.8813 N.am      18 UNK        -0.5000 
    100 CA        -5.1580  -24.5881  -53.0995 C.3       18 UNK         0.1400 
    101 CB        -4.4313  -25.6585  -53.9306 C.3       18 UNK        -0.1800 
    102 C         -4.2555  -23.3909  -52.7353 C.2       18 UNK         0.5000 
    103 O         -3.0374  -23.4453  -52.9034 O.2       18 UNK        -0.5000 
    104 N         -4.8802  -22.3354  -52.2011 N.am      19 UNK        -0.5000 
    105 CA        -4.2704  -21.1584  -51.5753 C.3       19 UNK         0.1400 
    106 CB        -5.3543  -20.4671  -50.7278 C.3       19 UNK        -0.1800 
    107 C         -3.5926  -20.1610  -52.5426 C.2       19 UNK         0.5000 
    108 O         -3.5581  -18.9681  -52.2403 O.2       19 UNK        -0.5000 
    109 N         -3.0888  -20.6399  -53.6893 N.am      20 UNK        -0.5000 
    110 CA        -2.3497  -19.8962  -54.7221 C.3       20 UNK         0.1400 
    111 CB        -0.9333  -19.5629  -54.2107 C.3       20 UNK        -0.1800 
    112 C         -3.0883  -18.6491  -55.2647 C.2       20 UNK         0.5000 
    113 O         -2.4476  -17.6680  -55.6429 O.2       20 UNK        -0.5000 
    114 N         -4.4285  -18.7014  -55.2542 N.am      21 UNK        -0.5000 
    115 CA        -5.4053  -17.6512  -55.5766 C.3       21 UNK         0.1400 
    116 CB        -5.2242  -17.1252  -57.0139 C.3       21 UNK        -0.1800 
    117 C         -5.4798  -16.4903  -54.5592 C.2       21 UNK         0.5000 
    118 O         -6.5509  -15.8977  -54.4195 O.2       21 UNK        -0.5000 
    119 N         -4.3791  -16.1835  -53.8628 N.am      22 UNK        -0.5000 
    120 CA        -4.3068  -15.1744  -52.7939 C.3       22 UNK         0.1400 
    121 C         -4.9781  -15.5942  -51.4556 C.2       22 UNK         0.5000 
    122 N         -5.0925  -16.8778  -51.1436 N.am      22 UNK        -0.7600 
    123 O         -5.4156  -14.7363  -50.6936 O.2       22 UNK        -0.5000 
    124 C124       -2.8649  -14.6424  -52.5723 C.3       23 UNK        -0.0398 
    125 S125       -1.5655  -15.9252  -52.4940 S.3       23 UNK        -0.2404 
    126 C126       -1.4480  -16.2470  -50.7087 C.3       23 UNK        -0.0205 
    127 H127       -0.5680  -13.6970  -46.7985 H         1 UNK         0.0600 
    128 H128       -1.1133  -12.0377  -46.5871 H         1 UNK         0.0600 
    129 H129       -1.6713  -12.9764  -47.9787 H         1 UNK         0.0600 
    130 H130        1.2702  -14.0954  -48.0749 H         1 UNK         0.3000 
    131 H131        2.3440  -12.2913  -50.0206 H         1 UNK         0.0600 
    132 H132        2.9539  -14.4762  -50.4690 H         1 UNK         0.0800 
    133 H133        4.4140  -13.8486  -49.7920 H         1 UNK         0.0800 
    134 H134        3.9866  -17.7037  -48.8743 H         1 UNK         0.0800 
    135 H135        3.9984  -16.7088  -50.3051 H         1 UNK         0.0800 
    136 H136        1.0535  -15.5658  -49.9440 H         1 UNK         0.1150 
    137 H137       -1.3745  -18.9608  -50.8309 H         1 UNK         0.1150 
    138 H138        2.7549  -19.4924  -49.8027 H         1 UNK         0.1150 
    139 H139       -0.5425  -21.1954  -50.2259 H         1 UNK         0.0800 
    140 H140        0.5421  -21.1238  -51.5937 H         1 UNK         0.0800 
    141 H141        0.5901  -20.7054  -47.8811 H         1 UNK         0.0800 
    142 H142        2.1844  -21.2315  -47.4433 H         1 UNK         0.0800 
    143 H143        1.3935  -23.5349  -47.0688 H         1 UNK         0.0600 
    144 H144        0.5959  -21.3333  -45.4941 H         1 UNK         0.3000 
    145 H145       -0.8275  -23.1306  -42.7520 H         1 UNK         0.0600 
    146 H146        0.8425  -21.7182  -41.5935 H         1 UNK         0.0600 
    147 H147        1.6523  -23.0349  -42.4295 H         1 UNK         0.0600 
    148 H148        1.6864  -21.4117  -43.1093 H         1 UNK         0.0600 
    149 H149       -0.5626  -20.3419  -43.2330 H         1 UNK         0.3000 
    150 H150       -3.7161  -19.8968  -44.9288 H         1 UNK         0.0600 
    151 H151       -4.1138  -19.9030  -42.4588 H         1 UNK         0.0600 
    152 H152       -3.9448  -18.2715  -43.0875 H         1 UNK         0.0600 
    153 H153       -2.6125  -19.0198  -42.2096 H         1 UNK         0.0600 
    154 H154       -1.7127  -18.0009  -44.3030 H         1 UNK         0.3000 
    155 H155        0.1664  -18.3093  -47.3647 H         1 UNK         0.0600 
    156 H156       -1.8086  -16.8047  -47.7505 H         1 UNK         0.0600 
    157 H157       -0.3277  -15.9210  -47.4181 H         1 UNK         0.0600 
    158 H158       -1.5607  -16.0853  -46.1652 H         1 UNK         0.0600 
    159 H159        0.6082  -16.6458  -45.1114 H         1 UNK         0.3000 
    160 H160        2.6183  -18.9196  -43.2060 H         1 UNK         0.0600 
    161 H161        3.2007  -16.3567  -44.7841 H         1 UNK         0.0600 
    162 H162        4.1333  -17.8420  -44.8219 H         1 UNK         0.0600 
    163 H163        4.0790  -16.8864  -43.3483 H         1 UNK         0.0600 
    164 H164        1.6022  -16.2419  -42.8099 H         1 UNK         0.3000 
    165 H165       -1.2787  -17.2110  -40.9348 H         1 UNK         0.0600 
    166 H166       -0.1805  -15.8147  -39.2075 H         1 UNK         0.0600 
    167 H167        0.6088  -17.3804  -39.3065 H         1 UNK         0.0600 
    168 H168        1.3743  -15.9690  -40.0262 H         1 UNK         0.0600 
    169 H169       -0.1145  -14.6654  -41.5228 H         1 UNK         0.3000 
    170 H170       -1.6796  -14.1338  -44.6656 H         1 UNK         0.0600 
    171 H171       -3.5061  -13.6450  -43.0325 H         1 UNK         0.0600 
    172 H172       -2.3409  -12.9148  -41.9338 H         1 UNK         0.0600 
    173 H173       -2.6582  -12.1811  -43.5060 H         1 UNK         0.0600 
    174 H174       -0.1902  -12.3285  -43.1234 H         1 UNK         0.3000 
    175 H175        2.1972  -12.3925  -42.8344 H         1 UNK         0.0600 
    176 H176        3.5811  -13.8732  -45.1236 H         1 UNK         0.0600 
    177 H177        4.3714  -12.7129  -44.0581 H         1 UNK         0.0600 
    178 H178        3.7113  -14.2044  -43.4049 H         1 UNK         0.0600 
    179 H179        2.5818  -11.5740  -45.6127 H         1 UNK         0.3000 
    180 H180        0.1860   -9.5174  -45.9912 H         1 UNK         0.0600 
    181 H181        2.0431   -7.7501  -44.3223 H         1 UNK         0.0600 
    182 H182        0.2931   -7.8379  -44.2240 H         1 UNK         0.0600 
    183 H183        1.0498   -7.1813  -45.6646 H         1 UNK         0.0600 
    184 H184        1.7320   -9.8046  -47.4930 H         1 UNK         0.3000 
    185 H185        4.1041   -8.6463  -48.5268 H         1 UNK         0.0600 
    186 H186        6.1941   -8.8854  -47.2468 H         1 UNK         0.0600 
    187 H187        5.9141  -10.6051  -47.0152 H         1 UNK         0.0600 
    188 H188        6.2341   -9.9683  -48.6277 H         1 UNK         0.0600 
    189 H189        3.2479  -10.4009  -49.5727 H         1 UNK         0.3000 
    190 H190       -1.7112  -21.6704  -47.1130 H         1 UNK         0.3000 
    191 H191       -3.0243  -23.1802  -49.0798 H         1 UNK         0.0600 
    192 H192       -4.1861  -21.6750  -46.6767 H         1 UNK         0.0600 
    193 H193       -5.1005  -22.2021  -48.0805 H         1 UNK         0.0600 
    194 H194       -3.8358  -20.9900  -48.2590 H         1 UNK         0.0600 
    195 H195       -2.8961  -23.7328  -45.5317 H         1 UNK         0.3000 
    196 H196       -4.6215  -25.9857  -45.4631 H         1 UNK         0.0600 
    197 H197       -3.5631  -26.4057  -43.2425 H         1 UNK         0.0600 
    198 H198       -3.9906  -24.7124  -43.4386 H         1 UNK         0.0600 
    199 H199       -2.3125  -25.2212  -43.5986 H         1 UNK         0.0600 
    200 H200       -1.0375  -25.7980  -45.7740 H         1 UNK         0.3000 
    201 H201       -0.5611  -28.5928  -45.9750 H         1 UNK         0.0600 
    202 H202        1.2042  -26.9460  -45.4162 H         1 UNK         0.0600 
    203 H203        1.0771  -26.2205  -47.0165 H         1 UNK         0.0600 
    204 H204        1.6693  -27.8681  -46.8384 H         1 UNK         0.0600 
    205 H205       -1.2518  -26.1368  -48.4634 H         1 UNK         0.3000 
    206 H206       -0.9793  -27.9138  -50.7214 H         1 UNK         0.0600 
    207 H207       -0.5763  -25.4350  -50.7985 H         1 UNK         0.0600 
    208 H208       -1.7621  -25.9444  -51.9809 H         1 UNK         0.0600 
    209 H209       -2.2910  -25.1534  -50.5005 H         1 UNK         0.0600 
    210 H210       -3.3583  -27.8863  -48.3885 H         1 UNK         0.3000 
    211 H211       -5.3901  -28.7036  -48.1380 H         1 UNK         0.0600 
    212 H212       -4.9842  -30.1432  -50.8130 H         1 UNK         0.0600 
    213 H213       -6.1573  -30.5569  -49.5720 H         1 UNK         0.0600 
    214 H214       -4.4410  -30.7286  -49.2414 H         1 UNK         0.0600 
    215 H215       -5.4087  -26.1876  -48.8089 H         1 UNK         0.3000 
    216 H216       -6.8203  -24.5624  -49.0864 H         1 UNK         0.0600 
    217 H217       -9.1570  -24.8003  -49.7305 H         1 UNK         0.0600 
    218 H218       -8.7356  -26.1256  -48.6596 H         1 UNK         0.0600 
    219 H219       -8.8829  -26.3993  -50.3968 H         1 UNK         0.0600 
    220 H220       -5.1799  -25.9818  -51.5018 H         1 UNK         0.3000 
    221 H221       -5.9821  -24.2088  -53.7077 H         1 UNK         0.0600 
    222 H222       -3.5861  -26.0866  -53.3942 H         1 UNK         0.0600 
    223 H223       -5.1040  -26.4744  -54.1955 H         1 UNK         0.0600 
    224 H224       -4.0488  -25.2365  -54.8606 H         1 UNK         0.0600 
    225 H225       -5.8867  -22.4098  -52.1024 H         1 UNK         0.3000 
    226 H226       -3.4889  -21.5110  -50.9000 H         1 UNK         0.0600 
    227 H227       -5.8629  -21.1745  -50.0736 H         1 UNK         0.0600 
    228 H228       -4.9244  -19.6919  -50.0925 H         1 UNK         0.0600 
    229 H229       -6.1121  -19.9965  -51.3556 H         1 UNK         0.0600 
    230 H230       -3.1275  -21.6459  -53.8119 H         1 UNK         0.3000 
    231 H231       -2.2435  -20.5745  -55.5696 H         1 UNK         0.0600 
    232 H232       -0.4213  -20.4567  -53.8550 H         1 UNK         0.0600 
    233 H233       -0.9617  -18.8441  -53.3917 H         1 UNK         0.0600 
    234 H234       -0.3185  -19.1323  -55.0018 H         1 UNK         0.0600 
    235 H235       -4.8342  -19.5518  -54.8903 H         1 UNK         0.3000 
    236 H236       -6.3766  -18.1465  -55.5369 H         1 UNK         0.0600 
    237 H237       -6.0443  -16.4605  -57.2882 H         1 UNK         0.0600 
    238 H238       -4.2996  -16.5596  -57.1298 H         1 UNK         0.0600 
    239 H239       -5.2130  -17.9419  -57.7356 H         1 UNK         0.0600 
    240 H240       -3.5311  -16.7088  -54.0376 H         1 UNK         0.3000 
    241 H241       -4.8895  -14.3178  -53.1392 H         1 UNK         0.0600 
    242 H242       -5.5426  -17.1359  -50.2817 H         1 UNK         0.3800 
    243 H243       -4.6296  -17.5897  -51.7059 H         1 UNK         0.3800 
    244 H244       -2.8069  -14.0013  -51.6908 H         1 UNK         0.0800 
    245 H245       -2.6054  -13.9943  -53.4102 H         1 UNK         0.0800 
    246 H246       -2.3732  -16.7041  -50.3565 H         1 UNK         0.0800 
    247 H247       -1.3363  -15.3057  -50.1684 H         1 UNK         0.0800 
@<TRIPOS>BOND
     1    1    2 1    
     2    1  127 1    
     3    1  128 1    
     4    1  129 1    
     5    2    3 2    
     6    2    4 am   BACKBONE|DICT|INTERRES
     7    4    5 1    
     8    4  130 1    
     9    5    6 1    
    10    5   65 1    
    11    5  131 1    
    12    6    7 1    
    13    6  132 1    
    14    6  133 1    
    15    7    8 1    
    16    8    9 1    
    17    8  134 1    
    18    8  135 1    
    19    9   10 ar   
    20    9   14 ar   
    21   10   11 ar   
    22   10  136 1    
    23   11   12 ar   
    24   11  126 1    
    25   12   13 ar   
    26   12  137 1    
    27   13   14 ar   
    28   13   15 1    
    29   14  138 1    
    30   15   16 1    
    31   15  139 1    
    32   15  140 1    
    33   16   17 1    
    34   17   18 1    
    35   17  141 1    
    36   17  142 1    
    37   18   19 1    
    38   18   67 1    
    39   18  143 1    
    40   19   20 am   BACKBONE|DICT|INTERRES
    41   19  144 1    
    42   20   21 2    
    43   20   22 1    
    44   22   23 1    
    45   22   24 1    
    46   22  145 1    
    47   23  146 1    
    48   23  147 1    
    49   23  148 1    
    50   24   25 am   BACKBONE|DICT|INTERRES
    51   24  149 1    
    52   25   26 2    
    53   25   27 1    
    54   27   28 1    
    55   27   29 1    
    56   27  150 1    
    57   28  151 1    
    58   28  152 1    
    59   28  153 1    
    60   29   30 am   BACKBONE|DICT|INTERRES
    61   29  154 1    
    62   30   31 2    
    63   30   32 1    
    64   32   33 1    
    65   32   34 1    
    66   32  155 1    
    67   33  156 1    
    68   33  157 1    
    69   33  158 1    
    70   34   35 am   BACKBONE|DICT|INTERRES
    71   34  159 1    
    72   35   36 2    
    73   35   37 1    
    74   37   38 1    
    75   37   39 1    
    76   37  160 1    
    77   38  161 1    
    78   38  162 1    
    79   38  163 1    
    80   39   40 am   BACKBONE|DICT|INTERRES
    81   39  164 1    
    82   40   41 2    
    83   40   42 1    
    84   42   43 1    
    85   42   44 1    
    86   42  165 1    
    87   43  166 1    
    88   43  167 1    
    89   43  168 1    
    90   44   45 am   BACKBONE|DICT|INTERRES
    91   44  169 1    
    92   45   46 2    
    93   45   47 1    
    94   47   48 1    
    95   47   49 1    
    96   47  170 1    
    97   48  171 1    
    98   48  172 1    
    99   48  173 1    
   100   49   50 am   BACKBONE|DICT|INTERRES
   101   49  174 1    
   102   50   51 2    
   103   50   52 1    
   104   52   53 1    
   105   52   54 1    
   106   52  175 1    
   107   53  176 1    
   108   53  177 1    
   109   53  178 1    
   110   54   55 am   BACKBONE|DICT|INTERRES
   111   54  179 1    
   112   55   56 2    
   113   55   57 1    
   114   57   58 1    
   115   57   59 1    
   116   57  180 1    
   117   58  181 1    
   118   58  182 1    
   119   58  183 1    
   120   59   60 am   BACKBONE|DICT|INTERRES
   121   59  184 1    
   122   60   61 2    
   123   60   62 1    
   124   62   63 1    
   125   62   64 1    
   126   62  185 1    
   127   63  186 1    
   128   63  187 1    
   129   63  188 1    
   130   64   65 am   BACKBONE|DICT|INTERRES
   131   64  189 1    
   132   65   66 2    
   133   67   68 2    
   134   67   69 am   BACKBONE|DICT|INTERRES
   135   69   70 1    
   136   69  190 1    
   137   70   71 1    
   138   70   72 1    
   139   70  191 1    
   140   71  192 1    
   141   71  193 1    
   142   71  194 1    
   143   72   73 2    
   144   72   74 am   BACKBONE|DICT|INTERRES
   145   74   75 1    
   146   74  195 1    
   147   75   76 1    
   148   75   77 1    
   149   75  196 1    
   150   76  197 1    
   151   76  198 1    
   152   76  199 1    
   153   77   78 2    
   154   77   79 am   BACKBONE|DICT|INTERRES
   155   79   80 1    
   156   79  200 1    
   157   80   81 1    
   158   80   82 1    
   159   80  201 1    
   160   81  202 1    
   161   81  203 1    
   162   81  204 1    
   163   82   83 2    
   164   82   84 am   BACKBONE|DICT|INTERRES
   165   84   85 1    
   166   84  205 1    
   167   85   86 1    
   168   85   87 1    
   169   85  206 1    
   170   86  207 1    
   171   86  208 1    
   172   86  209 1    
   173   87   88 2    
   174   87   89 am   BACKBONE|DICT|INTERRES
   175   89   90 1    
   176   89  210 1    
   177   90   91 1    
   178   90   92 1    
   179   90  211 1    
   180   91  212 1    
   181   91  213 1    
   182   91  214 1    
   183   92   93 2    
   184   92   94 am   BACKBONE|DICT|INTERRES
   185   94   95 1    
   186   94  215 1    
   187   95   96 1    
   188   95   97 1    
   189   95  216 1    
   190   96  217 1    
   191   96  218 1    
   192   96  219 1    
   193   97   98 2    
   194   97   99 am   BACKBONE|DICT|INTERRES
   195   99  100 1    
   196   99  220 1    
   197  100  101 1    
   198  100  102 1    
   199  100  221 1    
   200  101  222 1    
   201  101  223 1    
   202  101  224 1    
   203  102  103 2    
   204  102  104 am   BACKBONE|DICT|INTERRES
   205  104  105 1    
   206  104  225 1    
   207  105  106 1    
   208  105  107 1    
   209  105  226 1    
   210  106  227 1    
   211  106  228 1    
   212  106  229 1    
   213  107  108 2    
   214  107  109 am   BACKBONE|DICT|INTERRES
   215  109  110 1    
   216  109  230 1    
   217  110  111 1    
   218  110  112 1    
   219  110  231 1    
   220  111  232 1    
   221  111  233 1    
   222  111  234 1    
   223  112  113 2    
   224  112  114 am   BACKBONE|DICT|INTERRES
   225  114  115 1    
   226  114  235 1    
   227  115  116 1    
   228  115  117 1    
   229  115  236 1    
   230  116  237 1    
   231  116  238 1    
   232  116  239 1    
   233  117  118 2    
   234  117  119 am   BACKBONE|DICT|INTERRES
   235  119  120 1    
   236  119  240 1    
   237  120  121 1    
   238  120  124 1    
   239  120  241 1    
   240  121  122 am   BACKBONE|DICT|INTERRES
   241  121  123 2    
   242  122  242 1    
   243  122  243 1    
   244  124  125 1    
   245  124  244 1    
   246  124  245 1    
   247  125  126 1    
   248  126  246 1    
   249  126  247 1    
@<TRIPOS>SUBSTRUCTURE
     1 UNK         1 GROUP             0       ****    0 ROOT    
