@<TRIPOS>MOLECULE
3R540
247   249    1
SMALL
USER_CHARGES


@<TRIPOS>ATOM
      1 CA         -4.6421  -12.7413  -50.7033 C.3       0 UNK        -0.1800 
      2 C          -3.5704  -12.8275  -49.6264 C.2       0 UNK         0.5000 
      3 O          -3.5506  -12.0017  -48.7142 O.2       0 UNK        -0.5000 
      4 N          -2.6834  -13.8260  -49.7251 N.am      1 UNK        -0.5000 
      5 CA         -1.5916  -14.0824  -48.7778 C.3       1 UNK         0.1400 
      6 C6         -0.5495  -15.0657  -49.3679 C.3       23 UNK        -0.0398 
      7 S7         -1.1953  -16.7377  -49.7348 S.3       23 UNK        -0.2404 
      8 C8          0.3327  -17.5393  -50.2952 C.3       23 UNK        -0.0205 
      9 C9          0.0486  -18.8591  -50.9920 C.ar      23 UNK        -0.0193 
     10 C10        -0.2072  -18.8788  -52.3645 C.ar      23 UNK        -0.1150 
     11 C11        -0.3999  -20.0903  -53.0329 C.ar      23 UNK        -0.0193 
     12 C12        -0.3653  -21.2859  -52.3093 C.ar      23 UNK        -0.1150 
     13 C13        -0.1280  -21.2846  -50.9296 C.ar      23 UNK        -0.0193 
     14 C14         0.0747  -20.0607  -50.2783 C.ar      23 UNK        -0.1150 
     15 C15        -0.1167  -22.6151  -50.1758 C.3       23 UNK        -0.0205 
     16 S16         1.2861  -22.8325  -49.0331 S.3       23 UNK        -0.2404 
     17 C17         0.6189  -22.1692  -47.4686 C.3       23 UNK        -0.0398 
     18 CA          0.2265  -23.2753  -46.4556 C.3       11 UNK         0.1400 
     19 N           0.5829  -22.9067  -45.0785 N.am      11 UNK        -0.5000 
     20 C           0.4420  -23.6959  -44.0030 C.2       10 UNK         0.5000 
     21 O           0.0063  -24.8447  -44.0551 O.2       10 UNK        -0.5000 
     22 CA          0.7840  -23.0812  -42.6364 C.3       10 UNK         0.1400 
     23 CB          2.2983  -23.1026  -42.3801 C.3       10 UNK        -0.1800 
     24 N           0.2766  -21.7139  -42.5357 N.am      10 UNK        -0.5000 
     25 C          -1.0145  -21.4062  -42.3412 C.2       9 UNK         0.5000 
     26 O          -1.8908  -22.2410  -42.1169 O.2       9 UNK        -0.5000 
     27 CA         -1.3979  -19.9185  -42.4575 C.3       9 UNK         0.1400 
     28 CB         -1.2623  -19.2150  -41.0992 C.3       9 UNK        -0.1800 
     29 N          -0.5997  -19.2141  -43.4652 N.am      9 UNK        -0.5000 
     30 C          -0.7024  -19.4457  -44.7839 C.2       8 UNK         0.5000 
     31 O          -1.5126  -20.2294  -45.2706 O.2       8 UNK        -0.5000 
     32 CA          0.2777  -18.7231  -45.7244 C.3       8 UNK         0.1400 
     33 CB         -0.3603  -17.4451  -46.2669 C.3       8 UNK        -0.1800 
     34 N           1.5564  -18.3926  -45.1025 N.am      8 UNK        -0.5000 
     35 C           2.4257  -19.2833  -44.6082 C.2       7 UNK         0.5000 
     36 O           2.2613  -20.5016  -44.6784 O.2       7 UNK        -0.5000 
     37 CA          3.6465  -18.7128  -43.8614 C.3       7 UNK         0.1400 
     38 CB          4.8647  -18.6545  -44.7936 C.3       7 UNK        -0.1800 
     39 N           3.4128  -17.3798  -43.2943 N.am      7 UNK        -0.5000 
     40 C           2.5031  -17.0758  -42.3591 C.2       6 UNK         0.5000 
     41 O           1.7323  -17.9018  -41.8706 O.2       6 UNK        -0.5000 
     42 CA          2.3899  -15.5974  -41.9462 C.3       6 UNK         0.1400 
     43 CB          3.6423  -15.1129  -41.1904 C.3       6 UNK        -0.1800 
     44 N           2.0403  -14.7084  -43.0619 N.am      6 UNK        -0.5000 
     45 C           2.7657  -14.3800  -44.1430 C.2       5 UNK         0.5000 
     46 O           3.9098  -14.7908  -44.3432 O.2       5 UNK        -0.5000 
     47 CA          2.1048  -13.4722  -45.2023 C.3       5 UNK         0.1400 
     48 CB          2.0640  -14.1734  -46.5681 C.3       5 UNK        -0.1800 
     49 N           0.7442  -13.0596  -44.8492 N.am      5 UNK        -0.5000 
     50 C           0.4467  -12.0139  -44.0670 C.2       4 UNK         0.5000 
     51 O           1.2916  -11.2633  -43.5777 O.2       4 UNK        -0.5000 
     52 CA         -1.0435  -11.7852  -43.7526 C.3       4 UNK         0.1400 
     53 CB         -1.7054  -10.9562  -44.8638 C.3       4 UNK        -0.1800 
     54 N          -1.8082  -13.0194  -43.5637 N.am      4 UNK        -0.5000 
     55 C          -1.5781  -13.9695  -42.6500 C.2       3 UNK         0.5000 
     56 O          -0.6371  -13.9316  -41.8578 O.2       3 UNK        -0.5000 
     57 CA         -2.5289  -15.1850  -42.6211 C.3       3 UNK         0.1400 
     58 CB         -3.7237  -14.9336  -41.6829 C.3       3 UNK        -0.1800 
     59 N          -2.9713  -15.6619  -43.9393 N.am      3 UNK        -0.5000 
     60 C          -3.7436  -15.0478  -44.8471 C.2       2 UNK         0.5000 
     61 O          -4.2564  -13.9379  -44.6912 O.2       2 UNK        -0.5000 
     62 CA         -3.9215  -15.7890  -46.1843 C.3       2 UNK         0.1400 
     63 CB         -5.4126  -15.9894  -46.5003 C.3       2 UNK        -0.1800 
     64 N          -3.2811  -15.1239  -47.3233 N.am      2 UNK        -0.5000 
     65 C          -2.0671  -14.5494  -47.3839 C.2       1 UNK         0.5000 
     66 O          -1.3093  -14.4037  -46.4231 O.2       1 UNK        -0.5000 
     67 C          -1.2633  -23.6673  -46.5899 C.2       11 UNK         0.5000 
     68 O          -1.5790  -24.6729  -47.2256 O.2       11 UNK        -0.5000 
     69 N          -2.1445  -22.9171  -45.9156 N.am      12 UNK        -0.5000 
     70 CA         -3.5839  -23.1650  -45.8229 C.3       12 UNK         0.1400 
     71 CB         -4.2618  -21.9382  -45.1937 C.3       12 UNK        -0.1800 
     72 C          -3.9678  -24.4512  -45.0611 C.2       12 UNK         0.5000 
     73 O          -5.1213  -24.8705  -45.1575 O.2       12 UNK        -0.5000 
     74 N          -3.0206  -25.0622  -44.3382 N.am      13 UNK        -0.5000 
     75 CA         -3.1824  -26.3631  -43.6931 C.3       13 UNK         0.1400 
     76 CB         -2.6281  -26.2948  -42.2606 C.3       13 UNK        -0.1800 
     77 C          -2.4773  -27.4645  -44.5032 C.2       13 UNK         0.5000 
     78 O          -3.0736  -28.5141  -44.7449 O.2       13 UNK        -0.5000 
     79 N          -1.2208  -27.2135  -44.8964 N.am      14 UNK        -0.5000 
     80 CA         -0.3417  -28.1774  -45.5572 C.3       14 UNK         0.1400 
     81 CB          1.1099  -27.6799  -45.4643 C.3       14 UNK        -0.1800 
     82 C          -0.7257  -28.4571  -47.0198 C.2       14 UNK         0.5000 
     83 O          -0.8101  -29.6218  -47.4119 O.2       14 UNK        -0.5000 
     84 N          -0.9366  -27.3895  -47.7985 N.am      15 UNK        -0.5000 
     85 CA         -1.2882  -27.4510  -49.2188 C.3       15 UNK         0.1400 
     86 CB         -0.4766  -26.3883  -49.9753 C.3       15 UNK        -0.1800 
     87 C          -2.7930  -27.2313  -49.4490 C.2       15 UNK         0.5000 
     88 O          -3.2985  -27.6183  -50.5030 O.2       15 UNK        -0.5000 
     89 N          -3.4714  -26.6173  -48.4672 N.am      16 UNK        -0.5000 
     90 CA         -4.8889  -26.2450  -48.4658 C.3       16 UNK         0.1400 
     91 CB         -5.7943  -27.4941  -48.5100 C.3       16 UNK        -0.1800 
     92 C          -5.2187  -25.2015  -49.5517 C.2       16 UNK         0.5000 
     93 O          -6.2143  -25.3393  -50.2653 O.2       16 UNK        -0.5000 
     94 N          -4.3637  -24.1774  -49.6609 N.am      17 UNK        -0.5000 
     95 CA         -4.4712  -23.1007  -50.6393 C.3       17 UNK         0.1400 
     96 CB         -3.6513  -23.4771  -51.8870 C.3       17 UNK        -0.1800 
     97 C          -3.9752  -21.7784  -50.0373 C.2       17 UNK         0.5000 
     98 O          -3.2594  -21.7843  -49.0348 O.2       17 UNK        -0.5000 
     99 N          -4.3487  -20.6791  -50.6945 N.am      18 UNK        -0.5000 
    100 CA        -3.8928  -19.3097  -50.4822 C.3       18 UNK         0.1400 
    101 CB        -4.3615  -18.7597  -49.1216 C.3       18 UNK        -0.1800 
    102 C         -4.4617  -18.4779  -51.6417 C.2       18 UNK         0.5000 
    103 O         -5.5377  -18.8105  -52.1485 O.2       18 UNK        -0.5000 
    104 N         -3.7491  -17.4258  -52.0525 N.am      19 UNK        -0.5000 
    105 CA        -4.1183  -16.5506  -53.1646 C.3       19 UNK         0.1400 
    106 CB        -3.8876  -17.2750  -54.5060 C.3       19 UNK        -0.1800 
    107 C         -3.2815  -15.2663  -53.1001 C.2       19 UNK         0.5000 
    108 O         -2.3338  -15.1923  -52.3168 O.2       19 UNK        -0.5000 
    109 N         -3.6280  -14.2744  -53.9298 N.am      20 UNK        -0.5000 
    110 CA        -2.8053  -13.0776  -54.1441 C.3       20 UNK         0.1400 
    111 CB        -3.6505  -11.9949  -54.8317 C.3       20 UNK        -0.1800 
    112 C         -1.5397  -13.3933  -54.9686 C.2       20 UNK         0.5000 
    113 O         -0.4871  -12.7996  -54.7334 O.2       20 UNK        -0.5000 
    114 N         -1.6701  -14.3495  -55.8938 N.am      21 UNK        -0.5000 
    115 CA        -0.6154  -14.9637  -56.6874 C.3       21 UNK         0.1400 
    116 CB        -0.2319  -14.0576  -57.8701 C.3       21 UNK        -0.1800 
    117 C         -1.1633  -16.3135  -57.1703 C.2       21 UNK         0.5000 
    118 O         -2.3719  -16.4272  -57.3938 O.2       21 UNK        -0.5000 
    119 N         -0.2862  -17.3122  -57.3102 N.am      22 UNK        -0.5000 
    120 CA        -0.6658  -18.6930  -57.6661 C.3       22 UNK         0.1400 
    121 C         -0.9928  -18.9181  -59.1728 C.2       22 UNK         0.5000 
    122 N         -0.7626  -17.9561  -60.0580 N.am      22 UNK        -0.7600 
    123 O         -1.4709  -19.9862  -59.5451 O.2       22 UNK        -0.5000 
    124 C124        0.3654  -19.7405  -57.1667 C.3       23 UNK        -0.0398 
    125 S125        0.8642  -19.5374  -55.4223 S.3       23 UNK        -0.2404 
    126 C126       -0.6238  -20.1030  -54.5379 C.3       23 UNK        -0.0205 
    127 H127       -4.3305  -12.0576  -51.4926 H         1 UNK         0.0600 
    128 H128       -5.5760  -12.3713  -50.2799 H         1 UNK         0.0600 
    129 H129       -4.8418  -13.7166  -51.1457 H         1 UNK         0.0600 
    130 H130       -2.6949  -14.4359  -50.5379 H         1 UNK         0.3000 
    131 H131       -1.0795  -13.1310  -48.6185 H         1 UNK         0.0600 
    132 H132        0.3044  -15.1616  -48.6972 H         1 UNK         0.0800 
    133 H133       -0.1495  -14.6492  -50.2937 H         1 UNK         0.0800 
    134 H134        0.9944  -17.6946  -49.4418 H         1 UNK         0.0800 
    135 H135        0.8628  -16.8746  -50.9792 H         1 UNK         0.0800 
    136 H136       -0.2278  -17.9514  -52.9204 H         1 UNK         0.1150 
    137 H137       -0.5187  -22.2231  -52.8255 H         1 UNK         0.1150 
    138 H138        0.2683  -20.0309  -49.2183 H         1 UNK         0.1150 
    139 H139       -1.0499  -22.7465  -49.6338 H         1 UNK         0.0800 
    140 H140       -0.0717  -23.4362  -50.8922 H         1 UNK         0.0800 
    141 H141       -0.2147  -21.4906  -47.6558 H         1 UNK         0.0800 
    142 H142        1.4155  -21.5489  -47.0567 H         1 UNK         0.0800 
    143 H143        0.8095  -24.1721  -46.6763 H         1 UNK         0.0600 
    144 H144        1.0014  -21.9916  -44.9448 H         1 UNK         0.3000 
    145 H145        0.3057  -23.6901  -41.8659 H         1 UNK         0.0600 
    146 H146        2.5373  -22.6900  -41.3999 H         1 UNK         0.0600 
    147 H147        2.6798  -24.1241  -42.4043 H         1 UNK         0.0600 
    148 H148        2.8498  -22.5320  -43.1271 H         1 UNK         0.0600 
    149 H149        0.9274  -20.9708  -42.7473 H         1 UNK         0.3000 
    150 H150       -2.4463  -19.8682  -42.7600 H         1 UNK         0.0600 
    151 H151       -1.9126  -19.6785  -40.3563 H         1 UNK         0.0600 
    152 H152       -1.5427  -18.1644  -41.1651 H         1 UNK         0.0600 
    153 H153       -0.2427  -19.2679  -40.7166 H         1 UNK         0.0600 
    154 H154        0.1264  -18.5980  -43.1185 H         1 UNK         0.3000 
    155 H155        0.4768  -19.3833  -46.5689 H         1 UNK         0.0600 
    156 H156       -0.5282  -16.7156  -45.4746 H         1 UNK         0.0600 
    157 H157       -1.3197  -17.6569  -46.7399 H         1 UNK         0.0600 
    158 H158        0.2732  -16.9871  -47.0241 H         1 UNK         0.0600 
    159 H159        1.7743  -17.4135  -44.9974 H         1 UNK         0.3000 
    160 H160        3.8724  -19.3930  -43.0378 H         1 UNK         0.0600 
    161 H161        4.7043  -17.9624  -45.6214 H         1 UNK         0.0600 
    162 H162        5.0786  -19.6354  -45.2205 H         1 UNK         0.0600 
    163 H163        5.7571  -18.3333  -44.2561 H         1 UNK         0.0600 
    164 H164        3.9486  -16.6099  -43.6858 H         1 UNK         0.3000 
    165 H165        1.5531  -15.5342  -41.2488 H         1 UNK         0.0600 
    166 H166        3.5196  -14.0853  -40.8481 H         1 UNK         0.0600 
    167 H167        3.8241  -15.7290  -40.3091 H         1 UNK         0.0600 
    168 H168        4.5416  -15.1550  -41.8050 H         1 UNK         0.0600 
    169 H169        1.1143  -14.3030  -42.9879 H         1 UNK         0.3000 
    170 H170        2.7334  -12.5849  -45.3017 H         1 UNK         0.0600 
    171 H171        3.0661  -14.4375  -46.9084 H         1 UNK         0.0600 
    172 H172        1.4794  -15.0905  -46.5242 H         1 UNK         0.0600 
    173 H173        1.6238  -13.5277  -47.3280 H         1 UNK         0.0600 
    174 H174       -0.0184  -13.6046  -45.2462 H         1 UNK         0.3000 
    175 H175       -1.1002  -11.2190  -42.8210 H         1 UNK         0.0600 
    176 H176       -1.7188  -11.4950  -45.8126 H         1 UNK         0.0600 
    177 H177       -2.7352  -10.7056  -44.6084 H         1 UNK         0.0600 
    178 H178       -1.1725  -10.0181  -45.0245 H         1 UNK         0.0600 
    179 H179       -2.6139  -13.1527  -44.1684 H         1 UNK         0.3000 
    180 H180       -1.9527  -16.0080  -42.1964 H         1 UNK         0.0600 
    181 H181       -4.3444  -14.1047  -42.0241 H         1 UNK         0.0600 
    182 H182       -3.3816  -14.6892  -40.6764 H         1 UNK         0.0600 
    183 H183       -4.3564  -15.8176  -41.6050 H         1 UNK         0.0600 
    184 H184       -2.5844  -16.5561  -44.2017 H         1 UNK         0.3000 
    185 H185       -3.4681  -16.7776  -46.0974 H         1 UNK         0.0600 
    186 H186       -5.5541  -16.6033  -47.3891 H         1 UNK         0.0600 
    187 H187       -5.9227  -16.4914  -45.6771 H         1 UNK         0.0600 
    188 H188       -5.9182  -15.0375  -46.6681 H         1 UNK         0.0600 
    189 H189       -3.8001  -15.1499  -48.1874 H         1 UNK         0.3000 
    190 H190       -1.8173  -22.0610  -45.4750 H         1 UNK         0.3000 
    191 H191       -3.9664  -23.2745  -46.8387 H         1 UNK         0.0600 
    192 H192       -5.3404  -22.0791  -45.1147 H         1 UNK         0.0600 
    193 H193       -4.0971  -21.0469  -45.7997 H         1 UNK         0.0600 
    194 H194       -3.8796  -21.7398  -44.1917 H         1 UNK         0.0600 
    195 H195       -2.0931  -24.6580  -44.3100 H         1 UNK         0.3000 
    196 H196       -4.2394  -26.6281  -43.6235 H         1 UNK         0.0600 
    197 H197       -2.7507  -27.2505  -41.7497 H         1 UNK         0.0600 
    198 H198       -3.1540  -25.5417  -41.6734 H         1 UNK         0.0600 
    199 H199       -1.5666  -26.0471  -42.2423 H         1 UNK         0.0600 
    200 H200       -0.7911  -26.3305  -44.6274 H         1 UNK         0.3000 
    201 H201       -0.4063  -29.1215  -45.0118 H         1 UNK         0.0600 
    202 H202        1.4204  -27.5657  -44.4256 H         1 UNK         0.0600 
    203 H203        1.2390  -26.7155  -45.9575 H         1 UNK         0.0600 
    204 H204        1.7968  -28.3850  -45.9339 H         1 UNK         0.0600 
    205 H205       -0.8980  -26.4598  -47.3924 H         1 UNK         0.3000 
    206 H206       -1.0299  -28.4282  -49.6320 H         1 UNK         0.0600 
    207 H207       -0.7165  -25.3841  -49.6289 H         1 UNK         0.0600 
    208 H208        0.5948  -26.5406  -49.8444 H         1 UNK         0.0600 
    209 H209       -0.6838  -26.4241  -51.0455 H         1 UNK         0.0600 
    210 H210       -2.9278  -26.2821  -47.6822 H         1 UNK         0.3000 
    211 H211       -5.0764  -25.7512  -47.5162 H         1 UNK         0.0600 
    212 H212       -5.7194  -28.0209  -49.4615 H         1 UNK         0.0600 
    213 H213       -6.8407  -27.2204  -48.3712 H         1 UNK         0.0600 
    214 H214       -5.5351  -28.1949  -47.7163 H         1 UNK         0.0600 
    215 H215       -3.5861  -24.0943  -49.0184 H         1 UNK         0.3000 
    216 H216       -5.5165  -22.9605  -50.9233 H         1 UNK         0.0600 
    217 H217       -3.6919  -22.6913  -52.6422 H         1 UNK         0.0600 
    218 H218       -4.0323  -24.3888  -52.3475 H         1 UNK         0.0600 
    219 H219       -2.6020  -23.6430  -51.6412 H         1 UNK         0.0600 
    220 H220       -4.9667  -20.7604  -51.4932 H         1 UNK         0.3000 
    221 H221       -2.8031  -19.2945  -50.5320 H         1 UNK         0.0600 
    222 H222       -5.4455  -18.8161  -49.0174 H         1 UNK         0.0600 
    223 H223       -3.9139  -19.3059  -48.2913 H         1 UNK         0.0600 
    224 H224       -4.0717  -17.7150  -49.0073 H         1 UNK         0.0600 
    225 H225       -2.8870  -17.1665  -51.5843 H         1 UNK         0.3000 
    226 H226       -5.1707  -16.2762  -53.0675 H         1 UNK         0.0600 
    227 H227       -2.8325  -17.5037  -54.6578 H         1 UNK         0.0600 
    228 H228       -4.4431  -18.2105  -54.5652 H         1 UNK         0.0600 
    229 H229       -4.2148  -16.6622  -55.3461 H         1 UNK         0.0600 
    230 H230       -4.4355  -14.3837  -54.5263 H         1 UNK         0.3000 
    231 H231       -2.4836  -12.6929  -53.1737 H         1 UNK         0.0600 
    232 H232       -4.0103  -12.3223  -55.8078 H         1 UNK         0.0600 
    233 H233       -3.0682  -11.0853  -54.9845 H         1 UNK         0.0600 
    234 H234       -4.5166  -11.7277  -54.2260 H         1 UNK         0.0600 
    235 H235       -2.5697  -14.7960  -56.0192 H         1 UNK         0.3000 
    236 H236        0.2562  -15.1375  -56.0529 H         1 UNK         0.0600 
    237 H237        0.1543  -13.0981  -57.5260 H         1 UNK         0.0600 
    238 H238        0.5454  -14.5197  -58.4797 H         1 UNK         0.0600 
    239 H239       -1.0869  -13.8611  -58.5182 H         1 UNK         0.0600 
    240 H240        0.6918  -17.1554  -57.1138 H         1 UNK         0.3000 
    241 H241       -1.6004  -18.9086  -57.1448 H         1 UNK         0.0600 
    242 H242       -0.9822  -18.1113  -61.0296 H         1 UNK         0.3800 
    243 H243       -0.3766  -17.0729  -59.7657 H         1 UNK         0.3800 
    244 H244       -0.0228  -20.7524  -57.2970 H         1 UNK         0.0800 
    245 H245        1.2723  -19.6870  -57.7713 H         1 UNK         0.0800 
    246 H246       -1.4655  -19.4542  -54.7797 H         1 UNK         0.0800 
    247 H247       -0.8904  -21.1038  -54.8811 H         1 UNK         0.0800 
@<TRIPOS>BOND
     1    1    2 1    
     2    1  127 1    
     3    1  128 1    
     4    1  129 1    
     5    2    3 2    
     6    2    4 am   BACKBONE|DICT|INTERRES
     7    4    5 1    
     8    4  130 1    
     9    5    6 1    
    10    5   65 1    
    11    5  131 1    
    12    6    7 1    
    13    6  132 1    
    14    6  133 1    
    15    7    8 1    
    16    8    9 1    
    17    8  134 1    
    18    8  135 1    
    19    9   10 ar   
    20    9   14 ar   
    21   10   11 ar   
    22   10  136 1    
    23   11   12 ar   
    24   11  126 1    
    25   12   13 ar   
    26   12  137 1    
    27   13   14 ar   
    28   13   15 1    
    29   14  138 1    
    30   15   16 1    
    31   15  139 1    
    32   15  140 1    
    33   16   17 1    
    34   17   18 1    
    35   17  141 1    
    36   17  142 1    
    37   18   19 1    
    38   18   67 1    
    39   18  143 1    
    40   19   20 am   BACKBONE|DICT|INTERRES
    41   19  144 1    
    42   20   21 2    
    43   20   22 1    
    44   22   23 1    
    45   22   24 1    
    46   22  145 1    
    47   23  146 1    
    48   23  147 1    
    49   23  148 1    
    50   24   25 am   BACKBONE|DICT|INTERRES
    51   24  149 1    
    52   25   26 2    
    53   25   27 1    
    54   27   28 1    
    55   27   29 1    
    56   27  150 1    
    57   28  151 1    
    58   28  152 1    
    59   28  153 1    
    60   29   30 am   BACKBONE|DICT|INTERRES
    61   29  154 1    
    62   30   31 2    
    63   30   32 1    
    64   32   33 1    
    65   32   34 1    
    66   32  155 1    
    67   33  156 1    
    68   33  157 1    
    69   33  158 1    
    70   34   35 am   BACKBONE|DICT|INTERRES
    71   34  159 1    
    72   35   36 2    
    73   35   37 1    
    74   37   38 1    
    75   37   39 1    
    76   37  160 1    
    77   38  161 1    
    78   38  162 1    
    79   38  163 1    
    80   39   40 am   BACKBONE|DICT|INTERRES
    81   39  164 1    
    82   40   41 2    
    83   40   42 1    
    84   42   43 1    
    85   42   44 1    
    86   42  165 1    
    87   43  166 1    
    88   43  167 1    
    89   43  168 1    
    90   44   45 am   BACKBONE|DICT|INTERRES
    91   44  169 1    
    92   45   46 2    
    93   45   47 1    
    94   47   48 1    
    95   47   49 1    
    96   47  170 1    
    97   48  171 1    
    98   48  172 1    
    99   48  173 1    
   100   49   50 am   BACKBONE|DICT|INTERRES
   101   49  174 1    
   102   50   51 2    
   103   50   52 1    
   104   52   53 1    
   105   52   54 1    
   106   52  175 1    
   107   53  176 1    
   108   53  177 1    
   109   53  178 1    
   110   54   55 am   BACKBONE|DICT|INTERRES
   111   54  179 1    
   112   55   56 2    
   113   55   57 1    
   114   57   58 1    
   115   57   59 1    
   116   57  180 1    
   117   58  181 1    
   118   58  182 1    
   119   58  183 1    
   120   59   60 am   BACKBONE|DICT|INTERRES
   121   59  184 1    
   122   60   61 2    
   123   60   62 1    
   124   62   63 1    
   125   62   64 1    
   126   62  185 1    
   127   63  186 1    
   128   63  187 1    
   129   63  188 1    
   130   64   65 am   BACKBONE|DICT|INTERRES
   131   64  189 1    
   132   65   66 2    
   133   67   68 2    
   134   67   69 am   BACKBONE|DICT|INTERRES
   135   69   70 1    
   136   69  190 1    
   137   70   71 1    
   138   70   72 1    
   139   70  191 1    
   140   71  192 1    
   141   71  193 1    
   142   71  194 1    
   143   72   73 2    
   144   72   74 am   BACKBONE|DICT|INTERRES
   145   74   75 1    
   146   74  195 1    
   147   75   76 1    
   148   75   77 1    
   149   75  196 1    
   150   76  197 1    
   151   76  198 1    
   152   76  199 1    
   153   77   78 2    
   154   77   79 am   BACKBONE|DICT|INTERRES
   155   79   80 1    
   156   79  200 1    
   157   80   81 1    
   158   80   82 1    
   159   80  201 1    
   160   81  202 1    
   161   81  203 1    
   162   81  204 1    
   163   82   83 2    
   164   82   84 am   BACKBONE|DICT|INTERRES
   165   84   85 1    
   166   84  205 1    
   167   85   86 1    
   168   85   87 1    
   169   85  206 1    
   170   86  207 1    
   171   86  208 1    
   172   86  209 1    
   173   87   88 2    
   174   87   89 am   BACKBONE|DICT|INTERRES
   175   89   90 1    
   176   89  210 1    
   177   90   91 1    
   178   90   92 1    
   179   90  211 1    
   180   91  212 1    
   181   91  213 1    
   182   91  214 1    
   183   92   93 2    
   184   92   94 am   BACKBONE|DICT|INTERRES
   185   94   95 1    
   186   94  215 1    
   187   95   96 1    
   188   95   97 1    
   189   95  216 1    
   190   96  217 1    
   191   96  218 1    
   192   96  219 1    
   193   97   98 2    
   194   97   99 am   BACKBONE|DICT|INTERRES
   195   99  100 1    
   196   99  220 1    
   197  100  101 1    
   198  100  102 1    
   199  100  221 1    
   200  101  222 1    
   201  101  223 1    
   202  101  224 1    
   203  102  103 2    
   204  102  104 am   BACKBONE|DICT|INTERRES
   205  104  105 1    
   206  104  225 1    
   207  105  106 1    
   208  105  107 1    
   209  105  226 1    
   210  106  227 1    
   211  106  228 1    
   212  106  229 1    
   213  107  108 2    
   214  107  109 am   BACKBONE|DICT|INTERRES
   215  109  110 1    
   216  109  230 1    
   217  110  111 1    
   218  110  112 1    
   219  110  231 1    
   220  111  232 1    
   221  111  233 1    
   222  111  234 1    
   223  112  113 2    
   224  112  114 am   BACKBONE|DICT|INTERRES
   225  114  115 1    
   226  114  235 1    
   227  115  116 1    
   228  115  117 1    
   229  115  236 1    
   230  116  237 1    
   231  116  238 1    
   232  116  239 1    
   233  117  118 2    
   234  117  119 am   BACKBONE|DICT|INTERRES
   235  119  120 1    
   236  119  240 1    
   237  120  121 1    
   238  120  124 1    
   239  120  241 1    
   240  121  122 am   BACKBONE|DICT|INTERRES
   241  121  123 2    
   242  122  242 1    
   243  122  243 1    
   244  124  125 1    
   245  124  244 1    
   246  124  245 1    
   247  125  126 1    
   248  126  246 1    
   249  126  247 1    
@<TRIPOS>SUBSTRUCTURE
     1 UNK         1 GROUP             0       ****    0 ROOT    
