@<TRIPOS>MOLECULE
3R540
247   249    1
SMALL
USER_CHARGES


@<TRIPOS>ATOM
      1 CA          4.9679  -20.2322  -43.6122 C.3       0 UNK        -0.1800 
      2 C           4.3786  -18.8314  -43.6910 C.2       0 UNK         0.5000 
      3 O           3.6295  -18.4306  -42.8002 O.2       0 UNK        -0.5000 
      4 N           4.7163  -18.0857  -44.7504 N.am      1 UNK        -0.5000 
      5 CA          4.2329  -16.7313  -45.0447 C.3       1 UNK         0.1400 
      6 C6          4.3473  -16.4012  -46.5548 C.3       23 UNK        -0.0398 
      7 S7          3.2894  -17.4890  -47.5669 S.3       23 UNK        -0.2404 
      8 C8          3.3720  -16.6418  -49.1685 C.3       23 UNK        -0.0205 
      9 C9          2.5176  -17.3487  -50.2078 C.ar      23 UNK        -0.0193 
     10 C10         1.2210  -16.9014  -50.4749 C.ar      23 UNK        -0.1150 
     11 C11         0.4444  -17.5203  -51.4582 C.ar      23 UNK        -0.0193 
     12 C12         0.9759  -18.5917  -52.1792 C.ar      23 UNK        -0.1150 
     13 C13         2.2635  -19.0615  -51.9086 C.ar      23 UNK        -0.0193 
     14 C14         3.0310  -18.4353  -50.9219 C.ar      23 UNK        -0.1150 
     15 C15         2.8342  -20.2273  -52.7005 C.3       23 UNK        -0.0205 
     16 S16         2.7787  -21.7873  -51.7652 S.3       23 UNK        -0.2404 
     17 C17         0.9895  -22.1500  -51.7296 C.3       23 UNK        -0.0398 
     18 CA          0.5303  -22.6650  -50.3474 C.3       11 UNK         0.1400 
     19 N           0.7865  -21.7164  -49.2585 N.am      11 UNK        -0.5000 
     20 C           0.7463  -22.0515  -47.9614 C.2       10 UNK         0.5000 
     21 O           0.4902  -23.1853  -47.5586 O.2       10 UNK        -0.5000 
     22 CA          0.9903  -20.9319  -46.9367 C.3       10 UNK         0.1400 
     23 CB          2.4907  -20.7806  -46.6539 C.3       10 UNK        -0.1800 
     24 N           0.4216  -19.6390  -47.3265 N.am      10 UNK        -0.5000 
     25 C          -0.8891  -19.4145  -47.5095 C.2       9 UNK         0.5000 
     26 O          -1.7379  -20.3064  -47.4518 O.2       9 UNK        -0.5000 
     27 CA         -1.3125  -17.9561  -47.7618 C.3       9 UNK         0.1400 
     28 CB         -2.8179  -17.7125  -47.5351 C.3       9 UNK        -0.1800 
     29 N          -0.5205  -17.0689  -46.9177 N.am      9 UNK        -0.5000 
     30 C          -0.2893  -15.7706  -47.1210 C.2       8 UNK         0.5000 
     31 O          -0.7776  -15.1318  -48.0546 O.2       8 UNK        -0.5000 
     32 CA          0.6705  -15.0844  -46.1228 C.3       8 UNK         0.1400 
     33 CB          0.8407  -13.5799  -46.3969 C.3       8 UNK        -0.1800 
     34 N           0.3174  -15.2667  -44.7133 N.am      8 UNK        -0.5000 
     35 C           0.3767  -16.3960  -43.9933 C.2       7 UNK         0.5000 
     36 O           0.7017  -17.4886  -44.4582 O.2       7 UNK        -0.5000 
     37 CA          0.0060  -16.2836  -42.5058 C.3       7 UNK         0.1400 
     38 CB          1.2160  -15.8174  -41.6794 C.3       7 UNK        -0.1800 
     39 N          -1.1034  -15.3535  -42.3017 N.am      7 UNK        -0.5000 
     40 C          -2.3987  -15.6886  -42.3768 C.2       6 UNK         0.5000 
     41 O          -2.7965  -16.8345  -42.5886 O.2       6 UNK        -0.5000 
     42 CA         -3.4286  -14.5598  -42.1708 C.3       6 UNK         0.1400 
     43 CB         -3.8765  -14.5056  -40.7021 C.3       6 UNK        -0.1800 
     44 N          -2.9207  -13.2437  -42.5599 N.am      6 UNK        -0.5000 
     45 C          -2.7599  -12.8360  -43.8263 C.2       5 UNK         0.5000 
     46 O          -3.0823  -13.5056  -44.8073 O.2       5 UNK        -0.5000 
     47 CA         -2.1006  -11.4569  -44.0303 C.3       5 UNK         0.1400 
     48 CB         -3.1707  -10.3588  -44.1242 C.3       5 UNK        -0.1800 
     49 N          -1.1272  -11.0927  -42.9928 N.am      5 UNK        -0.5000 
     50 C          -0.0176  -11.7867  -42.7090 C.2       4 UNK         0.5000 
     51 O           0.2610  -12.8670  -43.2305 O.2       4 UNK        -0.5000 
     52 CA          0.9056  -11.2136  -41.6216 C.3       4 UNK         0.1400 
     53 CB          0.5649  -11.8366  -40.2593 C.3       4 UNK        -0.1800 
     54 N           2.3151  -11.4696  -41.9159 N.am      4 UNK        -0.5000 
     55 C           3.0024  -10.9619  -42.9446 C.2       3 UNK         0.5000 
     56 O           2.5201  -10.1717  -43.7575 O.2       3 UNK        -0.5000 
     57 CA          4.4807  -11.3785  -43.0965 C.3       3 UNK         0.1400 
     58 CB          5.3917  -10.4627  -42.2574 C.3       3 UNK        -0.1800 
     59 N           4.7911  -12.7944  -42.8462 N.am      3 UNK        -0.5000 
     60 C           4.7073  -13.5094  -41.7165 C.2       2 UNK         0.5000 
     61 O           4.2238  -13.0762  -40.6689 O.2       2 UNK        -0.5000 
     62 CA          5.2674  -14.9495  -41.7735 C.3       2 UNK         0.1400 
     63 CB          5.0955  -15.7030  -40.4420 C.3       2 UNK        -0.1800 
     64 N           4.6870  -15.7681  -42.8397 N.am      2 UNK        -0.5000 
     65 C           4.9286  -15.6793  -44.1526 C.2       1 UNK         0.5000 
     66 O           5.6699  -14.8288  -44.6488 O.2       1 UNK        -0.5000 
     67 C          -0.9462  -23.1051  -50.3879 C.2       11 UNK         0.5000 
     68 O          -1.2119  -24.2762  -50.6518 O.2       11 UNK        -0.5000 
     69 N          -1.8746  -22.1846  -50.0845 N.am      12 UNK        -0.5000 
     70 CA         -3.3052  -22.4735  -49.9620 C.3       12 UNK         0.1400 
     71 CB         -4.1017  -21.1640  -49.8638 C.3       12 UNK        -0.1800 
     72 C          -3.6020  -23.3870  -48.7632 C.2       12 UNK         0.5000 
     73 O          -4.3729  -24.3377  -48.8997 O.2       12 UNK        -0.5000 
     74 N          -2.9488  -23.1080  -47.6262 N.am      13 UNK        -0.5000 
     75 CA         -3.0155  -23.9171  -46.4101 C.3       13 UNK         0.1400 
     76 CB         -2.2958  -23.1887  -45.2651 C.3       13 UNK        -0.1800 
     77 C          -2.4490  -25.3346  -46.6146 C.2       13 UNK         0.5000 
     78 O          -3.1132  -26.3081  -46.2571 O.2       13 UNK        -0.5000 
     79 N          -1.2616  -25.4304  -47.2313 N.am      14 UNK        -0.5000 
     80 CA         -0.5872  -26.6891  -47.5661 C.3       14 UNK         0.1400 
     81 CB          0.8158  -26.3875  -48.1133 C.3       14 UNK        -0.1800 
     82 C          -1.3758  -27.5603  -48.5622 C.2       14 UNK         0.5000 
     83 O          -1.3515  -28.7862  -48.4513 O.2       14 UNK        -0.5000 
     84 N          -2.0905  -26.9112  -49.4897 N.am      15 UNK        -0.5000 
     85 CA         -2.9858  -27.5370  -50.4630 C.3       15 UNK         0.1400 
     86 CB         -3.0944  -26.6146  -51.6851 C.3       15 UNK        -0.1800 
     87 C          -4.3803  -27.8845  -49.8945 C.2       15 UNK         0.5000 
     88 O          -5.2377  -28.3289  -50.6585 O.2       15 UNK        -0.5000 
     89 N          -4.5858  -27.6909  -48.5823 N.am      16 UNK        -0.5000 
     90 CA         -5.7999  -27.9846  -47.8160 C.3       16 UNK         0.1400 
     91 CB         -6.1160  -29.4957  -47.8255 C.3       16 UNK        -0.1800 
     92 C          -6.9922  -27.1027  -48.2352 C.2       16 UNK         0.5000 
     93 O          -8.0767  -27.6124  -48.5236 O.2       16 UNK        -0.5000 
     94 N          -6.7537  -25.7845  -48.2391 N.am      17 UNK        -0.5000 
     95 CA         -7.6957  -24.7043  -48.5442 C.3       17 UNK         0.1400 
     96 CB         -8.9070  -24.7129  -47.5867 C.3       17 UNK        -0.1800 
     97 C          -8.0835  -24.6477  -50.0342 C.2       17 UNK         0.5000 
     98 O          -9.2385  -24.3725  -50.3673 O.2       17 UNK        -0.5000 
     99 N          -7.0937  -24.8717  -50.9082 N.am      18 UNK        -0.5000 
    100 CA        -7.1778  -24.5593  -52.3365 C.3       18 UNK         0.1400 
    101 CB        -6.1256  -25.3826  -53.0943 C.3       18 UNK        -0.1800 
    102 C         -6.9527  -23.0517  -52.5688 C.2       18 UNK         0.5000 
    103 O         -6.5663  -22.3374  -51.6417 O.2       18 UNK        -0.5000 
    104 N         -7.1772  -22.5900  -53.8060 N.am      19 UNK        -0.5000 
    105 CA        -6.9508  -21.1983  -54.2045 C.3       19 UNK         0.1400 
    106 CB        -7.5399  -20.9547  -55.6032 C.3       19 UNK        -0.1800 
    107 C         -5.4616  -20.8086  -54.1545 C.2       19 UNK         0.5000 
    108 O         -5.1183  -19.8061  -53.5309 O.2       19 UNK        -0.5000 
    109 N         -4.6134  -21.6144  -54.8155 N.am      20 UNK        -0.5000 
    110 CA        -3.1433  -21.5280  -54.8624 C.3       20 UNK         0.1400 
    111 CB        -2.5519  -21.9976  -53.5201 C.3       20 UNK        -0.1800 
    112 C         -2.5786  -20.1529  -55.2951 C.2       20 UNK         0.5000 
    113 O         -1.4587  -19.8046  -54.9187 O.2       20 UNK        -0.5000 
    114 N         -3.3758  -19.3968  -56.0657 N.am      21 UNK        -0.5000 
    115 CA        -3.1635  -18.0071  -56.4911 C.3       21 UNK         0.1400 
    116 CB        -1.9084  -17.8816  -57.3807 C.3       21 UNK        -0.1800 
    117 C         -3.1770  -16.9764  -55.3362 C.2       21 UNK         0.5000 
    118 O         -2.7566  -15.8361  -55.5420 O.2       21 UNK        -0.5000 
    119 N         -3.6727  -17.3692  -54.1562 N.am      22 UNK        -0.5000 
    120 CA        -3.8604  -16.4997  -52.9879 C.3       22 UNK         0.1400 
    121 C         -5.1899  -15.6989  -53.0643 C.2       22 UNK         0.5000 
    122 N         -5.2814  -14.5764  -52.3634 N.am      22 UNK        -0.7600 
    123 O         -6.1497  -16.0888  -53.7267 O.2       22 UNK        -0.5000 
    124 C124       -3.7696  -17.2970  -51.6575 C.3       23 UNK        -0.0398 
    125 S125       -2.2305  -18.2587  -51.4302 S.3       23 UNK        -0.2404 
    126 C126       -0.9513  -17.0088  -51.7736 C.3       23 UNK        -0.0205 
    127 H127        5.5673  -20.3369  -42.7079 H         1 UNK         0.0600 
    128 H128        5.6026  -20.4541  -44.4705 H         1 UNK         0.0600 
    129 H129        4.1683  -20.9723  -43.5813 H         1 UNK         0.0600 
    130 H130        5.3481  -18.4722  -45.4368 H         1 UNK         0.3000 
    131 H131        3.1760  -16.6903  -44.7847 H         1 UNK         0.0600 
    132 H132        4.0504  -15.3679  -46.7438 H         1 UNK         0.0800 
    133 H133        5.3800  -16.4925  -46.8957 H         1 UNK         0.0800 
    134 H134        4.4090  -16.6021  -49.5055 H         1 UNK         0.0800 
    135 H135        3.0437  -15.6077  -49.0514 H         1 UNK         0.0800 
    136 H136        0.8232  -16.0582  -49.9293 H         1 UNK         0.1150 
    137 H137        0.3796  -19.0583  -52.9518 H         1 UNK         0.1150 
    138 H138        4.0315  -18.7892  -50.7154 H         1 UNK         0.1150 
    139 H139        2.3025  -20.3510  -53.6455 H         1 UNK         0.0800 
    140 H140        3.8711  -20.0113  -52.9620 H         1 UNK         0.0800 
    141 H141        0.7940  -22.8997  -52.4986 H         1 UNK         0.0800 
    142 H142        0.4154  -21.2689  -52.0148 H         1 UNK         0.0800 
    143 H143        1.1139  -23.5632  -50.1329 H         1 UNK         0.0600 
    144 H144        1.0200  -20.7690  -49.5178 H         1 UNK         0.3000 
    145 H145        0.5039  -21.2306  -46.0058 H         1 UNK         0.0600 
    146 H146        2.6694  -20.0278  -45.8867 H         1 UNK         0.0600 
    147 H147        2.9172  -21.7178  -46.2944 H         1 UNK         0.0600 
    148 H148        3.0425  -20.4916  -47.5491 H         1 UNK         0.0600 
    149 H149        1.0687  -18.8662  -47.4041 H         1 UNK         0.3000 
    150 H150       -1.0768  -17.7385  -48.8031 H         1 UNK         0.0600 
    151 H151       -3.4198  -18.3337  -48.1981 H         1 UNK         0.0600 
    152 H152       -3.0897  -16.6768  -47.7379 H         1 UNK         0.0600 
    153 H153       -3.1087  -17.9411  -46.5092 H         1 UNK         0.0600 
    154 H154       -0.0920  -17.4961  -46.0974 H         1 UNK         0.3000 
    155 H155        1.6440  -15.5444  -46.2720 H         1 UNK         0.0600 
    156 H156       -0.0971  -13.0417  -46.2573 H         1 UNK         0.0600 
    157 H157        1.5827  -13.1381  -45.7310 H         1 UNK         0.0600 
    158 H158        1.1773  -13.4005  -47.4187 H         1 UNK         0.0600 
    159 H159        0.0843  -14.4110  -44.2152 H         1 UNK         0.3000 
    160 H160       -0.2808  -17.2761  -42.1515 H         1 UNK         0.0600 
    161 H161        1.6060  -14.8593  -42.0247 H         1 UNK         0.0600 
    162 H162        2.0266  -16.5425  -41.7420 H         1 UNK         0.0600 
    163 H163        0.9585  -15.7132  -40.6254 H         1 UNK         0.0600 
    164 H164       -0.8569  -14.3782  -42.1987 H         1 UNK         0.3000 
    165 H165       -4.3017  -14.7913  -42.7849 H         1 UNK         0.0600 
    166 H166       -4.6546  -13.7566  -40.5541 H         1 UNK         0.0600 
    167 H167       -4.2859  -15.4651  -40.3831 H         1 UNK         0.0600 
    168 H168       -3.0467  -14.2652  -40.0361 H         1 UNK         0.0600 
    169 H169       -2.6402  -12.6224  -41.8156 H         1 UNK         0.3000 
    170 H170       -1.5662  -11.4914  -44.9817 H         1 UNK         0.0600 
    171 H171       -3.8979  -10.5872  -44.9046 H         1 UNK         0.0600 
    172 H172       -3.7182  -10.2493  -43.1872 H         1 UNK         0.0600 
    173 H173       -2.7264   -9.3940  -44.3695 H         1 UNK         0.0600 
    174 H174       -1.2982  -10.2246  -42.5059 H         1 UNK         0.3000 
    175 H175        0.7602  -10.1331  -41.5645 H         1 UNK         0.0600 
    176 H176        0.7156  -12.9171  -40.2625 H         1 UNK         0.0600 
    177 H177        1.1858  -11.4160  -39.4681 H         1 UNK         0.0600 
    178 H178       -0.4752  -11.6495  -39.9895 H         1 UNK         0.0600 
    179 H179        2.8096  -12.1122  -41.3021 H         1 UNK         0.3000 
    180 H180        4.7354  -11.2133  -44.1446 H         1 UNK         0.0600 
    181 H181        5.2033  -10.5701  -41.1887 H         1 UNK         0.0600 
    182 H182        5.2312   -9.4143  -42.5120 H         1 UNK         0.0600 
    183 H183        6.4442  -10.6823  -42.4365 H         1 UNK         0.0600 
    184 H184        5.1675  -13.2933  -43.6484 H         1 UNK         0.3000 
    185 H185        6.3389  -14.8602  -41.9633 H         1 UNK         0.0600 
    186 H186        5.5725  -15.1658  -39.6212 H         1 UNK         0.0600 
    187 H187        4.0430  -15.8304  -40.1854 H         1 UNK         0.0600 
    188 H188        5.5508  -16.6926  -40.4869 H         1 UNK         0.0600 
    189 H189        4.1055  -16.5448  -42.5392 H         1 UNK         0.3000 
    190 H190       -1.5778  -21.2547  -49.8269 H         1 UNK         0.3000 
    191 H191       -3.6324  -22.9998  -50.8608 H         1 UNK         0.0600 
    192 H192       -3.7329  -20.5188  -49.0693 H         1 UNK         0.0600 
    193 H193       -5.1536  -21.3596  -49.6546 H         1 UNK         0.0600 
    194 H194       -4.0601  -20.6062  -50.7988 H         1 UNK         0.0600 
    195 H195       -2.3613  -22.2811  -47.5965 H         1 UNK         0.3000 
    196 H196       -4.0681  -24.0167  -46.1371 H         1 UNK         0.0600 
    197 H197       -2.3721  -23.7535  -44.3353 H         1 UNK         0.0600 
    198 H198       -2.7335  -22.2061  -45.0871 H         1 UNK         0.0600 
    199 H199       -1.2361  -23.0470  -45.4765 H         1 UNK         0.0600 
    200 H200       -0.7577  -24.5763  -47.4597 H         1 UNK         0.3000 
    201 H201       -0.4776  -27.2615  -46.6428 H         1 UNK         0.0600 
    202 H202        1.4155  -25.8437  -47.3832 H         1 UNK         0.0600 
    203 H203        0.7700  -25.7879  -49.0229 H         1 UNK         0.0600 
    204 H204        1.3500  -27.3080  -48.3518 H         1 UNK         0.0600 
    205 H205       -2.0092  -25.9020  -49.5460 H         1 UNK         0.3000 
    206 H206       -2.5391  -28.4762  -50.7951 H         1 UNK         0.0600 
    207 H207       -2.1159  -26.4365  -52.1313 H         1 UNK         0.0600 
    208 H208       -3.7238  -27.0528  -52.4599 H         1 UNK         0.0600 
    209 H209       -3.5163  -25.6479  -51.4102 H         1 UNK         0.0600 
    210 H210       -3.8302  -27.2864  -48.0420 H         1 UNK         0.3000 
    211 H211       -5.5743  -27.7128  -46.7838 H         1 UNK         0.0600 
    212 H212       -6.4042  -29.8485  -48.8160 H         1 UNK         0.0600 
    213 H213       -6.9395  -29.7238  -47.1478 H         1 UNK         0.0600 
    214 H214       -5.2559  -30.0798  -47.4981 H         1 UNK         0.0600 
    215 H215       -5.7961  -25.4754  -48.1017 H         1 UNK         0.3000 
    216 H216       -7.1489  -23.7797  -48.3530 H         1 UNK         0.0600 
    217 H217       -9.5073  -23.8112  -47.7125 H         1 UNK         0.0600 
    218 H218       -8.5869  -24.7451  -46.5454 H         1 UNK         0.0600 
    219 H219       -9.5631  -25.5652  -47.7643 H         1 UNK         0.0600 
    220 H220       -6.1700  -25.0431  -50.5362 H         1 UNK         0.3000 
    221 H221       -8.1689  -24.8298  -52.7066 H         1 UNK         0.0600 
    222 H222       -5.1194  -25.0046  -52.9163 H         1 UNK         0.0600 
    223 H223       -6.1545  -26.4330  -52.8030 H         1 UNK         0.0600 
    224 H224       -6.2983  -25.3413  -54.1700 H         1 UNK         0.0600 
    225 H225       -7.4966  -23.2254  -54.5228 H         1 UNK         0.3000 
    226 H226       -7.4833  -20.5545  -53.5008 H         1 UNK         0.0600 
    227 H227       -8.6152  -21.1335  -55.6124 H         1 UNK         0.0600 
    228 H228       -7.3818  -19.9223  -55.9181 H         1 UNK         0.0600 
    229 H229       -7.0873  -21.6014  -56.3556 H         1 UNK         0.0600 
    230 H230       -5.0117  -22.4008  -55.3086 H         1 UNK         0.3000 
    231 H231       -2.8225  -22.2356  -55.6281 H         1 UNK         0.0600 
    232 H232       -1.4690  -22.1034  -53.5830 H         1 UNK         0.0600 
    233 H233       -2.9536  -22.9672  -53.2259 H         1 UNK         0.0600 
    234 H234       -2.7657  -21.2851  -52.7235 H         1 UNK         0.0600 
    235 H235       -4.2744  -19.7872  -56.3103 H         1 UNK         0.3000 
    236 H236       -4.0246  -17.7577  -57.1124 H         1 UNK         0.0600 
    237 H237       -1.8553  -16.8964  -57.8451 H         1 UNK         0.0600 
    238 H238       -0.9899  -18.0200  -56.8100 H         1 UNK         0.0600 
    239 H239       -1.9190  -18.6168  -58.1853 H         1 UNK         0.0600 
    240 H240       -4.0453  -18.3094  -54.0579 H         1 UNK         0.3000 
    241 H241       -3.0636  -15.7551  -52.9891 H         1 UNK         0.0600 
    242 H242       -6.1414  -14.0507  -52.3958 H         1 UNK         0.3800 
    243 H243       -4.5129  -14.2281  -51.8113 H         1 UNK         0.3800 
    244 H244       -3.8605  -16.6223  -50.8047 H         1 UNK         0.0800 
    245 H245       -4.6062  -17.9932  -51.5781 H         1 UNK         0.0800 
    246 H246       -1.1689  -16.1058  -51.2008 H         1 UNK         0.0800 
    247 H247       -0.9835  -16.7344  -52.8286 H         1 UNK         0.0800 
@<TRIPOS>BOND
     1    1    2 1    
     2    1  127 1    
     3    1  128 1    
     4    1  129 1    
     5    2    3 2    
     6    2    4 am   BACKBONE|DICT|INTERRES
     7    4    5 1    
     8    4  130 1    
     9    5    6 1    
    10    5   65 1    
    11    5  131 1    
    12    6    7 1    
    13    6  132 1    
    14    6  133 1    
    15    7    8 1    
    16    8    9 1    
    17    8  134 1    
    18    8  135 1    
    19    9   10 ar   
    20    9   14 ar   
    21   10   11 ar   
    22   10  136 1    
    23   11   12 ar   
    24   11  126 1    
    25   12   13 ar   
    26   12  137 1    
    27   13   14 ar   
    28   13   15 1    
    29   14  138 1    
    30   15   16 1    
    31   15  139 1    
    32   15  140 1    
    33   16   17 1    
    34   17   18 1    
    35   17  141 1    
    36   17  142 1    
    37   18   19 1    
    38   18   67 1    
    39   18  143 1    
    40   19   20 am   BACKBONE|DICT|INTERRES
    41   19  144 1    
    42   20   21 2    
    43   20   22 1    
    44   22   23 1    
    45   22   24 1    
    46   22  145 1    
    47   23  146 1    
    48   23  147 1    
    49   23  148 1    
    50   24   25 am   BACKBONE|DICT|INTERRES
    51   24  149 1    
    52   25   26 2    
    53   25   27 1    
    54   27   28 1    
    55   27   29 1    
    56   27  150 1    
    57   28  151 1    
    58   28  152 1    
    59   28  153 1    
    60   29   30 am   BACKBONE|DICT|INTERRES
    61   29  154 1    
    62   30   31 2    
    63   30   32 1    
    64   32   33 1    
    65   32   34 1    
    66   32  155 1    
    67   33  156 1    
    68   33  157 1    
    69   33  158 1    
    70   34   35 am   BACKBONE|DICT|INTERRES
    71   34  159 1    
    72   35   36 2    
    73   35   37 1    
    74   37   38 1    
    75   37   39 1    
    76   37  160 1    
    77   38  161 1    
    78   38  162 1    
    79   38  163 1    
    80   39   40 am   BACKBONE|DICT|INTERRES
    81   39  164 1    
    82   40   41 2    
    83   40   42 1    
    84   42   43 1    
    85   42   44 1    
    86   42  165 1    
    87   43  166 1    
    88   43  167 1    
    89   43  168 1    
    90   44   45 am   BACKBONE|DICT|INTERRES
    91   44  169 1    
    92   45   46 2    
    93   45   47 1    
    94   47   48 1    
    95   47   49 1    
    96   47  170 1    
    97   48  171 1    
    98   48  172 1    
    99   48  173 1    
   100   49   50 am   BACKBONE|DICT|INTERRES
   101   49  174 1    
   102   50   51 2    
   103   50   52 1    
   104   52   53 1    
   105   52   54 1    
   106   52  175 1    
   107   53  176 1    
   108   53  177 1    
   109   53  178 1    
   110   54   55 am   BACKBONE|DICT|INTERRES
   111   54  179 1    
   112   55   56 2    
   113   55   57 1    
   114   57   58 1    
   115   57   59 1    
   116   57  180 1    
   117   58  181 1    
   118   58  182 1    
   119   58  183 1    
   120   59   60 am   BACKBONE|DICT|INTERRES
   121   59  184 1    
   122   60   61 2    
   123   60   62 1    
   124   62   63 1    
   125   62   64 1    
   126   62  185 1    
   127   63  186 1    
   128   63  187 1    
   129   63  188 1    
   130   64   65 am   BACKBONE|DICT|INTERRES
   131   64  189 1    
   132   65   66 2    
   133   67   68 2    
   134   67   69 am   BACKBONE|DICT|INTERRES
   135   69   70 1    
   136   69  190 1    
   137   70   71 1    
   138   70   72 1    
   139   70  191 1    
   140   71  192 1    
   141   71  193 1    
   142   71  194 1    
   143   72   73 2    
   144   72   74 am   BACKBONE|DICT|INTERRES
   145   74   75 1    
   146   74  195 1    
   147   75   76 1    
   148   75   77 1    
   149   75  196 1    
   150   76  197 1    
   151   76  198 1    
   152   76  199 1    
   153   77   78 2    
   154   77   79 am   BACKBONE|DICT|INTERRES
   155   79   80 1    
   156   79  200 1    
   157   80   81 1    
   158   80   82 1    
   159   80  201 1    
   160   81  202 1    
   161   81  203 1    
   162   81  204 1    
   163   82   83 2    
   164   82   84 am   BACKBONE|DICT|INTERRES
   165   84   85 1    
   166   84  205 1    
   167   85   86 1    
   168   85   87 1    
   169   85  206 1    
   170   86  207 1    
   171   86  208 1    
   172   86  209 1    
   173   87   88 2    
   174   87   89 am   BACKBONE|DICT|INTERRES
   175   89   90 1    
   176   89  210 1    
   177   90   91 1    
   178   90   92 1    
   179   90  211 1    
   180   91  212 1    
   181   91  213 1    
   182   91  214 1    
   183   92   93 2    
   184   92   94 am   BACKBONE|DICT|INTERRES
   185   94   95 1    
   186   94  215 1    
   187   95   96 1    
   188   95   97 1    
   189   95  216 1    
   190   96  217 1    
   191   96  218 1    
   192   96  219 1    
   193   97   98 2    
   194   97   99 am   BACKBONE|DICT|INTERRES
   195   99  100 1    
   196   99  220 1    
   197  100  101 1    
   198  100  102 1    
   199  100  221 1    
   200  101  222 1    
   201  101  223 1    
   202  101  224 1    
   203  102  103 2    
   204  102  104 am   BACKBONE|DICT|INTERRES
   205  104  105 1    
   206  104  225 1    
   207  105  106 1    
   208  105  107 1    
   209  105  226 1    
   210  106  227 1    
   211  106  228 1    
   212  106  229 1    
   213  107  108 2    
   214  107  109 am   BACKBONE|DICT|INTERRES
   215  109  110 1    
   216  109  230 1    
   217  110  111 1    
   218  110  112 1    
   219  110  231 1    
   220  111  232 1    
   221  111  233 1    
   222  111  234 1    
   223  112  113 2    
   224  112  114 am   BACKBONE|DICT|INTERRES
   225  114  115 1    
   226  114  235 1    
   227  115  116 1    
   228  115  117 1    
   229  115  236 1    
   230  116  237 1    
   231  116  238 1    
   232  116  239 1    
   233  117  118 2    
   234  117  119 am   BACKBONE|DICT|INTERRES
   235  119  120 1    
   236  119  240 1    
   237  120  121 1    
   238  120  124 1    
   239  120  241 1    
   240  121  122 am   BACKBONE|DICT|INTERRES
   241  121  123 2    
   242  122  242 1    
   243  122  243 1    
   244  124  125 1    
   245  124  244 1    
   246  124  245 1    
   247  125  126 1    
   248  126  246 1    
   249  126  247 1    
@<TRIPOS>SUBSTRUCTURE
     1 UNK         1 GROUP             0       ****    0 ROOT    
