@<TRIPOS>MOLECULE
3R540
247   249    1
SMALL
USER_CHARGES


@<TRIPOS>ATOM
      1 CA         -3.0285   -8.8572  -46.6211 C.3       0 UNK        -0.1800 
      2 C          -1.6021   -9.1078  -47.0903 C.2       0 UNK         0.5000 
      3 O          -0.7759   -8.1951  -47.0575 O.2       0 UNK        -0.5000 
      4 N          -1.3171  -10.3377  -47.5339 N.am      1 UNK        -0.5000 
      5 CA          0.0087  -10.7922  -47.9704 C.3       1 UNK         0.1400 
      6 C6         -0.0729  -12.1129  -48.7812 C.3       23 UNK        -0.0398 
      7 S7         -1.0485  -11.9173  -50.3115 S.3       23 UNK        -0.2404 
      8 C8         -2.4188  -13.0960  -50.0408 C.3       23 UNK        -0.0205 
      9 C9         -2.0830  -14.5811  -50.2091 C.ar      23 UNK        -0.0193 
     10 C10        -0.8423  -15.0447  -50.6678 C.ar      23 UNK        -0.1150 
     11 C11        -0.5968  -16.4133  -50.8170 C.ar      23 UNK        -0.0193 
     12 C12        -1.6047  -17.3320  -50.5102 C.ar      23 UNK        -0.1150 
     13 C13        -2.8461  -16.8874  -50.0454 C.ar      23 UNK        -0.0193 
     14 C14        -3.0764  -15.5160  -49.9042 C.ar      23 UNK        -0.1150 
     15 C15        -3.9475  -17.8800  -49.7011 C.3       23 UNK        -0.0205 
     16 S16        -4.3022  -17.9240  -47.9144 S.3       23 UNK        -0.2404 
     17 C17        -2.8577  -18.8420  -47.2857 C.3       23 UNK        -0.0398 
     18 CA         -3.1496  -20.3583  -47.1673 C.3       11 UNK         0.1400 
     19 N          -2.0251  -21.1716  -47.6371 N.am      11 UNK        -0.5000 
     20 C          -2.0585  -22.4983  -47.8184 C.2       10 UNK         0.5000 
     21 O          -3.0615  -23.1876  -47.6274 O.2       10 UNK        -0.5000 
     22 CA         -0.7517  -23.1886  -48.2481 C.3       10 UNK         0.1400 
     23 CB         -0.7814  -23.4525  -49.7608 C.3       10 UNK        -0.1800 
     24 N           0.4882  -22.4763  -47.9186 N.am      10 UNK        -0.5000 
     25 C           0.8754  -22.0117  -46.7211 C.2       9 UNK         0.5000 
     26 O           0.1696  -22.0526  -45.7073 O.2       9 UNK        -0.5000 
     27 CA          2.2940  -21.4145  -46.6701 C.3       9 UNK         0.1400 
     28 CB          2.5708  -20.4666  -47.8534 C.3       9 UNK        -0.1800 
     29 N           2.4941  -20.6709  -45.4311 N.am      9 UNK        -0.5000 
     30 C           3.5118  -20.8361  -44.5750 C.2       8 UNK         0.5000 
     31 O           4.3917  -21.6857  -44.7228 O.2       8 UNK        -0.5000 
     32 CA          3.5949  -19.8810  -43.3627 C.3       8 UNK         0.1400 
     33 CB          4.8429  -18.9886  -43.4610 C.3       8 UNK        -0.1800 
     34 N           2.4214  -19.0183  -43.2313 N.am      8 UNK        -0.5000 
     35 C           1.2420  -19.4011  -42.7272 C.2       7 UNK         0.5000 
     36 O           1.0625  -20.4867  -42.1773 O.2       7 UNK        -0.5000 
     37 CA          0.0633  -18.4209  -42.8926 C.3       7 UNK         0.1400 
     38 CB         -0.2734  -17.7432  -41.5566 C.3       7 UNK        -0.1800 
     39 N           0.3073  -17.3948  -43.9090 N.am      7 UNK        -0.5000 
     40 C           0.3351  -17.6171  -45.2302 C.2       6 UNK         0.5000 
     41 O           0.1384  -18.7251  -45.7334 O.2       6 UNK        -0.5000 
     42 CA          0.6892  -16.4078  -46.1194 C.3       6 UNK         0.1400 
     43 CB          0.4247  -16.6460  -47.6158 C.3       6 UNK        -0.1800 
     44 N           0.0615  -15.1572  -45.6907 N.am      6 UNK        -0.5000 
     45 C          -1.2507  -14.9030  -45.5700 C.2       5 UNK         0.5000 
     46 O          -2.1397  -15.7270  -45.7836 O.2       5 UNK        -0.5000 
     47 CA         -1.6107  -13.4694  -45.1333 C.3       5 UNK         0.1400 
     48 CB         -3.1153  -13.2587  -44.8620 C.3       5 UNK        -0.1800 
     49 N          -0.7894  -13.0161  -44.0067 N.am      5 UNK        -0.5000 
     50 C          -0.7637  -13.5423  -42.7731 C.2       4 UNK         0.5000 
     51 O          -1.5018  -14.4538  -42.3969 O.2       4 UNK        -0.5000 
     52 CA          0.2956  -12.9585  -41.8161 C.3       4 UNK         0.1400 
     53 CB          0.2566  -13.5977  -40.4117 C.3       4 UNK        -0.1800 
     54 N           1.6533  -13.0278  -42.3696 N.am      4 UNK        -0.5000 
     55 C           2.3144  -14.1266  -42.7676 C.2       3 UNK         0.5000 
     56 O           1.8389  -15.2626  -42.7590 O.2       3 UNK        -0.5000 
     57 CA          3.7486  -13.8916  -43.2864 C.3       3 UNK         0.1400 
     58 CB          4.3883  -15.1590  -43.8931 C.3       3 UNK        -0.1800 
     59 N           3.8223  -12.7628  -44.2224 N.am      3 UNK        -0.5000 
     60 C           3.1746  -12.6555  -45.3906 C.2       2 UNK         0.5000 
     61 O           2.4601  -13.5412  -45.8664 O.2       2 UNK        -0.5000 
     62 CA          3.3628  -11.3248  -46.1478 C.3       2 UNK         0.1400 
     63 CB          4.6959  -11.3279  -46.9122 C.3       2 UNK        -0.1800 
     64 N           2.2808  -11.0511  -47.0967 N.am      2 UNK        -0.5000 
     65 C           0.9841  -10.9372  -46.7797 C.2       1 UNK         0.5000 
     66 O           0.5605  -10.9764  -45.6195 O.2       1 UNK        -0.5000 
     67 C          -3.6425  -20.7571  -45.7569 C.2       11 UNK         0.5000 
     68 O          -4.8313  -20.6089  -45.4733 O.2       11 UNK        -0.5000 
     69 N          -2.7454  -21.3123  -44.9289 N.am      12 UNK        -0.5000 
     70 CA         -3.0957  -21.9724  -43.6721 C.3       12 UNK         0.1400 
     71 CB         -2.3741  -21.2958  -42.5014 C.3       12 UNK        -0.1800 
     72 C          -2.7551  -23.4686  -43.7231 C.2       12 UNK         0.5000 
     73 O          -3.5744  -24.2784  -43.2894 O.2       12 UNK        -0.5000 
     74 N          -1.5809  -23.8259  -44.2687 N.am      13 UNK        -0.5000 
     75 CA         -1.0443  -25.1935  -44.2588 C.3       13 UNK         0.1400 
     76 CB          0.4125  -25.1758  -44.7460 C.3       13 UNK        -0.1800 
     77 C          -1.8705  -26.2149  -45.0651 C.2       13 UNK         0.5000 
     78 O          -1.8326  -27.4038  -44.7464 O.2       13 UNK        -0.5000 
     79 N          -2.6109  -25.7357  -46.0710 N.am      14 UNK        -0.5000 
     80 CA         -3.5606  -26.5118  -46.8676 C.3       14 UNK         0.1400 
     81 CB         -3.0441  -26.5980  -48.3149 C.3       14 UNK        -0.1800 
     82 C          -4.9654  -25.8826  -46.8034 C.2       14 UNK         0.5000 
     83 O          -5.7908  -26.1632  -47.6718 O.2       14 UNK        -0.5000 
     84 N          -5.2073  -25.0084  -45.8114 N.am      15 UNK        -0.5000 
     85 CA         -6.4450  -24.2526  -45.5726 C.3       15 UNK         0.1400 
     86 CB         -7.5371  -25.1951  -45.0273 C.3       15 UNK        -0.1800 
     87 C          -6.9275  -23.4280  -46.7898 C.2       15 UNK         0.5000 
     88 O          -8.1326  -23.2430  -46.9672 O.2       15 UNK        -0.5000 
     89 N          -5.9743  -22.9781  -47.6199 N.am      16 UNK        -0.5000 
     90 CA         -6.1502  -22.2626  -48.8861 C.3       16 UNK         0.1400 
     91 CB         -6.8871  -20.9219  -48.6839 C.3       16 UNK        -0.1800 
     92 C          -6.7597  -23.1102  -50.0227 C.2       16 UNK         0.5000 
     93 O          -7.0971  -22.5517  -51.0669 O.2       16 UNK        -0.5000 
     94 N          -6.8357  -24.4404  -49.8576 N.am      17 UNK        -0.5000 
     95 CA         -7.2719  -25.3668  -50.9089 C.3       17 UNK         0.1400 
     96 CB         -7.6111  -26.7303  -50.2888 C.3       17 UNK        -0.1800 
     97 C          -6.2196  -25.5281  -52.0240 C.2       17 UNK         0.5000 
     98 O          -6.5801  -25.8445  -53.1579 O.2       17 UNK        -0.5000 
     99 N          -4.9473  -25.2835  -51.6830 N.am      18 UNK        -0.5000 
    100 CA        -3.7987  -25.3056  -52.5881 C.3       18 UNK         0.1400 
    101 CB        -2.7704  -26.3279  -52.0716 C.3       18 UNK        -0.1800 
    102 C         -3.1887  -23.8991  -52.7501 C.2       18 UNK         0.5000 
    103 O         -2.0021  -23.7833  -53.0563 O.2       18 UNK        -0.5000 
    104 N         -3.9984  -22.8426  -52.5639 N.am      19 UNK        -0.5000 
    105 CA        -3.5907  -21.4340  -52.6834 C.3       19 UNK         0.1400 
    106 CB        -4.7641  -20.5233  -52.2962 C.3       19 UNK        -0.1800 
    107 C         -3.0484  -21.0428  -54.0734 C.2       19 UNK         0.5000 
    108 O         -2.2704  -20.0947  -54.1746 O.2       19 UNK        -0.5000 
    109 N         -3.4142  -21.8144  -55.1071 N.am      20 UNK        -0.5000 
    110 CA        -2.8938  -21.7279  -56.4741 C.3       20 UNK         0.1400 
    111 CB        -3.6682  -22.7190  -57.3569 C.3       20 UNK        -0.1800 
    112 C         -1.3723  -21.9711  -56.5945 C.2       20 UNK         0.5000 
    113 O         -0.7888  -21.6089  -57.6165 O.2       20 UNK        -0.5000 
    114 N         -0.7494  -22.5546  -55.5582 N.am      21 UNK        -0.5000 
    115 CA         0.7015  -22.6978  -55.4294 C.3       21 UNK         0.1400 
    116 CB         1.0079  -23.6854  -54.2925 C.3       21 UNK        -0.1800 
    117 C          1.4335  -21.3594  -55.1892 C.2       21 UNK         0.5000 
    118 O          2.6444  -21.2983  -55.4077 O.2       21 UNK        -0.5000 
    119 N          0.7103  -20.3210  -54.7424 N.am      22 UNK        -0.5000 
    120 CA         1.2226  -18.9535  -54.5822 C.3       22 UNK         0.1400 
    121 C          1.5888  -18.3070  -55.9499 C.2       22 UNK         0.5000 
    122 N          2.7791  -17.7371  -56.0821 N.am      22 UNK        -0.7600 
    123 O          0.7875  -18.2912  -56.8815 O.2       22 UNK        -0.5000 
    124 C124        0.2219  -18.0736  -53.7884 C.3       23 UNK        -0.0398 
    125 S125        1.0312  -16.6120  -53.0514 S.3       23 UNK        -0.2404 
    126 C126        0.7761  -16.8868  -51.2712 C.3       23 UNK        -0.0205 
    127 H127       -3.0293   -8.5405  -45.5781 H         1 UNK         0.0600 
    128 H128       -3.4877   -8.0697  -47.2185 H         1 UNK         0.0600 
    129 H129       -3.6464   -9.7517  -46.7042 H         1 UNK         0.0600 
    130 H130       -2.0452  -11.0348  -47.5450 H         1 UNK         0.3000 
    131 H131        0.4212  -10.0211  -48.6251 H         1 UNK         0.0600 
    132 H132        0.9217  -12.4467  -49.0816 H         1 UNK         0.0800 
    133 H133       -0.4850  -12.9219  -48.1768 H         1 UNK         0.0800 
    134 H134       -3.2110  -12.8495  -50.7490 H         1 UNK         0.0800 
    135 H135       -2.8368  -12.9303  -49.0468 H         1 UNK         0.0800 
    136 H136       -0.0519  -14.3523  -50.9156 H         1 UNK         0.1150 
    137 H137       -1.4181  -18.3908  -50.6203 H         1 UNK         0.1150 
    138 H138       -4.0391  -15.1763  -49.5479 H         1 UNK         0.1150 
    139 H139       -4.8572  -17.6011  -50.2346 H         1 UNK         0.0800 
    140 H140       -3.6880  -18.8835  -50.0404 H         1 UNK         0.0800 
    141 H141       -2.5537  -18.4100  -46.3305 H         1 UNK         0.0800 
    142 H142       -2.0196  -18.6611  -47.9578 H         1 UNK         0.0800 
    143 H143       -3.9669  -20.5978  -47.8472 H         1 UNK         0.0600 
    144 H144       -1.1445  -20.6949  -47.7648 H         1 UNK         0.3000 
    145 H145       -0.7191  -24.1518  -47.7373 H         1 UNK         0.0600 
    146 H146        0.0558  -24.0772  -50.0725 H         1 UNK         0.0600 
    147 H147       -1.6944  -23.9720  -50.0506 H         1 UNK         0.0600 
    148 H148       -0.7411  -22.5255  -50.3344 H         1 UNK         0.0600 
    149 H149        1.1408  -22.3824  -48.6831 H         1 UNK         0.3000 
    150 H150        2.9884  -22.2548  -46.7260 H         1 UNK         0.0600 
    151 H151        2.5896  -21.0009  -48.8036 H         1 UNK         0.0600 
    152 H152        3.5397  -19.9781  -47.7475 H         1 UNK         0.0600 
    153 H153        1.8126  -19.6872  -47.9257 H         1 UNK         0.0600 
    154 H154        1.7585  -20.0096  -45.2110 H         1 UNK         0.3000 
    155 H155        3.6858  -20.4976  -42.4660 H         1 UNK         0.0600 
    156 H156        4.8090  -18.3443  -44.3404 H         1 UNK         0.0600 
    157 H157        5.7511  -19.5888  -43.5288 H         1 UNK         0.0600 
    158 H158        4.9427  -18.3536  -42.5806 H         1 UNK         0.0600 
    159 H159        2.4860  -18.0944  -43.6326 H         1 UNK         0.3000 
    160 H160       -0.8031  -19.0008  -43.2119 H         1 UNK         0.0600 
    161 H161        0.5578  -17.1389  -41.1919 H         1 UNK         0.0600 
    162 H162       -0.5044  -18.4835  -40.7897 H         1 UNK         0.0600 
    163 H163       -1.1434  -17.0938  -41.6531 H         1 UNK         0.0600 
    164 H164        0.5524  -16.4711  -43.5614 H         1 UNK         0.3000 
    165 H165        1.7634  -16.2620  -46.0015 H         1 UNK         0.0600 
    166 H166        0.7761  -15.8018  -48.2086 H         1 UNK         0.0600 
    167 H167       -0.6377  -16.7738  -47.8185 H         1 UNK         0.0600 
    168 H168        0.9417  -17.5326  -47.9799 H         1 UNK         0.0600 
    169 H169        0.7223  -14.4097  -45.4998 H         1 UNK         0.3000 
    170 H170       -1.3522  -12.8290  -45.9742 H         1 UNK         0.0600 
    171 H171       -3.7038  -13.4749  -45.7544 H         1 UNK         0.0600 
    172 H172       -3.4827  -13.9079  -44.0670 H         1 UNK         0.0600 
    173 H173       -3.3235  -12.2271  -44.5781 H         1 UNK         0.0600 
    174 H174       -0.1372  -12.2721  -44.2370 H         1 UNK         0.3000 
    175 H175        0.0573  -11.9000  -41.7019 H         1 UNK         0.0600 
    176 H176        0.4672  -14.6671  -40.4455 H         1 UNK         0.0600 
    177 H177        0.9857  -13.1341  -39.7474 H         1 UNK         0.0600 
    178 H178       -0.7251  -13.4728  -39.9533 H         1 UNK         0.0600 
    179 H179        2.1291  -12.1412  -42.4580 H         1 UNK         0.3000 
    180 H180        4.3436  -13.6118  -42.4159 H         1 UNK         0.0600 
    181 H181        3.8194  -15.5415  -44.7404 H         1 UNK         0.0600 
    182 H182        4.4437  -15.9559  -43.1512 H         1 UNK         0.0600 
    183 H183        5.4049  -14.9631  -44.2337 H         1 UNK         0.0600 
    184 H184        4.3929  -11.9858  -43.9186 H         1 UNK         0.3000 
    185 H185        3.3761  -10.5137  -45.4170 H         1 UNK         0.0600 
    186 H186        5.5374  -11.4915  -46.2377 H         1 UNK         0.0600 
    187 H187        4.7237  -12.1152  -47.6667 H         1 UNK         0.0600 
    188 H188        4.8665  -10.3751  -47.4138 H         1 UNK         0.0600 
    189 H189        2.5492  -11.0230  -48.0692 H         1 UNK         0.3000 
    190 H190       -1.7852  -21.4014  -45.2437 H         1 UNK         0.3000 
    191 H191       -4.1683  -21.8984  -43.4810 H         1 UNK         0.0600 
    192 H192       -2.6287  -21.7748  -41.5552 H         1 UNK         0.0600 
    193 H193       -2.6550  -20.2461  -42.4191 H         1 UNK         0.0600 
    194 H194       -1.2937  -21.3559  -42.6175 H         1 UNK         0.0600 
    195 H195       -0.9554  -23.1109  -44.6307 H         1 UNK         0.3000 
    196 H196       -1.0438  -25.5314  -43.2204 H         1 UNK         0.0600 
    197 H197        0.4846  -24.8887  -45.7944 H         1 UNK         0.0600 
    198 H198        1.0171  -24.4795  -44.1642 H         1 UNK         0.0600 
    199 H199        0.8679  -26.1619  -44.6472 H         1 UNK         0.0600 
    200 H200       -2.5922  -24.7426  -46.2680 H         1 UNK         0.3000 
    201 H201       -3.6574  -27.5258  -46.4754 H         1 UNK         0.0600 
    202 H202       -3.0208  -25.6175  -48.7890 H         1 UNK         0.0600 
    203 H203       -3.6809  -27.2414  -48.9236 H         1 UNK         0.0600 
    204 H204       -2.0367  -27.0126  -48.3513 H         1 UNK         0.0600 
    205 H205       -4.4820  -24.8712  -45.1174 H         1 UNK         0.3000 
    206 H206       -6.2122  -23.5263  -44.7925 H         1 UNK         0.0600 
    207 H207       -7.1822  -25.7463  -44.1565 H         1 UNK         0.0600 
    208 H208       -8.4208  -24.6367  -44.7165 H         1 UNK         0.0600 
    209 H209       -7.8536  -25.9205  -45.7776 H         1 UNK         0.0600 
    210 H210       -5.0090  -23.2028  -47.3964 H         1 UNK         0.3000 
    211 H211       -5.1404  -22.0303  -49.2239 H         1 UNK         0.0600 
    212 H212       -6.8318  -20.3034  -49.5801 H         1 UNK         0.0600 
    213 H213       -6.4490  -20.3467  -47.8684 H         1 UNK         0.0600 
    214 H214       -7.9433  -21.0691  -48.4588 H         1 UNK         0.0600 
    215 H215       -6.5376  -24.8587  -48.9811 H         1 UNK         0.3000 
    216 H216       -8.1814  -24.9672  -51.3627 H         1 UNK         0.0600 
    217 H217       -6.7235  -27.2272  -49.8958 H         1 UNK         0.0600 
    218 H218       -8.0529  -27.3951  -51.0319 H         1 UNK         0.0600 
    219 H219       -8.3284  -26.6286  -49.4742 H         1 UNK         0.0600 
    220 H220       -4.7586  -25.0262  -50.7251 H         1 UNK         0.3000 
    221 H221       -4.1078  -25.6217  -53.5862 H         1 UNK         0.0600 
    222 H222       -3.2225  -27.3117  -51.9450 H         1 UNK         0.0600 
    223 H223       -2.3467  -26.0287  -51.1138 H         1 UNK         0.0600 
    224 H224       -1.9430  -26.4413  -52.7732 H         1 UNK         0.0600 
    225 H225       -4.9696  -23.0123  -52.3411 H         1 UNK         0.3000 
    226 H226       -2.7815  -21.2655  -51.9697 H         1 UNK         0.0600 
    227 H227       -5.6455  -20.7201  -52.9075 H         1 UNK         0.0600 
    228 H228       -5.0407  -20.6612  -51.2527 H         1 UNK         0.0600 
    229 H229       -4.5053  -19.4710  -52.4227 H         1 UNK         0.0600 
    230 H230       -4.0580  -22.5690  -54.9227 H         1 UNK         0.3000 
    231 H231       -3.0879  -20.7170  -56.8382 H         1 UNK         0.0600 
    232 H232       -3.5278  -23.7479  -57.0233 H         1 UNK         0.0600 
    233 H233       -3.3360  -22.6621  -58.3944 H         1 UNK         0.0600 
    234 H234       -4.7371  -22.5046  -57.3485 H         1 UNK         0.0600 
    235 H235       -1.2976  -22.8552  -54.7590 H         1 UNK         0.3000 
    236 H236        1.0853  -23.1202  -56.3603 H         1 UNK         0.0600 
    237 H237        0.5189  -24.6455  -54.4590 H         1 UNK         0.0600 
    238 H238        2.0793  -23.8745  -54.2167 H         1 UNK         0.0600 
    239 H239        0.6738  -23.3023  -53.3273 H         1 UNK         0.0600 
    240 H240       -0.2892  -20.4359  -54.6175 H         1 UNK         0.3000 
    241 H241        2.1344  -19.0402  -53.9874 H         1 UNK         0.0600 
    242 H242        3.4447  -17.7271  -55.3248 H         1 UNK         0.3800 
    243 H243        3.0220  -17.3047  -56.9599 H         1 UNK         0.3800 
    244 H244       -0.2332  -18.6578  -52.9879 H         1 UNK         0.0800 
    245 H245       -0.6070  -17.7468  -54.4190 H         1 UNK         0.0800 
    246 H246        1.5395  -16.3336  -50.7222 H         1 UNK         0.0800 
    247 H247        0.9334  -17.9380  -51.0248 H         1 UNK         0.0800 
@<TRIPOS>BOND
     1    1    2 1    
     2    1  127 1    
     3    1  128 1    
     4    1  129 1    
     5    2    3 2    
     6    2    4 am   BACKBONE|DICT|INTERRES
     7    4    5 1    
     8    4  130 1    
     9    5    6 1    
    10    5   65 1    
    11    5  131 1    
    12    6    7 1    
    13    6  132 1    
    14    6  133 1    
    15    7    8 1    
    16    8    9 1    
    17    8  134 1    
    18    8  135 1    
    19    9   10 ar   
    20    9   14 ar   
    21   10   11 ar   
    22   10  136 1    
    23   11   12 ar   
    24   11  126 1    
    25   12   13 ar   
    26   12  137 1    
    27   13   14 ar   
    28   13   15 1    
    29   14  138 1    
    30   15   16 1    
    31   15  139 1    
    32   15  140 1    
    33   16   17 1    
    34   17   18 1    
    35   17  141 1    
    36   17  142 1    
    37   18   19 1    
    38   18   67 1    
    39   18  143 1    
    40   19   20 am   BACKBONE|DICT|INTERRES
    41   19  144 1    
    42   20   21 2    
    43   20   22 1    
    44   22   23 1    
    45   22   24 1    
    46   22  145 1    
    47   23  146 1    
    48   23  147 1    
    49   23  148 1    
    50   24   25 am   BACKBONE|DICT|INTERRES
    51   24  149 1    
    52   25   26 2    
    53   25   27 1    
    54   27   28 1    
    55   27   29 1    
    56   27  150 1    
    57   28  151 1    
    58   28  152 1    
    59   28  153 1    
    60   29   30 am   BACKBONE|DICT|INTERRES
    61   29  154 1    
    62   30   31 2    
    63   30   32 1    
    64   32   33 1    
    65   32   34 1    
    66   32  155 1    
    67   33  156 1    
    68   33  157 1    
    69   33  158 1    
    70   34   35 am   BACKBONE|DICT|INTERRES
    71   34  159 1    
    72   35   36 2    
    73   35   37 1    
    74   37   38 1    
    75   37   39 1    
    76   37  160 1    
    77   38  161 1    
    78   38  162 1    
    79   38  163 1    
    80   39   40 am   BACKBONE|DICT|INTERRES
    81   39  164 1    
    82   40   41 2    
    83   40   42 1    
    84   42   43 1    
    85   42   44 1    
    86   42  165 1    
    87   43  166 1    
    88   43  167 1    
    89   43  168 1    
    90   44   45 am   BACKBONE|DICT|INTERRES
    91   44  169 1    
    92   45   46 2    
    93   45   47 1    
    94   47   48 1    
    95   47   49 1    
    96   47  170 1    
    97   48  171 1    
    98   48  172 1    
    99   48  173 1    
   100   49   50 am   BACKBONE|DICT|INTERRES
   101   49  174 1    
   102   50   51 2    
   103   50   52 1    
   104   52   53 1    
   105   52   54 1    
   106   52  175 1    
   107   53  176 1    
   108   53  177 1    
   109   53  178 1    
   110   54   55 am   BACKBONE|DICT|INTERRES
   111   54  179 1    
   112   55   56 2    
   113   55   57 1    
   114   57   58 1    
   115   57   59 1    
   116   57  180 1    
   117   58  181 1    
   118   58  182 1    
   119   58  183 1    
   120   59   60 am   BACKBONE|DICT|INTERRES
   121   59  184 1    
   122   60   61 2    
   123   60   62 1    
   124   62   63 1    
   125   62   64 1    
   126   62  185 1    
   127   63  186 1    
   128   63  187 1    
   129   63  188 1    
   130   64   65 am   BACKBONE|DICT|INTERRES
   131   64  189 1    
   132   65   66 2    
   133   67   68 2    
   134   67   69 am   BACKBONE|DICT|INTERRES
   135   69   70 1    
   136   69  190 1    
   137   70   71 1    
   138   70   72 1    
   139   70  191 1    
   140   71  192 1    
   141   71  193 1    
   142   71  194 1    
   143   72   73 2    
   144   72   74 am   BACKBONE|DICT|INTERRES
   145   74   75 1    
   146   74  195 1    
   147   75   76 1    
   148   75   77 1    
   149   75  196 1    
   150   76  197 1    
   151   76  198 1    
   152   76  199 1    
   153   77   78 2    
   154   77   79 am   BACKBONE|DICT|INTERRES
   155   79   80 1    
   156   79  200 1    
   157   80   81 1    
   158   80   82 1    
   159   80  201 1    
   160   81  202 1    
   161   81  203 1    
   162   81  204 1    
   163   82   83 2    
   164   82   84 am   BACKBONE|DICT|INTERRES
   165   84   85 1    
   166   84  205 1    
   167   85   86 1    
   168   85   87 1    
   169   85  206 1    
   170   86  207 1    
   171   86  208 1    
   172   86  209 1    
   173   87   88 2    
   174   87   89 am   BACKBONE|DICT|INTERRES
   175   89   90 1    
   176   89  210 1    
   177   90   91 1    
   178   90   92 1    
   179   90  211 1    
   180   91  212 1    
   181   91  213 1    
   182   91  214 1    
   183   92   93 2    
   184   92   94 am   BACKBONE|DICT|INTERRES
   185   94   95 1    
   186   94  215 1    
   187   95   96 1    
   188   95   97 1    
   189   95  216 1    
   190   96  217 1    
   191   96  218 1    
   192   96  219 1    
   193   97   98 2    
   194   97   99 am   BACKBONE|DICT|INTERRES
   195   99  100 1    
   196   99  220 1    
   197  100  101 1    
   198  100  102 1    
   199  100  221 1    
   200  101  222 1    
   201  101  223 1    
   202  101  224 1    
   203  102  103 2    
   204  102  104 am   BACKBONE|DICT|INTERRES
   205  104  105 1    
   206  104  225 1    
   207  105  106 1    
   208  105  107 1    
   209  105  226 1    
   210  106  227 1    
   211  106  228 1    
   212  106  229 1    
   213  107  108 2    
   214  107  109 am   BACKBONE|DICT|INTERRES
   215  109  110 1    
   216  109  230 1    
   217  110  111 1    
   218  110  112 1    
   219  110  231 1    
   220  111  232 1    
   221  111  233 1    
   222  111  234 1    
   223  112  113 2    
   224  112  114 am   BACKBONE|DICT|INTERRES
   225  114  115 1    
   226  114  235 1    
   227  115  116 1    
   228  115  117 1    
   229  115  236 1    
   230  116  237 1    
   231  116  238 1    
   232  116  239 1    
   233  117  118 2    
   234  117  119 am   BACKBONE|DICT|INTERRES
   235  119  120 1    
   236  119  240 1    
   237  120  121 1    
   238  120  124 1    
   239  120  241 1    
   240  121  122 am   BACKBONE|DICT|INTERRES
   241  121  123 2    
   242  122  242 1    
   243  122  243 1    
   244  124  125 1    
   245  124  244 1    
   246  124  245 1    
   247  125  126 1    
   248  126  246 1    
   249  126  247 1    
@<TRIPOS>SUBSTRUCTURE
     1 UNK         1 GROUP             0       ****    0 ROOT    
