@<TRIPOS>MOLECULE
3R540
247   249    1
SMALL
USER_CHARGES


@<TRIPOS>ATOM
      1 CA         -2.0128  -14.3147  -47.3035 C.3       0 UNK        -0.1800 
      2 C          -0.9677  -14.5369  -46.2221 C.2       0 UNK         0.5000 
      3 O          -0.8975  -13.7623  -45.2662 O.2       0 UNK        -0.5000 
      4 N          -0.1759  -15.6108  -46.3493 N.am      1 UNK        -0.5000 
      5 CA          0.9203  -16.0149  -45.4534 C.3       1 UNK         0.1400 
      6 C6          1.9107  -16.9828  -46.1529 C.3       23 UNK        -0.0398 
      7 S7          2.7685  -16.1938  -47.5558 S.3       23 UNK        -0.2404 
      8 C8          2.9799  -17.5943  -48.7123 C.3       23 UNK        -0.0205 
      9 C9          1.7937  -17.9165  -49.6276 C.ar      23 UNK        -0.0193 
     10 C10         1.9372  -18.9625  -50.5447 C.ar      23 UNK        -0.1150 
     11 C11         0.9169  -19.2765  -51.4471 C.ar      23 UNK        -0.0193 
     12 C12        -0.2783  -18.5519  -51.4127 C.ar      23 UNK        -0.1150 
     13 C13        -0.4443  -17.5065  -50.5006 C.ar      23 UNK        -0.0193 
     14 C14         0.5962  -17.1892  -49.6215 C.ar      23 UNK        -0.1150 
     15 C15        -1.7272  -16.6832  -50.4884 C.3       23 UNK        -0.0205 
     16 S16        -3.1643  -17.5732  -49.8001 S.3       23 UNK        -0.2404 
     17 C17        -2.5195  -18.2921  -48.2486 C.3       23 UNK        -0.0398 
     18 CA         -2.3306  -19.8220  -48.3979 C.3       11 UNK         0.1400 
     19 N          -1.1503  -20.3307  -47.6970 N.am      11 UNK        -0.5000 
     20 C          -0.6511  -21.5604  -47.8892 C.2       10 UNK         0.5000 
     21 O          -1.1469  -22.3859  -48.6565 O.2       10 UNK        -0.5000 
     22 CA          0.5637  -21.9603  -47.0380 C.3       10 UNK         0.1400 
     23 CB          1.8649  -21.5832  -47.7596 C.3       10 UNK        -0.1800 
     24 N           0.5722  -21.3747  -45.6953 N.am      10 UNK        -0.5000 
     25 C          -0.3812  -21.5091  -44.7609 C.2       9 UNK         0.5000 
     26 O          -1.4604  -22.0652  -44.9701 O.2       9 UNK        -0.5000 
     27 CA         -0.1088  -20.8825  -43.3782 C.3       9 UNK         0.1400 
     28 CB         -0.5158  -21.8194  -42.2236 C.3       9 UNK        -0.1800 
     29 N           1.2601  -20.3766  -43.2104 N.am      9 UNK        -0.5000 
     30 C           2.4050  -21.0731  -43.1301 C.2       8 UNK         0.5000 
     31 O           2.4672  -22.3020  -43.1514 O.2       8 UNK        -0.5000 
     32 CA          3.7125  -20.2580  -43.0632 C.3       8 UNK         0.1400 
     33 CB          4.3523  -20.1725  -44.4589 C.3       8 UNK        -0.1800 
     34 N           3.5342  -18.8992  -42.5475 N.am      8 UNK        -0.5000 
     35 C           3.2487  -18.5894  -41.2761 C.2       7 UNK         0.5000 
     36 O           3.1376  -19.4272  -40.3797 O.2       7 UNK        -0.5000 
     37 CA          3.0793  -17.0912  -40.9687 C.3       7 UNK         0.1400 
     38 CB          3.2013  -16.7627  -39.4695 C.3       7 UNK        -0.1800 
     39 N           4.0530  -16.2948  -41.7193 N.am      7 UNK        -0.5000 
     40 C           3.7552  -15.2134  -42.4459 C.2       6 UNK         0.5000 
     41 O           2.6098  -14.8012  -42.6315 O.2       6 UNK        -0.5000 
     42 CA          4.9321  -14.4757  -43.1059 C.3       6 UNK         0.1400 
     43 CB          5.0181  -14.8311  -44.5987 C.3       6 UNK        -0.1800 
     44 N           4.7482  -13.0332  -42.9668 N.am      6 UNK        -0.5000 
     45 C           4.9477  -12.3480  -41.8319 C.2       5 UNK         0.5000 
     46 O           5.4945  -12.8204  -40.8343 O.2       5 UNK        -0.5000 
     47 CA          4.4234  -10.8970  -41.7977 C.3       5 UNK         0.1400 
     48 CB          5.5204   -9.9148  -42.2362 C.3       5 UNK        -0.1800 
     49 N           3.2359  -10.7000  -42.6359 N.am      5 UNK        -0.5000 
     50 C           2.0387  -11.2569  -42.3999 C.2       4 UNK         0.5000 
     51 O           1.7881  -11.9109  -41.3849 O.2       4 UNK        -0.5000 
     52 CA          0.9715  -11.0547  -43.4991 C.3       4 UNK         0.1400 
     53 CB          1.4874  -11.5364  -44.8689 C.3       4 UNK        -0.1800 
     54 N          -0.2778  -11.7612  -43.2184 N.am      4 UNK        -0.5000 
     55 C          -1.1809  -11.4315  -42.2850 C.2       3 UNK         0.5000 
     56 O          -1.1073  -10.4198  -41.5856 O.2       3 UNK        -0.5000 
     57 CA         -2.3753  -12.3901  -42.1104 C.3       3 UNK         0.1400 
     58 CB         -3.5388  -11.9647  -43.0197 C.3       3 UNK        -0.1800 
     59 N          -2.0194  -13.7770  -42.4171 N.am      3 UNK        -0.5000 
     60 C          -1.4459  -14.6296  -41.5527 C.2       2 UNK         0.5000 
     61 O          -1.2442  -14.3698  -40.3664 O.2       2 UNK        -0.5000 
     62 CA         -1.0022  -15.9907  -42.1150 C.3       2 UNK         0.1400 
     63 CB         -2.1594  -17.0038  -42.1290 C.3       2 UNK        -0.1800 
     64 N          -0.4685  -15.8067  -43.4578 N.am      2 UNK        -0.5000 
     65 C           0.4116  -16.5720  -44.1012 C.2       1 UNK         0.5000 
     66 O           0.8237  -17.6499  -43.6712 O.2       1 UNK        -0.5000 
     67 C          -3.6188  -20.5949  -48.0401 C.2       11 UNK         0.5000 
     68 O          -4.4959  -20.7341  -48.8906 O.2       11 UNK        -0.5000 
     69 N          -3.7008  -21.1118  -46.8083 N.am      12 UNK        -0.5000 
     70 CA         -4.7909  -21.9724  -46.3604 C.3       12 UNK         0.1400 
     71 CB         -5.0498  -21.7280  -44.8650 C.3       12 UNK        -0.1800 
     72 C          -4.4615  -23.4496  -46.6253 C.2       12 UNK         0.5000 
     73 O          -5.2960  -24.1696  -47.1730 O.2       12 UNK        -0.5000 
     74 N          -3.2554  -23.8701  -46.2213 N.am      13 UNK        -0.5000 
     75 CA         -2.8239  -25.2662  -46.1964 C.3       13 UNK         0.1400 
     76 CB         -1.5528  -25.3817  -45.3405 C.3       13 UNK        -0.1800 
     77 C          -2.5935  -25.8878  -47.5841 C.2       13 UNK         0.5000 
     78 O          -2.9133  -27.0632  -47.7684 O.2       13 UNK        -0.5000 
     79 N          -2.0300  -25.1118  -48.5184 N.am      14 UNK        -0.5000 
     80 CA         -1.6525  -25.5764  -49.8527 C.3       14 UNK         0.1400 
     81 CB         -0.1436  -25.3654  -50.0607 C.3       14 UNK        -0.1800 
     82 C          -2.4566  -24.8652  -50.9479 C.2       14 UNK         0.5000 
     83 O          -2.9055  -25.5267  -51.8843 O.2       14 UNK        -0.5000 
     84 N          -2.6209  -23.5392  -50.8344 N.am      15 UNK        -0.5000 
     85 CA         -3.2825  -22.7303  -51.8602 C.3       15 UNK         0.1400 
     86 CB         -2.7650  -21.2850  -51.8238 C.3       15 UNK        -0.1800 
     87 C          -4.8154  -22.7564  -51.7876 C.2       15 UNK         0.5000 
     88 O          -5.4425  -22.3696  -52.7720 O.2       15 UNK        -0.5000 
     89 N          -5.3894  -23.1839  -50.6542 N.am      16 UNK        -0.5000 
     90 CA         -6.8307  -23.2880  -50.3938 C.3       16 UNK         0.1400 
     91 CB         -7.4351  -24.4424  -51.2208 C.3       16 UNK        -0.1800 
     92 C          -7.5738  -21.9482  -50.5986 C.2       16 UNK         0.5000 
     93 O          -8.5582  -21.8892  -51.3364 O.2       16 UNK        -0.5000 
     94 N          -7.0487  -20.8899  -49.9653 N.am      17 UNK        -0.5000 
     95 CA         -7.4619  -19.4862  -50.0723 C.3       17 UNK         0.1400 
     96 CB         -8.9202  -19.2811  -49.6101 C.3       17 UNK        -0.1800 
     97 C          -7.1646  -18.9038  -51.4692 C.2       17 UNK         0.5000 
     98 O          -7.9941  -18.1956  -52.0420 O.2       17 UNK        -0.5000 
     99 N          -5.9686  -19.2303  -51.9818 N.am      18 UNK        -0.5000 
    100 CA        -5.3943  -18.8160  -53.2688 C.3       18 UNK         0.1400 
    101 CB        -5.1878  -17.2879  -53.3156 C.3       18 UNK        -0.1800 
    102 C         -6.1411  -19.3533  -54.5105 C.2       18 UNK         0.5000 
    103 O         -5.9548  -18.8246  -55.6072 O.2       18 UNK        -0.5000 
    104 N         -6.9441  -20.4102  -54.3355 N.am      19 UNK        -0.5000 
    105 CA        -7.6636  -21.0981  -55.4061 C.3       19 UNK         0.1400 
    106 CB        -8.8384  -21.8798  -54.7992 C.3       19 UNK        -0.1800 
    107 C         -6.7466  -22.0396  -56.2076 C.2       19 UNK         0.5000 
    108 O         -6.8521  -22.0941  -57.4333 O.2       19 UNK        -0.5000 
    109 N         -5.8648  -22.7577  -55.5001 N.am      20 UNK        -0.5000 
    110 CA        -4.9157  -23.7201  -56.0637 C.3       20 UNK         0.1400 
    111 CB        -4.8432  -24.9422  -55.1340 C.3       20 UNK        -0.1800 
    112 C         -3.5133  -23.1172  -56.2671 C.2       20 UNK         0.5000 
    113 O         -2.6815  -23.7461  -56.9226 O.2       20 UNK        -0.5000 
    114 N         -3.2621  -21.9307  -55.6886 N.am      21 UNK        -0.5000 
    115 CA        -2.0347  -21.1253  -55.8038 C.3       21 UNK         0.1400 
    116 CB        -1.9364  -20.5193  -57.2183 C.3       21 UNK        -0.1800 
    117 C         -0.7421  -21.8673  -55.3856 C.2       21 UNK         0.5000 
    118 O          0.3308  -21.5910  -55.9234 O.2       21 UNK        -0.5000 
    119 N         -0.8811  -22.8020  -54.4361 N.am      22 UNK        -0.5000 
    120 CA         0.1490  -23.7391  -53.9525 C.3       22 UNK         0.1400 
    121 C          0.5802  -24.8140  -54.9999 C.2       22 UNK         0.5000 
    122 N         -0.1462  -25.0163  -56.0939 N.am      22 UNK        -0.7600 
    123 O          1.5748  -25.5077  -54.8059 O.2       22 UNK        -0.5000 
    124 C124        1.3664  -23.0447  -53.2743 C.3       23 UNK        -0.0398 
    125 S125        0.9150  -22.0281  -51.8255 S.3       23 UNK        -0.2404 
    126 C126        1.1385  -20.3541  -52.4973 C.3       23 UNK        -0.0205 
    127 H127       -2.8557  -13.7490  -46.9063 H         1 UNK         0.0600 
    128 H128       -2.3955  -15.2613  -47.6829 H         1 UNK         0.0600 
    129 H129       -1.5836  -13.7520  -48.1321 H         1 UNK         0.0600 
    130 H130       -0.3018  -16.2041  -47.1529 H         1 UNK         0.3000 
    131 H131        1.4812  -15.1126  -45.2003 H         1 UNK         0.0600 
    132 H132        2.6857  -17.3117  -45.4589 H         1 UNK         0.0800 
    133 H133        1.3942  -17.8828  -46.4903 H         1 UNK         0.0800 
    134 H134        3.2581  -18.4840  -48.1464 H         1 UNK         0.0800 
    135 H135        3.8358  -17.3622  -49.3475 H         1 UNK         0.0800 
    136 H136        2.8619  -19.5219  -50.5769 H         1 UNK         0.1150 
    137 H137       -1.0718  -18.7838  -52.1087 H         1 UNK         0.1150 
    138 H138        0.4693  -16.3547  -48.9512 H         1 UNK         0.1150 
    139 H139       -1.5830  -15.7578  -49.9305 H         1 UNK         0.0800 
    140 H140       -1.9647  -16.3798  -51.5089 H         1 UNK         0.0800 
    141 H141       -3.1960  -18.0419  -47.4290 H         1 UNK         0.0800 
    142 H142       -1.5774  -17.8080  -47.9990 H         1 UNK         0.0800 
    143 H143       -2.1237  -20.0265  -49.4471 H         1 UNK         0.0600 
    144 H144       -0.7019  -19.7235  -47.0291 H         1 UNK         0.3000 
    145 H145        0.5383  -23.0454  -46.9237 H         1 UNK         0.0600 
    146 H146        2.7386  -21.9455  -47.2176 H         1 UNK         0.0600 
    147 H147        1.8987  -22.0195  -48.7592 H         1 UNK         0.0600 
    148 H148        1.9609  -20.5035  -47.8712 H         1 UNK         0.0600 
    149 H149        1.4172  -20.8984  -45.4211 H         1 UNK         0.3000 
    150 H150       -0.7532  -20.0047  -43.3245 H         1 UNK         0.0600 
    151 H151       -1.5814  -22.0481  -42.2643 H         1 UNK         0.0600 
    152 H152       -0.3203  -21.3590  -41.2551 H         1 UNK         0.0600 
    153 H153        0.0193  -22.7684  -42.2604 H         1 UNK         0.0600 
    154 H154        1.3230  -19.3599  -43.2246 H         1 UNK         0.3000 
    155 H155        4.3992  -20.7893  -42.4010 H         1 UNK         0.0600 
    156 H156        3.7145  -19.6402  -45.1655 H         1 UNK         0.0600 
    157 H157        4.5344  -21.1674  -44.8676 H         1 UNK         0.0600 
    158 H158        5.3132  -19.6589  -44.4216 H         1 UNK         0.0600 
    159 H159        3.5945  -18.1460  -43.2156 H         1 UNK         0.3000 
    160 H160        2.0652  -16.8409  -41.2817 H         1 UNK         0.0600 
    161 H161        4.1839  -17.0296  -39.0789 H         1 UNK         0.0600 
    162 H162        2.4544  -17.3018  -38.8855 H         1 UNK         0.0600 
    163 H163        3.0459  -15.6990  -39.2879 H         1 UNK         0.0600 
    164 H164        5.0169  -16.5896  -41.6404 H         1 UNK         0.3000 
    165 H165        5.8660  -14.7670  -42.6205 H         1 UNK         0.0600 
    166 H166        5.8598  -14.3288  -45.0756 H         1 UNK         0.0600 
    167 H167        5.1579  -15.9037  -44.7392 H         1 UNK         0.0600 
    168 H168        4.1116  -14.5461  -45.1345 H         1 UNK         0.0600 
    169 H169        4.2548  -12.5723  -43.7156 H         1 UNK         0.3000 
    170 H170        4.1522  -10.6677  -40.7650 H         1 UNK         0.0600 
    171 H171        6.4101  -10.0210  -41.6140 H         1 UNK         0.0600 
    172 H172        5.8218  -10.0822  -43.2710 H         1 UNK         0.0600 
    173 H173        5.1843   -8.8816  -42.1462 H         1 UNK         0.0600 
    174 H174        3.3657  -10.1540  -43.4752 H         1 UNK         0.3000 
    175 H175        0.7548   -9.9865  -43.5618 H         1 UNK         0.0600 
    176 H176        1.7759  -12.5882  -44.8393 H         1 UNK         0.0600 
    177 H177        0.7230  -11.4245  -45.6384 H         1 UNK         0.0600 
    178 H178        2.3541  -10.9644  -45.2003 H         1 UNK         0.0600 
    179 H179       -0.4493  -12.5856  -43.7826 H         1 UNK         0.3000 
    180 H180       -2.7115  -12.3235  -41.0734 H         1 UNK         0.0600 
    181 H181       -3.2657  -12.0176  -44.0746 H         1 UNK         0.0600 
    182 H182       -3.8432  -10.9385  -42.8098 H         1 UNK         0.0600 
    183 H183       -4.4114  -12.5999  -42.8663 H         1 UNK         0.0600 
    184 H184       -2.1738  -14.0681  -43.3716 H         1 UNK         0.3000 
    185 H185       -0.2091  -16.3706  -41.4693 H         1 UNK         0.0600 
    186 H186       -2.5824  -17.1257  -41.1313 H         1 UNK         0.0600 
    187 H187       -2.9639  -16.6857  -42.7928 H         1 UNK         0.0600 
    188 H188       -1.8209  -17.9851  -42.4597 H         1 UNK         0.0600 
    189 H189       -0.6937  -14.9267  -43.9128 H         1 UNK         0.3000 
    190 H190       -2.9096  -21.0240  -46.1832 H         1 UNK         0.3000 
    191 H191       -5.7088  -21.7277  -46.8997 H         1 UNK         0.0600 
    192 H192       -4.1689  -21.9398  -44.2577 H         1 UNK         0.0600 
    193 H193       -5.8597  -22.3615  -44.5011 H         1 UNK         0.0600 
    194 H194       -5.3396  -20.6933  -44.6818 H         1 UNK         0.0600 
    195 H195       -2.6277  -23.2020  -45.7791 H         1 UNK         0.3000 
    196 H196       -3.6096  -25.8453  -45.7063 H         1 UNK         0.0600 
    197 H197       -1.2244  -26.4190  -45.2642 H         1 UNK         0.0600 
    198 H198       -1.7254  -25.0197  -44.3266 H         1 UNK         0.0600 
    199 H199       -0.7292  -24.8063  -45.7637 H         1 UNK         0.0600 
    200 H200       -1.8141  -24.1433  -48.3035 H         1 UNK         0.3000 
    201 H201       -1.8482  -26.6453  -49.9595 H         1 UNK         0.0600 
    202 H202        0.4348  -25.9301  -49.3296 H         1 UNK         0.0600 
    203 H203        0.1385  -24.3168  -49.9680 H         1 UNK         0.0600 
    204 H204        0.1668  -25.7020  -51.0506 H         1 UNK         0.0600 
    205 H205       -2.1763  -23.0479  -50.0626 H         1 UNK         0.3000 
    206 H206       -3.0149  -23.1448  -52.8317 H         1 UNK         0.0600 
    207 H207       -1.7485  -21.2246  -51.4428 H         1 UNK         0.0600 
    208 H208       -2.7574  -20.8569  -52.8241 H         1 UNK         0.0600 
    209 H209       -3.3883  -20.6380  -51.2101 H         1 UNK         0.0600 
    210 H210       -4.7829  -23.4486  -49.8912 H         1 UNK         0.3000 
    211 H211       -6.9410  -23.5431  -49.3391 H         1 UNK         0.0600 
    212 H212       -7.3809  -24.2470  -52.2924 H         1 UNK         0.0600 
    213 H213       -8.4849  -24.5959  -50.9687 H         1 UNK         0.0600 
    214 H214       -6.9141  -25.3797  -51.0258 H         1 UNK         0.0600 
    215 H215       -6.1808  -21.0296  -49.4494 H         1 UNK         0.3000 
    216 H216       -6.8244  -18.9356  -49.3787 H         1 UNK         0.0600 
    217 H217       -9.1600  -18.2193  -49.5453 H         1 UNK         0.0600 
    218 H218       -9.0849  -19.7115  -48.6224 H         1 UNK         0.0600 
    219 H219       -9.6357  -19.7324  -50.2977 H         1 UNK         0.0600 
    220 H220       -5.3852  -19.8340  -51.4206 H         1 UNK         0.3000 
    221 H221       -4.4047  -19.2692  -53.3094 H         1 UNK         0.0600 
    222 H222       -6.1360  -16.7518  -53.3591 H         1 UNK         0.0600 
    223 H223       -4.6431  -16.9356  -52.4401 H         1 UNK         0.0600 
    224 H224       -4.6086  -16.9965  -54.1925 H         1 UNK         0.0600 
    225 H225       -6.9972  -20.8244  -53.4137 H         1 UNK         0.3000 
    226 H226       -8.0702  -20.3532  -56.0934 H         1 UNK         0.0600 
    227 H227       -9.5183  -21.2163  -54.2643 H         1 UNK         0.0600 
    228 H228       -9.4161  -22.3835  -55.5751 H         1 UNK         0.0600 
    229 H229       -8.4959  -22.6409  -54.0966 H         1 UNK         0.0600 
    230 H230       -5.8412  -22.6395  -54.4879 H         1 UNK         0.3000 
    231 H231       -5.2667  -24.0613  -57.0397 H         1 UNK         0.0600 
    232 H232       -5.8241  -25.4015  -55.0116 H         1 UNK         0.0600 
    233 H233       -4.4735  -24.6795  -54.1433 H         1 UNK         0.0600 
    234 H234       -4.1766  -25.7046  -55.5391 H         1 UNK         0.0600 
    235 H235       -4.0238  -21.5062  -55.1806 H         1 UNK         0.3000 
    236 H236       -2.1431  -20.2964  -55.1034 H         1 UNK         0.0600 
    237 H237       -1.7743  -21.2875  -57.9751 H         1 UNK         0.0600 
    238 H238       -2.8466  -19.9789  -57.4788 H         1 UNK         0.0600 
    239 H239       -1.1103  -19.8106  -57.2875 H         1 UNK         0.0600 
    240 H240       -1.8102  -22.9717  -54.0885 H         1 UNK         0.3000 
    241 H241       -0.3486  -24.3203  -53.1761 H         1 UNK         0.0600 
    242 H242        0.1447  -25.7232  -56.7501 H         1 UNK         0.3800 
    243 H243       -0.9809  -24.4723  -56.2896 H         1 UNK         0.3800 
    244 H244        1.9227  -22.4464  -53.9964 H         1 UNK         0.0800 
    245 H245        2.0711  -23.7936  -52.9099 H         1 UNK         0.0800 
    246 H246        0.4564  -20.2058  -53.3340 H         1 UNK         0.0800 
    247 H247        2.1467  -20.2589  -52.9032 H         1 UNK         0.0800 
@<TRIPOS>BOND
     1    1    2 1    
     2    1  127 1    
     3    1  128 1    
     4    1  129 1    
     5    2    3 2    
     6    2    4 am   BACKBONE|DICT|INTERRES
     7    4    5 1    
     8    4  130 1    
     9    5    6 1    
    10    5   65 1    
    11    5  131 1    
    12    6    7 1    
    13    6  132 1    
    14    6  133 1    
    15    7    8 1    
    16    8    9 1    
    17    8  134 1    
    18    8  135 1    
    19    9   10 ar   
    20    9   14 ar   
    21   10   11 ar   
    22   10  136 1    
    23   11   12 ar   
    24   11  126 1    
    25   12   13 ar   
    26   12  137 1    
    27   13   14 ar   
    28   13   15 1    
    29   14  138 1    
    30   15   16 1    
    31   15  139 1    
    32   15  140 1    
    33   16   17 1    
    34   17   18 1    
    35   17  141 1    
    36   17  142 1    
    37   18   19 1    
    38   18   67 1    
    39   18  143 1    
    40   19   20 am   BACKBONE|DICT|INTERRES
    41   19  144 1    
    42   20   21 2    
    43   20   22 1    
    44   22   23 1    
    45   22   24 1    
    46   22  145 1    
    47   23  146 1    
    48   23  147 1    
    49   23  148 1    
    50   24   25 am   BACKBONE|DICT|INTERRES
    51   24  149 1    
    52   25   26 2    
    53   25   27 1    
    54   27   28 1    
    55   27   29 1    
    56   27  150 1    
    57   28  151 1    
    58   28  152 1    
    59   28  153 1    
    60   29   30 am   BACKBONE|DICT|INTERRES
    61   29  154 1    
    62   30   31 2    
    63   30   32 1    
    64   32   33 1    
    65   32   34 1    
    66   32  155 1    
    67   33  156 1    
    68   33  157 1    
    69   33  158 1    
    70   34   35 am   BACKBONE|DICT|INTERRES
    71   34  159 1    
    72   35   36 2    
    73   35   37 1    
    74   37   38 1    
    75   37   39 1    
    76   37  160 1    
    77   38  161 1    
    78   38  162 1    
    79   38  163 1    
    80   39   40 am   BACKBONE|DICT|INTERRES
    81   39  164 1    
    82   40   41 2    
    83   40   42 1    
    84   42   43 1    
    85   42   44 1    
    86   42  165 1    
    87   43  166 1    
    88   43  167 1    
    89   43  168 1    
    90   44   45 am   BACKBONE|DICT|INTERRES
    91   44  169 1    
    92   45   46 2    
    93   45   47 1    
    94   47   48 1    
    95   47   49 1    
    96   47  170 1    
    97   48  171 1    
    98   48  172 1    
    99   48  173 1    
   100   49   50 am   BACKBONE|DICT|INTERRES
   101   49  174 1    
   102   50   51 2    
   103   50   52 1    
   104   52   53 1    
   105   52   54 1    
   106   52  175 1    
   107   53  176 1    
   108   53  177 1    
   109   53  178 1    
   110   54   55 am   BACKBONE|DICT|INTERRES
   111   54  179 1    
   112   55   56 2    
   113   55   57 1    
   114   57   58 1    
   115   57   59 1    
   116   57  180 1    
   117   58  181 1    
   118   58  182 1    
   119   58  183 1    
   120   59   60 am   BACKBONE|DICT|INTERRES
   121   59  184 1    
   122   60   61 2    
   123   60   62 1    
   124   62   63 1    
   125   62   64 1    
   126   62  185 1    
   127   63  186 1    
   128   63  187 1    
   129   63  188 1    
   130   64   65 am   BACKBONE|DICT|INTERRES
   131   64  189 1    
   132   65   66 2    
   133   67   68 2    
   134   67   69 am   BACKBONE|DICT|INTERRES
   135   69   70 1    
   136   69  190 1    
   137   70   71 1    
   138   70   72 1    
   139   70  191 1    
   140   71  192 1    
   141   71  193 1    
   142   71  194 1    
   143   72   73 2    
   144   72   74 am   BACKBONE|DICT|INTERRES
   145   74   75 1    
   146   74  195 1    
   147   75   76 1    
   148   75   77 1    
   149   75  196 1    
   150   76  197 1    
   151   76  198 1    
   152   76  199 1    
   153   77   78 2    
   154   77   79 am   BACKBONE|DICT|INTERRES
   155   79   80 1    
   156   79  200 1    
   157   80   81 1    
   158   80   82 1    
   159   80  201 1    
   160   81  202 1    
   161   81  203 1    
   162   81  204 1    
   163   82   83 2    
   164   82   84 am   BACKBONE|DICT|INTERRES
   165   84   85 1    
   166   84  205 1    
   167   85   86 1    
   168   85   87 1    
   169   85  206 1    
   170   86  207 1    
   171   86  208 1    
   172   86  209 1    
   173   87   88 2    
   174   87   89 am   BACKBONE|DICT|INTERRES
   175   89   90 1    
   176   89  210 1    
   177   90   91 1    
   178   90   92 1    
   179   90  211 1    
   180   91  212 1    
   181   91  213 1    
   182   91  214 1    
   183   92   93 2    
   184   92   94 am   BACKBONE|DICT|INTERRES
   185   94   95 1    
   186   94  215 1    
   187   95   96 1    
   188   95   97 1    
   189   95  216 1    
   190   96  217 1    
   191   96  218 1    
   192   96  219 1    
   193   97   98 2    
   194   97   99 am   BACKBONE|DICT|INTERRES
   195   99  100 1    
   196   99  220 1    
   197  100  101 1    
   198  100  102 1    
   199  100  221 1    
   200  101  222 1    
   201  101  223 1    
   202  101  224 1    
   203  102  103 2    
   204  102  104 am   BACKBONE|DICT|INTERRES
   205  104  105 1    
   206  104  225 1    
   207  105  106 1    
   208  105  107 1    
   209  105  226 1    
   210  106  227 1    
   211  106  228 1    
   212  106  229 1    
   213  107  108 2    
   214  107  109 am   BACKBONE|DICT|INTERRES
   215  109  110 1    
   216  109  230 1    
   217  110  111 1    
   218  110  112 1    
   219  110  231 1    
   220  111  232 1    
   221  111  233 1    
   222  111  234 1    
   223  112  113 2    
   224  112  114 am   BACKBONE|DICT|INTERRES
   225  114  115 1    
   226  114  235 1    
   227  115  116 1    
   228  115  117 1    
   229  115  236 1    
   230  116  237 1    
   231  116  238 1    
   232  116  239 1    
   233  117  118 2    
   234  117  119 am   BACKBONE|DICT|INTERRES
   235  119  120 1    
   236  119  240 1    
   237  120  121 1    
   238  120  124 1    
   239  120  241 1    
   240  121  122 am   BACKBONE|DICT|INTERRES
   241  121  123 2    
   242  122  242 1    
   243  122  243 1    
   244  124  125 1    
   245  124  244 1    
   246  124  245 1    
   247  125  126 1    
   248  126  246 1    
   249  126  247 1    
@<TRIPOS>SUBSTRUCTURE
     1 UNK         1 GROUP             0       ****    0 ROOT    
