@<TRIPOS>MOLECULE
3R540
247   249    1
SMALL
USER_CHARGES


@<TRIPOS>ATOM
      1 CA          0.7631  -13.7491  -52.3438 C.3       0 UNK        -0.1800 
      2 C           1.9432  -13.6458  -51.3885 C.2       0 UNK         0.5000 
      3 O           1.7689  -13.8453  -50.1886 O.2       0 UNK        -0.5000 
      4 N           3.1353  -13.3446  -51.9228 N.am      1 UNK        -0.5000 
      5 CA          4.4202  -13.1878  -51.2259 C.3       1 UNK         0.1400 
      6 C6          5.2052  -14.5218  -51.0224 C.3       23 UNK        -0.0398 
      7 S7          4.4265  -15.8014  -49.9696 S.3       23 UNK        -0.2404 
      8 C8          3.7323  -16.9015  -51.2380 C.3       23 UNK        -0.0205 
      9 C9          2.8073  -17.9429  -50.6309 C.ar      23 UNK        -0.0193 
     10 C10         1.4977  -17.5968  -50.2837 C.ar      23 UNK        -0.1150 
     11 C11         0.6194  -18.5613  -49.7826 C.ar      23 UNK        -0.0193 
     12 C12         1.0632  -19.8751  -49.6210 C.ar      23 UNK        -0.1150 
     13 C13         2.3782  -20.2284  -49.9365 C.ar      23 UNK        -0.0193 
     14 C14         3.2461  -19.2575  -50.4443 C.ar      23 UNK        -0.1150 
     15 C15         2.8471  -21.6657  -49.7612 C.3       23 UNK        -0.0205 
     16 S16         3.7503  -21.9396  -48.1977 S.3       23 UNK        -0.2404 
     17 C17         2.5069  -21.5618  -46.9125 C.3       23 UNK        -0.0398 
     18 CA          1.6986  -22.7930  -46.4326 C.3       11 UNK         0.1400 
     19 N           1.0565  -22.5447  -45.1410 N.am      11 UNK        -0.5000 
     20 C           0.5463  -23.4929  -44.3432 C.2       10 UNK         0.5000 
     21 O           0.6317  -24.6998  -44.5721 O.2       10 UNK        -0.5000 
     22 CA         -0.2264  -23.0003  -43.1038 C.3       10 UNK         0.1400 
     23 CB          0.7376  -22.6959  -41.9479 C.3       10 UNK        -0.1800 
     24 N          -1.0366  -21.8120  -43.3835 N.am      10 UNK        -0.5000 
     25 C          -2.1026  -21.8050  -44.1981 C.2       9 UNK         0.5000 
     26 O          -2.5428  -22.8131  -44.7465 O.2       9 UNK        -0.5000 
     27 CA         -2.7645  -20.4458  -44.4948 C.3       9 UNK         0.1400 
     28 CB         -3.8916  -20.1757  -43.4868 C.3       9 UNK        -0.1800 
     29 N          -1.8325  -19.3180  -44.4996 N.am      9 UNK        -0.5000 
     30 C          -0.7181  -19.2202  -45.2381 C.2       8 UNK         0.5000 
     31 O          -0.3930  -20.0520  -46.0846 O.2       8 UNK        -0.5000 
     32 CA          0.2251  -18.0359  -44.9524 C.3       8 UNK         0.1400 
     33 CB          0.1913  -17.0163  -46.0958 C.3       8 UNK        -0.1800 
     34 N          -0.0457  -17.3488  -43.6883 N.am      8 UNK        -0.5000 
     35 C           0.1339  -17.8744  -42.4678 C.2       7 UNK         0.5000 
     36 O           0.5170  -19.0283  -42.2688 O.2       7 UNK        -0.5000 
     37 CA         -0.2128  -16.9652  -41.2789 C.3       7 UNK         0.1400 
     38 CB          0.9031  -15.9367  -41.0355 C.3       7 UNK        -0.1800 
     39 N          -1.4762  -16.2662  -41.5127 N.am      7 UNK        -0.5000 
     40 C          -2.6819  -16.7532  -41.1888 C.2       6 UNK         0.5000 
     41 O          -2.8514  -17.8212  -40.6002 O.2       6 UNK        -0.5000 
     42 CA         -3.9106  -15.9139  -41.5954 C.3       6 UNK         0.1400 
     43 CB         -4.3077  -14.9583  -40.4601 C.3       6 UNK        -0.1800 
     44 N          -3.7116  -15.1404  -42.8233 N.am      6 UNK        -0.5000 
     45 C          -3.5537  -15.6789  -44.0401 C.2       5 UNK         0.5000 
     46 O          -3.5815  -16.8876  -44.2572 O.2       5 UNK        -0.5000 
     47 CA         -3.2660  -14.7124  -45.2049 C.3       5 UNK         0.1400 
     48 CB         -4.5753  -14.2638  -45.8704 C.3       5 UNK        -0.1800 
     49 N          -2.4778  -13.5294  -44.8373 N.am      5 UNK        -0.5000 
     50 C          -1.2775  -13.5492  -44.2414 C.2       4 UNK         0.5000 
     51 O          -0.7074  -14.5821  -43.8880 O.2       4 UNK        -0.5000 
     52 CA         -0.5987  -12.1838  -44.0392 C.3       4 UNK         0.1400 
     53 CB          0.7492  -12.2699  -43.2937 C.3       4 UNK        -0.1800 
     54 N          -0.4857  -11.3945  -45.2743 N.am      4 UNK        -0.5000 
     55 C           0.1205  -11.6495  -46.4477 C.2       3 UNK         0.5000 
     56 O           0.1066  -10.8068  -47.3460 O.2       3 UNK        -0.5000 
     57 CA          0.8209  -13.0015  -46.7319 C.3       3 UNK         0.1400 
     58 CB         -0.0517  -13.8581  -47.6652 C.3       3 UNK        -0.1800 
     59 N           2.1424  -12.8249  -47.3444 N.am      3 UNK        -0.5000 
     60 C           3.1795  -12.2081  -46.7542 C.2       2 UNK         0.5000 
     61 O           3.1170  -11.7160  -45.6269 O.2       2 UNK        -0.5000 
     62 CA          4.5255  -12.1408  -47.5045 C.3       2 UNK         0.1400 
     63 CB          5.6553  -12.7449  -46.6520 C.3       2 UNK        -0.1800 
     64 N           4.5107  -12.8371  -48.7883 N.am      2 UNK        -0.5000 
     65 C           4.3286  -12.2678  -49.9837 C.2       1 UNK         0.5000 
     66 O           4.1066  -11.0654  -50.1412 O.2       1 UNK        -0.5000 
     67 C           0.6502  -23.2349  -47.4714 C.2       11 UNK         0.5000 
     68 O           0.8809  -24.2049  -48.1926 O.2       11 UNK        -0.5000 
     69 N          -0.4979  -22.5411  -47.5048 N.am      12 UNK        -0.5000 
     70 CA         -1.6186  -22.8375  -48.3977 C.3       12 UNK         0.1400 
     71 CB         -2.7124  -21.7714  -48.2483 C.3       12 UNK        -0.1800 
     72 C          -2.1873  -24.2492  -48.1760 C.2       12 UNK         0.5000 
     73 O          -2.4058  -24.9642  -49.1503 O.2       12 UNK        -0.5000 
     74 N          -2.3488  -24.6536  -46.9082 N.am      13 UNK        -0.5000 
     75 CA         -2.7799  -25.9941  -46.5099 C.3       13 UNK         0.1400 
     76 CB         -2.9740  -26.0423  -44.9871 C.3       13 UNK        -0.1800 
     77 C          -1.8132  -27.1017  -46.9681 C.2       13 UNK         0.5000 
     78 O          -2.2713  -28.1471  -47.4296 O.2       13 UNK        -0.5000 
     79 N          -0.5009  -26.8412  -46.8764 N.am      14 UNK        -0.5000 
     80 CA          0.5536  -27.7345  -47.3633 C.3       14 UNK         0.1400 
     81 CB          1.9125  -27.2722  -46.8156 C.3       14 UNK        -0.1800 
     82 C           0.5813  -27.8351  -48.9017 C.2       14 UNK         0.5000 
     83 O           0.8250  -28.9169  -49.4371 O.2       14 UNK        -0.5000 
     84 N           0.2972  -26.7162  -49.5812 N.am      15 UNK        -0.5000 
     85 CA          0.1647  -26.6175  -51.0368 C.3       15 UNK         0.1400 
     86 CB          0.3363  -25.1445  -51.4441 C.3       15 UNK        -0.1800 
     87 C          -1.1692  -27.1772  -51.5803 C.2       15 UNK         0.5000 
     88 O          -1.3028  -27.3214  -52.7962 O.2       15 UNK        -0.5000 
     89 N          -2.1248  -27.4657  -50.6838 N.am      16 UNK        -0.5000 
     90 CA         -3.5055  -27.8908  -50.9379 C.3       16 UNK         0.1400 
     91 CB         -3.5466  -29.2714  -51.6259 C.3       16 UNK        -0.1800 
     92 C          -4.3328  -26.8115  -51.6712 C.2       16 UNK         0.5000 
     93 O          -5.1032  -27.1258  -52.5810 O.2       16 UNK        -0.5000 
     94 N          -4.1516  -25.5547  -51.2537 N.am      17 UNK        -0.5000 
     95 CA         -4.8274  -24.3641  -51.7589 C.3       17 UNK         0.1400 
     96 CB         -3.7653  -23.4445  -52.3876 C.3       17 UNK        -0.1800 
     97 C          -5.5484  -23.6370  -50.6102 C.2       17 UNK         0.5000 
     98 O          -5.3209  -23.9387  -49.4363 O.2       17 UNK        -0.5000 
     99 N          -6.3896  -22.6621  -50.9694 N.am      18 UNK        -0.5000 
    100 CA        -6.9572  -21.6888  -50.0379 C.3       18 UNK         0.1400 
    101 CB        -8.3254  -21.2306  -50.5670 C.3       18 UNK        -0.1800 
    102 C         -6.0071  -20.4864  -49.9214 C.2       18 UNK         0.5000 
    103 O         -5.3698  -20.1225  -50.9113 O.2       18 UNK        -0.5000 
    104 N         -5.9682  -19.8457  -48.7456 N.am      19 UNK        -0.5000 
    105 CA        -5.1357  -18.6639  -48.4794 C.3       19 UNK         0.1400 
    106 CB        -5.2165  -18.3121  -46.9875 C.3       19 UNK        -0.1800 
    107 C         -5.5035  -17.4383  -49.3427 C.2       19 UNK         0.5000 
    108 O         -4.6426  -16.6059  -49.6244 O.2       19 UNK        -0.5000 
    109 N         -6.7716  -17.3672  -49.7690 N.am      20 UNK        -0.5000 
    110 CA        -7.2934  -16.3496  -50.6804 C.3       20 UNK         0.1400 
    111 CB        -8.8220  -16.2974  -50.5303 C.3       20 UNK        -0.1800 
    112 C         -6.9077  -16.5906  -52.1550 C.2       20 UNK         0.5000 
    113 O         -7.0028  -15.6582  -52.9537 O.2       20 UNK        -0.5000 
    114 N         -6.4986  -17.8204  -52.5026 N.am      21 UNK        -0.5000 
    115 CA        -6.1149  -18.2096  -53.8627 C.3       21 UNK         0.1400 
    116 CB        -6.4529  -19.6949  -54.0761 C.3       21 UNK        -0.1800 
    117 C         -4.6279  -17.9396  -54.1658 C.2       21 UNK         0.5000 
    118 O         -4.2285  -18.0338  -55.3275 O.2       21 UNK        -0.5000 
    119 N         -3.8361  -17.6281  -53.1317 N.am      22 UNK        -0.5000 
    120 CA        -2.4048  -17.3046  -53.2145 C.3       22 UNK         0.1400 
    121 C         -2.1095  -16.0460  -54.0790 C.2       22 UNK         0.5000 
    122 N         -1.0361  -16.0590  -54.8578 N.am      22 UNK        -0.7600 
    123 O         -2.8163  -15.0427  -54.0144 O.2       22 UNK        -0.5000 
    124 C124       -1.7855  -17.1298  -51.8075 C.3       23 UNK        -0.0398 
    125 S125       -1.9647  -18.6085  -50.7562 S.3       23 UNK        -0.2404 
    126 C126       -0.8099  -18.1978  -49.4144 C.3       23 UNK        -0.0205 
    127 H127        0.3791  -14.7683  -52.3518 H         1 UNK         0.0600 
    128 H128        1.0395  -13.4823  -53.3639 H         1 UNK         0.0600 
    129 H129       -0.0394  -13.0848  -52.0234 H         1 UNK         0.0600 
    130 H130        3.1777  -13.1706  -52.9168 H         1 UNK         0.3000 
    131 H131        5.0253  -12.6100  -51.9266 H         1 UNK         0.0600 
    132 H132        5.4124  -14.9599  -51.9995 H         1 UNK         0.0800 
    133 H133        6.1897  -14.3058  -50.6039 H         1 UNK         0.0800 
    134 H134        3.1783  -16.3150  -51.9717 H         1 UNK         0.0800 
    135 H135        4.5467  -17.3829  -51.7815 H         1 UNK         0.0800 
    136 H136        1.1633  -16.5769  -50.4122 H         1 UNK         0.1150 
    137 H137        0.3795  -20.6214  -49.2448 H         1 UNK         0.1150 
    138 H138        4.2595  -19.5293  -50.7044 H         1 UNK         0.1150 
    139 H139        2.0032  -22.3517  -49.8317 H         1 UNK         0.0800 
    140 H140        3.5067  -21.9301  -50.5889 H         1 UNK         0.0800 
    141 H141        1.8565  -20.7491  -47.2301 H         1 UNK         0.0800 
    142 H142        3.0680  -21.1575  -46.0689 H         1 UNK         0.0800 
    143 H143        2.3960  -23.6223  -46.2943 H         1 UNK         0.0600 
    144 H144        0.8731  -21.5780  -44.9127 H         1 UNK         0.3000 
    145 H145       -0.8964  -23.8032  -42.7885 H         1 UNK         0.0600 
    146 H146        1.3467  -23.5681  -41.7069 H         1 UNK         0.0600 
    147 H147        1.4159  -21.8775  -42.1932 H         1 UNK         0.0600 
    148 H148        0.1939  -22.4193  -41.0444 H         1 UNK         0.0600 
    149 H149       -0.7259  -20.9385  -42.9773 H         1 UNK         0.3000 
    150 H150       -3.2032  -20.5059  -45.4901 H         1 UNK         0.0600 
    151 H151       -4.5818  -21.0188  -43.4344 H         1 UNK         0.0600 
    152 H152       -4.4770  -19.3020  -43.7708 H         1 UNK         0.0600 
    153 H153       -3.5007  -20.0064  -42.4827 H         1 UNK         0.0600 
    154 H154       -2.0681  -18.5421  -43.8950 H         1 UNK         0.3000 
    155 H155        1.2375  -18.4407  -44.8948 H         1 UNK         0.0600 
    156 H156        0.8354  -16.1637  -45.8806 H         1 UNK         0.0600 
    157 H157        0.5517  -17.4633  -47.0217 H         1 UNK         0.0600 
    158 H158       -0.8169  -16.6435  -46.2740 H         1 UNK         0.0600 
    159 H159       -0.3469  -16.3796  -43.7595 H         1 UNK         0.3000 
    160 H160       -0.2953  -17.5891  -40.3863 H         1 UNK         0.0600 
    161 H161        1.0500  -15.2826  -41.8958 H         1 UNK         0.0600 
    162 H162        1.8532  -16.4338  -40.8362 H         1 UNK         0.0600 
    163 H163        0.6775  -15.3088  -40.1735 H         1 UNK         0.0600 
    164 H164       -1.4242  -15.4136  -42.0553 H         1 UNK         0.3000 
    165 H165       -4.7385  -16.6059  -41.7644 H         1 UNK         0.0600 
    166 H166       -5.2235  -14.4182  -40.7009 H         1 UNK         0.0600 
    167 H167       -4.4890  -15.5059  -39.5342 H         1 UNK         0.0600 
    168 H168       -3.5262  -14.2242  -40.2597 H         1 UNK         0.0600 
    169 H169       -3.6729  -14.1362  -42.7310 H         1 UNK         0.3000 
    170 H170       -2.6922  -15.2712  -45.9450 H         1 UNK         0.0600 
    171 H171       -5.1791  -15.1222  -46.1680 H         1 UNK         0.0600 
    172 H172       -5.1803  -13.6544  -45.1981 H         1 UNK         0.0600 
    173 H173       -4.3802  -13.6807  -46.7706 H         1 UNK         0.0600 
    174 H174       -2.8663  -12.6355  -45.1024 H         1 UNK         0.3000 
    175 H175       -1.2720  -11.6177  -43.3939 H         1 UNK         0.0600 
    176 H176        1.4813  -12.8946  -43.8020 H         1 UNK         0.0600 
    177 H177        1.1908  -11.2817  -43.1643 H         1 UNK         0.0600 
    178 H178        0.6101  -12.6926  -42.2980 H         1 UNK         0.0600 
    179 H179       -0.9358  -10.4931  -45.2076 H         1 UNK         0.3000 
    180 H180        0.9819  -13.5638  -45.8164 H         1 UNK         0.0600 
    181 H181       -0.2885  -13.3300  -48.5895 H         1 UNK         0.0600 
    182 H182       -0.9978  -14.1197  -47.1949 H         1 UNK         0.0600 
    183 H183        0.4464  -14.7892  -47.9351 H         1 UNK         0.0600 
    184 H184        2.2444  -13.1680  -48.2947 H         1 UNK         0.3000 
    185 H185        4.7513  -11.0838  -47.6593 H         1 UNK         0.0600 
    186 H186        6.6163  -12.6699  -47.1613 H         1 UNK         0.0600 
    187 H187        5.7553  -12.2226  -45.6997 H         1 UNK         0.0600 
    188 H188        5.4733  -13.7977  -46.4323 H         1 UNK         0.0600 
    189 H189        4.6176  -13.8434  -48.7568 H         1 UNK         0.3000 
    190 H190       -0.5925  -21.7296  -46.8995 H         1 UNK         0.3000 
    191 H191       -1.2375  -22.7846  -49.4194 H         1 UNK         0.0600 
    192 H192       -3.2584  -21.8799  -47.3123 H         1 UNK         0.0600 
    193 H193       -3.4379  -21.8552  -49.0572 H         1 UNK         0.0600 
    194 H194       -2.3003  -20.7642  -48.2873 H         1 UNK         0.0600 
    195 H195       -2.2025  -23.9842  -46.1564 H         1 UNK         0.3000 
    196 H196       -3.7459  -26.1823  -46.9831 H         1 UNK         0.0600 
    197 H197       -3.2903  -27.0345  -44.6629 H         1 UNK         0.0600 
    198 H198       -3.7405  -25.3367  -44.6662 H         1 UNK         0.0600 
    199 H199       -2.0526  -25.7992  -44.4565 H         1 UNK         0.0600 
    200 H200       -0.2045  -25.9564  -46.4852 H         1 UNK         0.3000 
    201 H201        0.3553  -28.7339  -46.9702 H         1 UNK         0.0600 
    202 H202        1.9092  -27.2444  -45.7257 H         1 UNK         0.0600 
    203 H203        2.1780  -26.2775  -47.1732 H         1 UNK         0.0600 
    204 H204        2.7075  -27.9529  -47.1221 H         1 UNK         0.0600 
    205 H205        0.1768  -25.8535  -49.0587 H         1 UNK         0.3000 
    206 H206        0.9707  -27.1929  -51.4964 H         1 UNK         0.0600 
    207 H207        1.2893  -24.7460  -51.0954 H         1 UNK         0.0600 
    208 H208        0.3136  -25.0319  -52.5286 H         1 UNK         0.0600 
    209 H209       -0.4573  -24.5197  -51.0341 H         1 UNK         0.0600 
    210 H210       -1.9132  -27.2576  -49.7169 H         1 UNK         0.3000 
    211 H211       -3.9663  -28.0040  -49.9555 H         1 UNK         0.0600 
    212 H212       -3.1602  -29.2315  -52.6445 H         1 UNK         0.0600 
    213 H213       -4.5683  -29.6488  -51.6800 H         1 UNK         0.0600 
    214 H214       -2.9597  -30.0043  -51.0722 H         1 UNK         0.0600 
    215 H215       -3.5348  -25.3882  -50.4579 H         1 UNK         0.3000 
    216 H216       -5.5695  -24.6298  -52.5143 H         1 UNK         0.0600 
    217 H217       -4.2145  -22.5420  -52.8040 H         1 UNK         0.0600 
    218 H218       -3.2394  -23.9491  -53.1983 H         1 UNK         0.0600 
    219 H219       -3.0218  -23.1313  -51.6529 H         1 UNK         0.0600 
    220 H220       -6.4863  -22.4397  -51.9493 H         1 UNK         0.3000 
    221 H221       -7.0942  -22.1402  -49.0529 H         1 UNK         0.0600 
    222 H222       -8.2424  -20.7459  -51.5407 H         1 UNK         0.0600 
    223 H223       -9.0086  -22.0738  -50.6708 H         1 UNK         0.0600 
    224 H224       -8.7913  -20.5187  -49.8846 H         1 UNK         0.0600 
    225 H225       -6.5296  -20.1851  -47.9777 H         1 UNK         0.3000 
    226 H226       -4.1022  -18.9293  -48.7078 H         1 UNK         0.0600 
    227 H227       -4.9359  -19.1591  -46.3634 H         1 UNK         0.0600 
    228 H228       -4.5352  -17.4954  -46.7473 H         1 UNK         0.0600 
    229 H229       -6.2207  -18.0003  -46.6981 H         1 UNK         0.0600 
    230 H230       -7.4148  -18.0882  -49.4786 H         1 UNK         0.3000 
    231 H231       -6.8885  -15.3781  -50.3892 H         1 UNK         0.0600 
    232 H232       -9.2521  -15.5254  -51.1699 H         1 UNK         0.0600 
    233 H233       -9.1103  -16.0646  -49.5050 H         1 UNK         0.0600 
    234 H234       -9.2861  -17.2460  -50.8036 H         1 UNK         0.0600 
    235 H235       -6.3760  -18.5281  -51.7879 H         1 UNK         0.3000 
    236 H236       -6.7018  -17.6321  -54.5800 H         1 UNK         0.0600 
    237 H237       -7.5001  -19.8992  -53.8535 H         1 UNK         0.0600 
    238 H238       -6.2799  -19.9866  -55.1126 H         1 UNK         0.0600 
    239 H239       -5.8403  -20.3448  -53.4519 H         1 UNK         0.0600 
    240 H240       -4.2445  -17.5860  -52.2095 H         1 UNK         0.3000 
    241 H241       -1.9192  -18.1584  -53.6912 H         1 UNK         0.0600 
    242 H242       -0.4415  -16.8701  -54.9289 H         1 UNK         0.3800 
    243 H243       -0.8284  -15.2452  -55.4152 H         1 UNK         0.3800 
    244 H244       -0.7226  -16.9061  -51.8990 H         1 UNK         0.0800 
    245 H245       -2.2384  -16.2819  -51.2898 H         1 UNK         0.0800 
    246 H246       -0.8901  -17.1384  -49.1651 H         1 UNK         0.0800 
    247 H247       -1.1030  -18.7417  -48.5159 H         1 UNK         0.0800 
@<TRIPOS>BOND
     1    1    2 1    
     2    1  127 1    
     3    1  128 1    
     4    1  129 1    
     5    2    3 2    
     6    2    4 am   BACKBONE|DICT|INTERRES
     7    4    5 1    
     8    4  130 1    
     9    5    6 1    
    10    5   65 1    
    11    5  131 1    
    12    6    7 1    
    13    6  132 1    
    14    6  133 1    
    15    7    8 1    
    16    8    9 1    
    17    8  134 1    
    18    8  135 1    
    19    9   10 ar   
    20    9   14 ar   
    21   10   11 ar   
    22   10  136 1    
    23   11   12 ar   
    24   11  126 1    
    25   12   13 ar   
    26   12  137 1    
    27   13   14 ar   
    28   13   15 1    
    29   14  138 1    
    30   15   16 1    
    31   15  139 1    
    32   15  140 1    
    33   16   17 1    
    34   17   18 1    
    35   17  141 1    
    36   17  142 1    
    37   18   19 1    
    38   18   67 1    
    39   18  143 1    
    40   19   20 am   BACKBONE|DICT|INTERRES
    41   19  144 1    
    42   20   21 2    
    43   20   22 1    
    44   22   23 1    
    45   22   24 1    
    46   22  145 1    
    47   23  146 1    
    48   23  147 1    
    49   23  148 1    
    50   24   25 am   BACKBONE|DICT|INTERRES
    51   24  149 1    
    52   25   26 2    
    53   25   27 1    
    54   27   28 1    
    55   27   29 1    
    56   27  150 1    
    57   28  151 1    
    58   28  152 1    
    59   28  153 1    
    60   29   30 am   BACKBONE|DICT|INTERRES
    61   29  154 1    
    62   30   31 2    
    63   30   32 1    
    64   32   33 1    
    65   32   34 1    
    66   32  155 1    
    67   33  156 1    
    68   33  157 1    
    69   33  158 1    
    70   34   35 am   BACKBONE|DICT|INTERRES
    71   34  159 1    
    72   35   36 2    
    73   35   37 1    
    74   37   38 1    
    75   37   39 1    
    76   37  160 1    
    77   38  161 1    
    78   38  162 1    
    79   38  163 1    
    80   39   40 am   BACKBONE|DICT|INTERRES
    81   39  164 1    
    82   40   41 2    
    83   40   42 1    
    84   42   43 1    
    85   42   44 1    
    86   42  165 1    
    87   43  166 1    
    88   43  167 1    
    89   43  168 1    
    90   44   45 am   BACKBONE|DICT|INTERRES
    91   44  169 1    
    92   45   46 2    
    93   45   47 1    
    94   47   48 1    
    95   47   49 1    
    96   47  170 1    
    97   48  171 1    
    98   48  172 1    
    99   48  173 1    
   100   49   50 am   BACKBONE|DICT|INTERRES
   101   49  174 1    
   102   50   51 2    
   103   50   52 1    
   104   52   53 1    
   105   52   54 1    
   106   52  175 1    
   107   53  176 1    
   108   53  177 1    
   109   53  178 1    
   110   54   55 am   BACKBONE|DICT|INTERRES
   111   54  179 1    
   112   55   56 2    
   113   55   57 1    
   114   57   58 1    
   115   57   59 1    
   116   57  180 1    
   117   58  181 1    
   118   58  182 1    
   119   58  183 1    
   120   59   60 am   BACKBONE|DICT|INTERRES
   121   59  184 1    
   122   60   61 2    
   123   60   62 1    
   124   62   63 1    
   125   62   64 1    
   126   62  185 1    
   127   63  186 1    
   128   63  187 1    
   129   63  188 1    
   130   64   65 am   BACKBONE|DICT|INTERRES
   131   64  189 1    
   132   65   66 2    
   133   67   68 2    
   134   67   69 am   BACKBONE|DICT|INTERRES
   135   69   70 1    
   136   69  190 1    
   137   70   71 1    
   138   70   72 1    
   139   70  191 1    
   140   71  192 1    
   141   71  193 1    
   142   71  194 1    
   143   72   73 2    
   144   72   74 am   BACKBONE|DICT|INTERRES
   145   74   75 1    
   146   74  195 1    
   147   75   76 1    
   148   75   77 1    
   149   75  196 1    
   150   76  197 1    
   151   76  198 1    
   152   76  199 1    
   153   77   78 2    
   154   77   79 am   BACKBONE|DICT|INTERRES
   155   79   80 1    
   156   79  200 1    
   157   80   81 1    
   158   80   82 1    
   159   80  201 1    
   160   81  202 1    
   161   81  203 1    
   162   81  204 1    
   163   82   83 2    
   164   82   84 am   BACKBONE|DICT|INTERRES
   165   84   85 1    
   166   84  205 1    
   167   85   86 1    
   168   85   87 1    
   169   85  206 1    
   170   86  207 1    
   171   86  208 1    
   172   86  209 1    
   173   87   88 2    
   174   87   89 am   BACKBONE|DICT|INTERRES
   175   89   90 1    
   176   89  210 1    
   177   90   91 1    
   178   90   92 1    
   179   90  211 1    
   180   91  212 1    
   181   91  213 1    
   182   91  214 1    
   183   92   93 2    
   184   92   94 am   BACKBONE|DICT|INTERRES
   185   94   95 1    
   186   94  215 1    
   187   95   96 1    
   188   95   97 1    
   189   95  216 1    
   190   96  217 1    
   191   96  218 1    
   192   96  219 1    
   193   97   98 2    
   194   97   99 am   BACKBONE|DICT|INTERRES
   195   99  100 1    
   196   99  220 1    
   197  100  101 1    
   198  100  102 1    
   199  100  221 1    
   200  101  222 1    
   201  101  223 1    
   202  101  224 1    
   203  102  103 2    
   204  102  104 am   BACKBONE|DICT|INTERRES
   205  104  105 1    
   206  104  225 1    
   207  105  106 1    
   208  105  107 1    
   209  105  226 1    
   210  106  227 1    
   211  106  228 1    
   212  106  229 1    
   213  107  108 2    
   214  107  109 am   BACKBONE|DICT|INTERRES
   215  109  110 1    
   216  109  230 1    
   217  110  111 1    
   218  110  112 1    
   219  110  231 1    
   220  111  232 1    
   221  111  233 1    
   222  111  234 1    
   223  112  113 2    
   224  112  114 am   BACKBONE|DICT|INTERRES
   225  114  115 1    
   226  114  235 1    
   227  115  116 1    
   228  115  117 1    
   229  115  236 1    
   230  116  237 1    
   231  116  238 1    
   232  116  239 1    
   233  117  118 2    
   234  117  119 am   BACKBONE|DICT|INTERRES
   235  119  120 1    
   236  119  240 1    
   237  120  121 1    
   238  120  124 1    
   239  120  241 1    
   240  121  122 am   BACKBONE|DICT|INTERRES
   241  121  123 2    
   242  122  242 1    
   243  122  243 1    
   244  124  125 1    
   245  124  244 1    
   246  124  245 1    
   247  125  126 1    
   248  126  246 1    
   249  126  247 1    
@<TRIPOS>SUBSTRUCTURE
     1 UNK         1 GROUP             0       ****    0 ROOT    
