@<TRIPOS>MOLECULE
3R540
247   249    1
SMALL
USER_CHARGES


@<TRIPOS>ATOM
      1 CA          1.4912  -11.4805  -45.1773 C.3       0 UNK        -0.1800 
      2 C           2.0079  -12.3014  -46.3497 C.2       0 UNK         0.5000 
      3 O           2.6887  -11.7643  -47.2241 O.2       0 UNK        -0.5000 
      4 N           1.6673  -13.5930  -46.3721 N.am      1 UNK        -0.5000 
      5 CA          2.0110  -14.6378  -47.3407 C.3       1 UNK         0.1400 
      6 C6          3.5194  -15.0118  -47.3495 C.3       23 UNK        -0.0398 
      7 S7          3.7665  -16.8181  -47.3329 S.3       23 UNK        -0.2404 
      8 C8          3.8325  -17.2208  -49.1078 C.3       23 UNK        -0.0205 
      9 C9          3.0178  -18.4698  -49.4096 C.ar      23 UNK        -0.0193 
     10 C10         1.7660  -18.3686  -50.0232 C.ar      23 UNK        -0.1150 
     11 C11         1.0010  -19.5104  -50.2867 C.ar      23 UNK        -0.0193 
     12 C12         1.5014  -20.7622  -49.9135 C.ar      23 UNK        -0.1150 
     13 C13         2.7417  -20.8777  -49.2792 C.ar      23 UNK        -0.0193 
     14 C14         3.5053  -19.7291  -49.0521 C.ar      23 UNK        -0.1150 
     15 C15         3.2397  -22.2366  -48.8089 C.3       23 UNK        -0.0205 
     16 S16         3.3638  -22.2845  -46.9927 S.3       23 UNK        -0.2404 
     17 C17         3.2151  -24.0708  -46.6346 C.3       23 UNK        -0.0398 
     18 CA          1.8405  -24.4883  -46.0482 C.3       11 UNK         0.1400 
     19 N           1.4249  -23.6416  -44.9231 N.am      11 UNK        -0.5000 
     20 C           1.4955  -23.9900  -43.6316 C.2       10 UNK         0.5000 
     21 O           1.8806  -25.0940  -43.2439 O.2       10 UNK        -0.5000 
     22 CA          1.0806  -22.9372  -42.5807 C.3       10 UNK         0.1400 
     23 CB          2.3247  -22.2581  -41.9882 C.3       10 UNK        -0.1800 
     24 N           0.1826  -21.9027  -43.0950 N.am      10 UNK        -0.5000 
     25 C          -1.0866  -22.1071  -43.4733 C.2       9 UNK         0.5000 
     26 O          -1.6584  -23.1926  -43.3712 O.2       9 UNK        -0.5000 
     27 CA         -1.8428  -20.9192  -44.1071 C.3       9 UNK         0.1400 
     28 CB         -2.8244  -20.3006  -43.1012 C.3       9 UNK        -0.1800 
     29 N          -1.0059  -19.8493  -44.6641 N.am      9 UNK        -0.5000 
     30 C          -0.0430  -20.0061  -45.5835 C.2       8 UNK         0.5000 
     31 O           0.3057  -21.1004  -46.0218 O.2       8 UNK        -0.5000 
     32 CA          0.6735  -18.7360  -46.0634 C.3       8 UNK         0.1400 
     33 CB         -0.1658  -18.0383  -47.1437 C.3       8 UNK        -0.1800 
     34 N           0.9701  -17.8007  -44.9755 N.am      8 UNK        -0.5000 
     35 C           1.7621  -18.0628  -43.9258 C.2       7 UNK         0.5000 
     36 O           2.3448  -19.1353  -43.7660 O.2       7 UNK        -0.5000 
     37 CA          1.8995  -16.9755  -42.8397 C.3       7 UNK         0.1400 
     38 CB          3.0303  -15.9835  -43.1797 C.3       7 UNK        -0.1800 
     39 N           0.6360  -16.2954  -42.5144 N.am      7 UNK        -0.5000 
     40 C          -0.0464  -15.4212  -43.2628 C.2       6 UNK         0.5000 
     41 O           0.3540  -14.9815  -44.3414 O.2       6 UNK        -0.5000 
     42 CA         -1.4281  -14.9902  -42.7387 C.3       6 UNK         0.1400 
     43 CB         -1.3241  -13.6531  -41.9903 C.3       6 UNK        -0.1800 
     44 N          -2.3855  -14.8464  -43.8355 N.am      6 UNK        -0.5000 
     45 C          -2.7477  -15.8245  -44.6793 C.2       5 UNK         0.5000 
     46 O          -2.4263  -17.0052  -44.5273 O.2       5 UNK        -0.5000 
     47 CA         -3.5979  -15.4152  -45.9027 C.3       5 UNK         0.1400 
     48 CB         -5.0646  -15.8291  -45.7050 C.3       5 UNK        -0.1800 
     49 N          -3.5489  -13.9784  -46.1985 N.am      5 UNK        -0.5000 
     50 C          -2.4836  -13.3378  -46.6985 C.2       4 UNK         0.5000 
     51 O          -1.4321  -13.8939  -47.0170 O.2       4 UNK        -0.5000 
     52 CA         -2.6007  -11.8116  -46.8081 C.3       4 UNK         0.1400 
     53 CB         -2.5442  -11.1651  -45.4086 C.3       4 UNK        -0.1800 
     54 N          -1.5101  -11.3056  -47.6364 N.am      4 UNK        -0.5000 
     55 C          -1.4603  -10.0962  -48.2076 C.2       3 UNK         0.5000 
     56 O          -2.3650   -9.2655  -48.1142 O.2       3 UNK        -0.5000 
     57 CA         -0.1942   -9.7328  -49.0074 C.3       3 UNK         0.1400 
     58 CB          0.6795   -8.7465  -48.2159 C.3       3 UNK        -0.1800 
     59 N           0.6180  -10.8982  -49.3573 N.am      3 UNK        -0.5000 
     60 C           0.4610  -11.6246  -50.4734 C.2       2 UNK         0.5000 
     61 O          -0.3920  -11.3843  -51.3290 O.2       2 UNK        -0.5000 
     62 CA          1.4208  -12.8107  -50.6771 C.3       2 UNK         0.1400 
     63 CB          2.6131  -12.3922  -51.5495 C.3       2 UNK        -0.1800 
     64 N           1.9222  -13.3101  -49.3996 N.am      2 UNK        -0.5000 
     65 C           1.4512  -14.3823  -48.7565 C.2       1 UNK         0.5000 
     66 O           0.6161  -15.1475  -49.2347 O.2       1 UNK        -0.5000 
     67 C           0.7485  -24.5712  -47.1310 C.2       11 UNK         0.5000 
     68 O           0.6002  -25.6211  -47.7580 O.2       11 UNK        -0.5000 
     69 N          -0.0292  -23.4963  -47.3197 N.am      12 UNK        -0.5000 
     70 CA         -1.0930  -23.3973  -48.3187 C.3       12 UNK         0.1400 
     71 CB         -1.6141  -21.9595  -48.3605 C.3       12 UNK        -0.1800 
     72 C          -2.2651  -24.3622  -48.0789 C.2       12 UNK         0.5000 
     73 O          -2.9399  -24.7352  -49.0385 O.2       12 UNK        -0.5000 
     74 N          -2.4833  -24.7537  -46.8168 N.am      13 UNK        -0.5000 
     75 CA         -3.4731  -25.7555  -46.4244 C.3       13 UNK         0.1400 
     76 CB         -3.6622  -25.7094  -44.9011 C.3       13 UNK        -0.1800 
     77 C          -3.0793  -27.1712  -46.8856 C.2       13 UNK         0.5000 
     78 O          -3.9446  -27.9296  -47.3224 O.2       13 UNK        -0.5000 
     79 N          -1.7777  -27.4862  -46.8149 N.am      14 UNK        -0.5000 
     80 CA         -1.2026  -28.7492  -47.2809 C.3       14 UNK         0.1400 
     81 CB          0.1721  -28.9572  -46.6272 C.3       14 UNK        -0.1800 
     82 C          -1.0944  -28.7980  -48.8150 C.2       14 UNK         0.5000 
     83 O          -1.3290  -29.8505  -49.4093 O.2       14 UNK        -0.5000 
     84 N          -0.7739  -27.6498  -49.4282 N.am      15 UNK        -0.5000 
     85 CA         -0.7138  -27.4624  -50.8802 C.3       15 UNK         0.1400 
     86 CB          0.0562  -26.1667  -51.1778 C.3       15 UNK        -0.1800 
     87 C          -2.1000  -27.4238  -51.5581 C.2       15 UNK         0.5000 
     88 O          -2.1689  -27.5314  -52.7827 O.2       15 UNK        -0.5000 
     89 N          -3.1641  -27.2509  -50.7590 N.am      16 UNK        -0.5000 
     90 CA         -4.5694  -27.0959  -51.1510 C.3       16 UNK         0.1400 
     91 CB         -5.0976  -28.3614  -51.8582 C.3       16 UNK        -0.1800 
     92 C          -4.8369  -25.7965  -51.9426 C.2       16 UNK         0.5000 
     93 O          -5.7453  -25.7505  -52.7747 O.2       16 UNK        -0.5000 
     94 N          -4.0494  -24.7544  -51.6467 N.am      17 UNK        -0.5000 
     95 CA         -4.1974  -23.4022  -52.1858 C.3       17 UNK         0.1400 
     96 CB         -2.8076  -22.7517  -52.2780 C.3       17 UNK        -0.1800 
     97 C          -5.1500  -22.5402  -51.3337 C.2       17 UNK         0.5000 
     98 O          -5.6258  -21.5139  -51.8182 O.2       17 UNK        -0.5000 
     99 N          -5.4026  -22.9593  -50.0809 N.am      18 UNK        -0.5000 
    100 CA        -6.3276  -22.3562  -49.1072 C.3       18 UNK         0.1400 
    101 CB        -7.7839  -22.4163  -49.6206 C.3       18 UNK        -0.1800 
    102 C         -5.9275  -20.9392  -48.6363 C.2       18 UNK         0.5000 
    103 O         -6.7628  -20.2142  -48.0939 O.2       18 UNK        -0.5000 
    104 N         -4.6505  -20.5831  -48.8332 N.am      19 UNK        -0.5000 
    105 CA        -3.9391  -19.3658  -48.4196 C.3       19 UNK         0.1400 
    106 CB        -3.9780  -19.1960  -46.8918 C.3       19 UNK        -0.1800 
    107 C         -4.3827  -18.0811  -49.1400 C.2       19 UNK         0.5000 
    108 O         -3.5314  -17.3564  -49.6525 O.2       19 UNK        -0.5000 
    109 N         -5.6972  -17.8376  -49.1951 N.am      20 UNK        -0.5000 
    110 CA        -6.3349  -16.6505  -49.7730 C.3       20 UNK         0.1400 
    111 CB        -7.8359  -16.6889  -49.4414 C.3       20 UNK        -0.1800 
    112 C         -6.1181  -16.4768  -51.2909 C.2       20 UNK         0.5000 
    113 O         -6.3117  -15.3728  -51.8020 O.2       20 UNK        -0.5000 
    114 N         -5.7201  -17.5533  -51.9851 N.am      21 UNK        -0.5000 
    115 CA        -5.3452  -17.5378  -53.3994 C.3       21 UNK         0.1400 
    116 CB        -5.2641  -18.9833  -53.9135 C.3       21 UNK        -0.1800 
    117 C         -4.0167  -16.8029  -53.6706 C.2       21 UNK         0.5000 
    118 O         -3.8301  -16.3016  -54.7811 O.2       21 UNK        -0.5000 
    119 N         -3.1204  -16.7586  -52.6745 N.am      22 UNK        -0.5000 
    120 CA        -1.8287  -16.0647  -52.7552 C.3       22 UNK         0.1400 
    121 C         -1.9607  -14.5760  -52.3389 C.2       22 UNK         0.5000 
    122 N         -1.2362  -13.6807  -52.9961 N.am      22 UNK        -0.7600 
    123 O         -2.6738  -14.2277  -51.4008 O.2       22 UNK        -0.5000 
    124 C124       -0.7388  -16.7680  -51.9095 C.3       23 UNK        -0.0398 
    125 S125       -0.4022  -18.4718  -52.4832 S.3       23 UNK        -0.2404 
    126 C126       -0.3859  -19.4059  -50.9185 C.3       23 UNK        -0.0205 
    127 H127        2.3113  -10.9378  -44.7075 H         1 UNK         0.0600 
    128 H128        1.0236  -12.1108  -44.4201 H         1 UNK         0.0600 
    129 H129        0.7519  -10.7572  -45.5194 H         1 UNK         0.0600 
    130 H130        1.0751  -13.9450  -45.6199 H         1 UNK         0.3000 
    131 H131        1.4554  -15.4905  -46.9524 H         1 UNK         0.0600 
    132 H132        4.0667  -14.5591  -48.1780 H         1 UNK         0.0800 
    133 H133        4.0028  -14.6333  -46.4479 H         1 UNK         0.0800 
    134 H134        3.4687  -16.3838  -49.7050 H         1 UNK         0.0800 
    135 H135        4.8713  -17.3771  -49.4015 H         1 UNK         0.0800 
    136 H136        1.3816  -17.3947  -50.2822 H         1 UNK         0.1150 
    137 H137        0.9130  -21.6503  -50.0941 H         1 UNK         0.1150 
    138 H138        4.4633  -19.8120  -48.5580 H         1 UNK         0.1150 
    139 H139        2.5679  -23.0249  -49.1519 H         1 UNK         0.0800 
    140 H140        4.2169  -22.4437  -49.2469 H         1 UNK         0.0800 
    141 H141        3.9920  -24.3142  -45.9089 H         1 UNK         0.0800 
    142 H142        3.4588  -24.6555  -47.5237 H         1 UNK         0.0800 
    143 H143        1.9507  -25.5158  -45.6953 H         1 UNK         0.0600 
    144 H144        1.1174  -22.7037  -45.1596 H         1 UNK         0.3000 
    145 H145        0.5630  -23.4639  -41.7764 H         1 UNK         0.0600 
    146 H146        2.0547  -21.5527  -41.2022 H         1 UNK         0.0600 
    147 H147        2.9996  -22.9930  -41.5475 H         1 UNK         0.0600 
    148 H148        2.8844  -21.7139  -42.7501 H         1 UNK         0.0600 
    149 H149        0.5884  -20.9901  -43.2504 H         1 UNK         0.3000 
    150 H150       -2.4205  -21.3386  -44.9314 H         1 UNK         0.0600 
    151 H151       -3.4863  -21.0582  -42.6796 H         1 UNK         0.0600 
    152 H152       -3.4549  -19.5492  -43.5776 H         1 UNK         0.0600 
    153 H153       -2.2999  -19.8221  -42.2733 H         1 UNK         0.0600 
    154 H154       -1.2472  -18.9041  -44.3889 H         1 UNK         0.3000 
    155 H155        1.6191  -19.0476  -46.5128 H         1 UNK         0.0600 
    156 H156       -0.5602  -18.7572  -47.8612 H         1 UNK         0.0600 
    157 H157        0.4355  -17.3309  -47.7086 H         1 UNK         0.0600 
    158 H158       -1.0124  -17.4972  -46.7240 H         1 UNK         0.0600 
    159 H159        0.5363  -16.8855  -45.0190 H         1 UNK         0.3000 
    160 H160        2.1913  -17.4902  -41.9227 H         1 UNK         0.0600 
    161 H161        2.8716  -15.4881  -44.1377 H         1 UNK         0.0600 
    162 H162        3.9881  -16.5009  -43.2446 H         1 UNK         0.0600 
    163 H163        3.1263  -15.2141  -42.4137 H         1 UNK         0.0600 
    164 H164        0.2097  -16.6013  -41.6507 H         1 UNK         0.3000 
    165 H165       -1.8074  -15.7535  -42.0562 H         1 UNK         0.0600 
    166 H166       -2.2911  -13.3476  -41.5900 H         1 UNK         0.0600 
    167 H167       -0.6338  -13.7285  -41.1490 H         1 UNK         0.0600 
    168 H168       -0.9625  -12.8553  -42.6407 H         1 UNK         0.0600 
    169 H169       -2.6792  -13.9074  -44.0529 H         1 UNK         0.3000 
    170 H170       -3.2019  -15.9551  -46.7657 H         1 UNK         0.0600 
    171 H171       -5.1452  -16.8782  -45.4210 H         1 UNK         0.0600 
    172 H172       -5.5447  -15.2452  -44.9190 H         1 UNK         0.0600 
    173 H173       -5.6382  -15.6972  -46.6227 H         1 UNK         0.0600 
    174 H174       -4.3750  -13.4465  -45.9644 H         1 UNK         0.3000 
    175 H175       -3.5521  -11.5745  -47.2887 H         1 UNK         0.0600 
    176 H176       -1.6142  -11.4074  -44.8931 H         1 UNK         0.0600 
    177 H177       -2.6203  -10.0792  -45.4644 H         1 UNK         0.0600 
    178 H178       -3.3665  -11.5081  -44.7800 H         1 UNK         0.0600 
    179 H179       -0.7730  -11.9783  -47.8054 H         1 UNK         0.3000 
    180 H180       -0.5204   -9.2295  -49.9201 H         1 UNK         0.0600 
    181 H181        1.0576   -9.1885  -47.2944 H         1 UNK         0.0600 
    182 H182        0.1158   -7.8529  -47.9445 H         1 UNK         0.0600 
    183 H183        1.5368   -8.4211  -48.8056 H         1 UNK         0.0600 
    184 H184        1.3498  -11.1501  -48.7040 H         1 UNK         0.3000 
    185 H185        0.8771  -13.5974  -51.2015 H         1 UNK         0.0600 
    186 H186        2.2764  -12.0252  -52.5198 H         1 UNK         0.0600 
    187 H187        3.1970  -11.5990  -51.0817 H         1 UNK         0.0600 
    188 H188        3.2793  -13.2350  -51.7340 H         1 UNK         0.0600 
    189 H189        2.5615  -12.7091  -48.8885 H         1 UNK         0.3000 
    190 H190        0.1630  -22.6418  -46.7980 H         1 UNK         0.3000 
    191 H191       -0.6556  -23.6284  -49.2902 H         1 UNK         0.0600 
    192 H192       -0.8059  -21.2400  -48.4744 H         1 UNK         0.0600 
    193 H193       -2.2868  -21.8238  -49.2044 H         1 UNK         0.0600 
    194 H194       -2.1560  -21.7049  -47.4495 H         1 UNK         0.0600 
    195 H195       -1.8943  -24.3803  -46.0865 H         1 UNK         0.3000 
    196 H196       -4.4254  -25.5019  -46.8952 H         1 UNK         0.0600 
    197 H197       -4.4077  -26.4368  -44.5773 H         1 UNK         0.0600 
    198 H198       -4.0046  -24.7264  -44.5767 H         1 UNK         0.0600 
    199 H199       -2.7345  -25.9298  -44.3714 H         1 UNK         0.0600 
    200 H200       -1.1254  -26.7868  -46.4915 H         1 UNK         0.3000 
    201 H201       -1.8543  -29.5664  -46.9646 H         1 UNK         0.0600 
    202 H202        0.0938  -28.9683  -45.5401 H         1 UNK         0.0600 
    203 H203        0.8772  -28.1733  -46.9045 H         1 UNK         0.0600 
    204 H204        0.6066  -29.9103  -46.9314 H         1 UNK         0.0600 
    205 H205       -0.5145  -26.8533  -48.8547 H         1 UNK         0.3000 
    206 H206       -0.1584  -28.2982  -51.3104 H         1 UNK         0.0600 
    207 H207        1.0295  -26.1587  -50.6870 H         1 UNK         0.0600 
    208 H208        0.2301  -26.0542  -52.2484 H         1 UNK         0.0600 
    209 H209       -0.4970  -25.2894  -50.8455 H         1 UNK         0.0600 
    210 H210       -2.9800  -27.1405  -49.7717 H         1 UNK         0.3000 
    211 H211       -5.1244  -26.9920  -50.2175 H         1 UNK         0.0600 
    212 H212       -4.6523  -28.4929  -52.8445 H         1 UNK         0.0600 
    213 H213       -6.1782  -28.3097  -51.9941 H         1 UNK         0.0600 
    214 H214       -4.8879  -29.2565  -51.2725 H         1 UNK         0.0600 
    215 H215       -3.3757  -24.8724  -50.8951 H         1 UNK         0.3000 
    216 H216       -4.6158  -23.4517  -53.1936 H         1 UNK         0.0600 
    217 H217       -2.8762  -21.7196  -52.6256 H         1 UNK         0.0600 
    218 H218       -2.1726  -23.2893  -52.9828 H         1 UNK         0.0600 
    219 H219       -2.2977  -22.7456  -51.3156 H         1 UNK         0.0600 
    220 H220       -4.9229  -23.7940  -49.7668 H         1 UNK         0.3000 
    221 H221       -6.2712  -22.9865  -48.2164 H         1 UNK         0.0600 
    222 H222       -7.9449  -21.7445  -50.4663 H         1 UNK         0.0600 
    223 H223       -8.0498  -23.4250  -49.9376 H         1 UNK         0.0600 
    224 H224       -8.4885  -22.1297  -48.8386 H         1 UNK         0.0600 
    225 H225       -4.0923  -21.2493  -49.3442 H         1 UNK         0.3000 
    226 H226       -2.8970  -19.5203  -48.6961 H         1 UNK         0.0600 
    227 H227       -3.6609  -20.1062  -46.3869 H         1 UNK         0.0600 
    228 H228       -3.3077  -18.3987  -46.5749 H         1 UNK         0.0600 
    229 H229       -4.9777  -18.9523  -46.5328 H         1 UNK         0.0600 
    230 H230       -6.3104  -18.5282  -48.7684 H         1 UNK         0.3000 
    231 H231       -5.8982  -15.7749  -49.2852 H         1 UNK         0.0600 
    232 H232       -8.3203  -17.5644  -49.8793 H         1 UNK         0.0600 
    233 H233       -8.3479  -15.8030  -49.8237 H         1 UNK         0.0600 
    234 H234       -7.9994  -16.7167  -48.3635 H         1 UNK         0.0600 
    235 H235       -5.6058  -18.4278  -51.4931 H         1 UNK         0.3000 
    236 H236       -6.1311  -17.0212  -53.9555 H         1 UNK         0.0600 
    237 H237       -6.2106  -19.5065  -53.7744 H         1 UNK         0.0600 
    238 H238       -5.0338  -19.0075  -54.9798 H         1 UNK         0.0600 
    239 H239       -4.4866  -19.5496  -53.3977 H         1 UNK         0.0600 
    240 H240       -3.3711  -17.1137  -51.7589 H         1 UNK         0.3000 
    241 H241       -1.4891  -16.0882  -53.7930 H         1 UNK         0.0600 
    242 H242       -1.2507  -12.7206  -52.6730 H         1 UNK         0.3800 
    243 H243       -0.6548  -13.9339  -53.7801 H         1 UNK         0.3800 
    244 H244        0.1989  -16.2124  -51.9662 H         1 UNK         0.0800 
    245 H245       -1.0243  -16.7703  -50.8561 H         1 UNK         0.0800 
    246 H246       -0.7757  -20.4023  -51.1300 H         1 UNK         0.0800 
    247 H247       -1.0788  -18.9587  -50.2070 H         1 UNK         0.0800 
@<TRIPOS>BOND
     1    1    2 1    
     2    1  127 1    
     3    1  128 1    
     4    1  129 1    
     5    2    3 2    
     6    2    4 am   BACKBONE|DICT|INTERRES
     7    4    5 1    
     8    4  130 1    
     9    5    6 1    
    10    5   65 1    
    11    5  131 1    
    12    6    7 1    
    13    6  132 1    
    14    6  133 1    
    15    7    8 1    
    16    8    9 1    
    17    8  134 1    
    18    8  135 1    
    19    9   10 ar   
    20    9   14 ar   
    21   10   11 ar   
    22   10  136 1    
    23   11   12 ar   
    24   11  126 1    
    25   12   13 ar   
    26   12  137 1    
    27   13   14 ar   
    28   13   15 1    
    29   14  138 1    
    30   15   16 1    
    31   15  139 1    
    32   15  140 1    
    33   16   17 1    
    34   17   18 1    
    35   17  141 1    
    36   17  142 1    
    37   18   19 1    
    38   18   67 1    
    39   18  143 1    
    40   19   20 am   BACKBONE|DICT|INTERRES
    41   19  144 1    
    42   20   21 2    
    43   20   22 1    
    44   22   23 1    
    45   22   24 1    
    46   22  145 1    
    47   23  146 1    
    48   23  147 1    
    49   23  148 1    
    50   24   25 am   BACKBONE|DICT|INTERRES
    51   24  149 1    
    52   25   26 2    
    53   25   27 1    
    54   27   28 1    
    55   27   29 1    
    56   27  150 1    
    57   28  151 1    
    58   28  152 1    
    59   28  153 1    
    60   29   30 am   BACKBONE|DICT|INTERRES
    61   29  154 1    
    62   30   31 2    
    63   30   32 1    
    64   32   33 1    
    65   32   34 1    
    66   32  155 1    
    67   33  156 1    
    68   33  157 1    
    69   33  158 1    
    70   34   35 am   BACKBONE|DICT|INTERRES
    71   34  159 1    
    72   35   36 2    
    73   35   37 1    
    74   37   38 1    
    75   37   39 1    
    76   37  160 1    
    77   38  161 1    
    78   38  162 1    
    79   38  163 1    
    80   39   40 am   BACKBONE|DICT|INTERRES
    81   39  164 1    
    82   40   41 2    
    83   40   42 1    
    84   42   43 1    
    85   42   44 1    
    86   42  165 1    
    87   43  166 1    
    88   43  167 1    
    89   43  168 1    
    90   44   45 am   BACKBONE|DICT|INTERRES
    91   44  169 1    
    92   45   46 2    
    93   45   47 1    
    94   47   48 1    
    95   47   49 1    
    96   47  170 1    
    97   48  171 1    
    98   48  172 1    
    99   48  173 1    
   100   49   50 am   BACKBONE|DICT|INTERRES
   101   49  174 1    
   102   50   51 2    
   103   50   52 1    
   104   52   53 1    
   105   52   54 1    
   106   52  175 1    
   107   53  176 1    
   108   53  177 1    
   109   53  178 1    
   110   54   55 am   BACKBONE|DICT|INTERRES
   111   54  179 1    
   112   55   56 2    
   113   55   57 1    
   114   57   58 1    
   115   57   59 1    
   116   57  180 1    
   117   58  181 1    
   118   58  182 1    
   119   58  183 1    
   120   59   60 am   BACKBONE|DICT|INTERRES
   121   59  184 1    
   122   60   61 2    
   123   60   62 1    
   124   62   63 1    
   125   62   64 1    
   126   62  185 1    
   127   63  186 1    
   128   63  187 1    
   129   63  188 1    
   130   64   65 am   BACKBONE|DICT|INTERRES
   131   64  189 1    
   132   65   66 2    
   133   67   68 2    
   134   67   69 am   BACKBONE|DICT|INTERRES
   135   69   70 1    
   136   69  190 1    
   137   70   71 1    
   138   70   72 1    
   139   70  191 1    
   140   71  192 1    
   141   71  193 1    
   142   71  194 1    
   143   72   73 2    
   144   72   74 am   BACKBONE|DICT|INTERRES
   145   74   75 1    
   146   74  195 1    
   147   75   76 1    
   148   75   77 1    
   149   75  196 1    
   150   76  197 1    
   151   76  198 1    
   152   76  199 1    
   153   77   78 2    
   154   77   79 am   BACKBONE|DICT|INTERRES
   155   79   80 1    
   156   79  200 1    
   157   80   81 1    
   158   80   82 1    
   159   80  201 1    
   160   81  202 1    
   161   81  203 1    
   162   81  204 1    
   163   82   83 2    
   164   82   84 am   BACKBONE|DICT|INTERRES
   165   84   85 1    
   166   84  205 1    
   167   85   86 1    
   168   85   87 1    
   169   85  206 1    
   170   86  207 1    
   171   86  208 1    
   172   86  209 1    
   173   87   88 2    
   174   87   89 am   BACKBONE|DICT|INTERRES
   175   89   90 1    
   176   89  210 1    
   177   90   91 1    
   178   90   92 1    
   179   90  211 1    
   180   91  212 1    
   181   91  213 1    
   182   91  214 1    
   183   92   93 2    
   184   92   94 am   BACKBONE|DICT|INTERRES
   185   94   95 1    
   186   94  215 1    
   187   95   96 1    
   188   95   97 1    
   189   95  216 1    
   190   96  217 1    
   191   96  218 1    
   192   96  219 1    
   193   97   98 2    
   194   97   99 am   BACKBONE|DICT|INTERRES
   195   99  100 1    
   196   99  220 1    
   197  100  101 1    
   198  100  102 1    
   199  100  221 1    
   200  101  222 1    
   201  101  223 1    
   202  101  224 1    
   203  102  103 2    
   204  102  104 am   BACKBONE|DICT|INTERRES
   205  104  105 1    
   206  104  225 1    
   207  105  106 1    
   208  105  107 1    
   209  105  226 1    
   210  106  227 1    
   211  106  228 1    
   212  106  229 1    
   213  107  108 2    
   214  107  109 am   BACKBONE|DICT|INTERRES
   215  109  110 1    
   216  109  230 1    
   217  110  111 1    
   218  110  112 1    
   219  110  231 1    
   220  111  232 1    
   221  111  233 1    
   222  111  234 1    
   223  112  113 2    
   224  112  114 am   BACKBONE|DICT|INTERRES
   225  114  115 1    
   226  114  235 1    
   227  115  116 1    
   228  115  117 1    
   229  115  236 1    
   230  116  237 1    
   231  116  238 1    
   232  116  239 1    
   233  117  118 2    
   234  117  119 am   BACKBONE|DICT|INTERRES
   235  119  120 1    
   236  119  240 1    
   237  120  121 1    
   238  120  124 1    
   239  120  241 1    
   240  121  122 am   BACKBONE|DICT|INTERRES
   241  121  123 2    
   242  122  242 1    
   243  122  243 1    
   244  124  125 1    
   245  124  244 1    
   246  124  245 1    
   247  125  126 1    
   248  126  246 1    
   249  126  247 1    
@<TRIPOS>SUBSTRUCTURE
     1 UNK         1 GROUP             0       ****    0 ROOT    
