@<TRIPOS>MOLECULE
3R540
247   249    1
SMALL
USER_CHARGES


@<TRIPOS>ATOM
      1 CA          5.8778  -14.5628  -45.8729 C.3       0 UNK        -0.1800 
      2 C           4.7772  -13.5602  -45.5623 C.2       0 UNK         0.5000 
      3 O           4.6817  -13.0850  -44.4311 O.2       0 UNK        -0.5000 
      4 N           3.9558  -13.2199  -46.5648 N.am      1 UNK        -0.5000 
      5 CA          2.7855  -12.3369  -46.4402 C.3       1 UNK         0.1400 
      6 C6          1.9070  -12.3396  -47.7109 C.3       23 UNK        -0.0398 
      7 S7          1.1687  -13.9780  -48.0240 S.3       23 UNK        -0.2404 
      8 C8          2.1360  -14.5304  -49.4601 C.3       23 UNK        -0.0205 
      9 C9          1.5818  -15.8159  -50.0531 C.ar      23 UNK        -0.0193 
     10 C10         0.3889  -15.7866  -50.7786 C.ar      23 UNK        -0.1150 
     11 C11        -0.1157  -16.9399  -51.3848 C.ar      23 UNK        -0.0193 
     12 C12         0.6033  -18.1379  -51.2627 C.ar      23 UNK        -0.1150 
     13 C13         1.8023  -18.1814  -50.5433 C.ar      23 UNK        -0.0193 
     14 C14         2.2795  -17.0199  -49.9287 C.ar      23 UNK        -0.1150 
     15 C15         2.6187  -19.4653  -50.4831 C.3       23 UNK        -0.0205 
     16 S16         2.3349  -20.4024  -48.9513 S.3       23 UNK        -0.2404 
     17 C17         0.6863  -21.1104  -49.2669 C.3       23 UNK        -0.0398 
     18 CA          0.3200  -22.2069  -48.2383 C.3       11 UNK         0.1400 
     19 N           0.1266  -21.6808  -46.8817 N.am      11 UNK        -0.5000 
     20 C          -0.0325  -22.4409  -45.7881 C.2       10 UNK         0.5000 
     21 O           0.0417  -23.6690  -45.7985 O.2       10 UNK        -0.5000 
     22 CA         -0.3950  -21.7238  -44.4735 C.3       10 UNK         0.1400 
     23 CB          0.8576  -21.1776  -43.7731 C.3       10 UNK        -0.1800 
     24 N          -1.3691  -20.6502  -44.6729 N.am      10 UNK        -0.5000 
     25 C          -2.6272  -20.8394  -45.0963 C.2       9 UNK         0.5000 
     26 O          -3.1200  -21.9496  -45.2854 O.2       9 UNK        -0.5000 
     27 CA         -3.4600  -19.5852  -45.4147 C.3       9 UNK         0.1400 
     28 CB         -4.1697  -19.0550  -44.1599 C.3       9 UNK        -0.1800 
     29 N          -2.6547  -18.5244  -46.0167 N.am      9 UNK        -0.5000 
     30 C          -2.0867  -18.6037  -47.2287 C.2       8 UNK         0.5000 
     31 O          -2.2051  -19.5738  -47.9788 O.2       8 UNK        -0.5000 
     32 CA         -1.1831  -17.4243  -47.6328 C.3       8 UNK         0.1400 
     33 CB         -2.0271  -16.2398  -48.1274 C.3       8 UNK        -0.1800 
     34 N          -0.3208  -16.9914  -46.5294 N.am      8 UNK        -0.5000 
     35 C           0.6532  -17.7517  -46.0046 C.2       7 UNK         0.5000 
     36 O           0.9294  -18.8746  -46.4198 O.2       7 UNK        -0.5000 
     37 CA          1.3998  -17.2131  -44.7668 C.3       7 UNK         0.1400 
     38 CB          2.5947  -16.3491  -45.1883 C.3       7 UNK        -0.1800 
     39 N           0.5454  -16.4488  -43.8581 N.am      7 UNK        -0.5000 
     40 C          -0.5679  -16.9215  -43.2768 C.2       6 UNK         0.5000 
     41 O          -0.9178  -18.0984  -43.3526 O.2       6 UNK        -0.5000 
     42 CA         -1.4739  -15.9210  -42.5278 C.3       6 UNK         0.1400 
     43 CB         -1.3143  -16.0886  -41.0095 C.3       6 UNK        -0.1800 
     44 N          -1.2371  -14.5182  -42.8743 N.am      6 UNK        -0.5000 
     45 C          -1.3173  -13.9765  -44.0986 C.2       5 UNK         0.5000 
     46 O          -1.7132  -14.5899  -45.0902 O.2       5 UNK        -0.5000 
     47 CA         -0.8077  -12.5281  -44.2524 C.3       5 UNK         0.1400 
     48 CB         -1.9878  -11.5538  -44.3796 C.3       5 UNK        -0.1800 
     49 N           0.0762  -12.0694  -43.1702 N.am      5 UNK        -0.5000 
     50 C           1.2510  -12.6199  -42.8324 C.2       4 UNK         0.5000 
     51 O           1.7082  -13.6349  -43.3601 O.2       4 UNK        -0.5000 
     52 CA          2.0154  -11.9620  -41.6802 C.3       4 UNK         0.1400 
     53 CB          2.0347  -12.8806  -40.4442 C.3       4 UNK        -0.1800 
     54 N           3.3747  -11.6636  -42.1185 N.am      4 UNK        -0.5000 
     55 C           4.1742  -10.7528  -41.5481 C.2       3 UNK         0.5000 
     56 O           3.8581  -10.0864  -40.5614 O.2       3 UNK        -0.5000 
     57 CA          5.5443  -10.5208  -42.2042 C.3       3 UNK         0.1400 
     58 CB          6.5096  -11.6784  -41.9012 C.3       3 UNK        -0.1800 
     59 N           5.4017  -10.3559  -43.6494 N.am      3 UNK        -0.5000 
     60 C           5.1736   -9.1826  -44.2580 C.2       2 UNK         0.5000 
     61 O           5.1377   -8.1029  -43.6663 O.2       2 UNK        -0.5000 
     62 CA          4.9446   -9.2074  -45.7836 C.3       2 UNK         0.1400 
     63 CB          6.2596   -8.9326  -46.5290 C.3       2 UNK        -0.1800 
     64 N           4.3845  -10.4721  -46.2594 N.am      2 UNK        -0.5000 
     65 C           3.1366  -10.8951  -46.0135 C.2       1 UNK         0.5000 
     66 O           2.2853  -10.2106  -45.4452 O.2       1 UNK        -0.5000 
     67 C          -0.9008  -23.0211  -48.7146 C.2       11 UNK         0.5000 
     68 O          -0.7203  -24.1109  -49.2582 O.2       11 UNK        -0.5000 
     69 N          -2.1165  -22.5132  -48.4646 N.am      12 UNK        -0.5000 
     70 CA         -3.3689  -23.2151  -48.7562 C.3       12 UNK         0.1400 
     71 CB         -4.5558  -22.2605  -48.5684 C.3       12 UNK        -0.1800 
     72 C          -3.5449  -24.4979  -47.9185 C.2       12 UNK         0.5000 
     73 O          -3.9794  -25.5181  -48.4508 O.2       12 UNK        -0.5000 
     74 N          -3.1641  -24.4498  -46.6347 N.am      13 UNK        -0.5000 
     75 CA         -3.1546  -25.6024  -45.7323 C.3       13 UNK         0.1400 
     76 CB         -2.8812  -25.1390  -44.2938 C.3       13 UNK        -0.1800 
     77 C          -2.1478  -26.6853  -46.1630 C.2       13 UNK         0.5000 
     78 O          -2.4809  -27.8692  -46.1143 O.2       13 UNK        -0.5000 
     79 N          -0.9570  -26.2645  -46.6138 N.am      14 UNK        -0.5000 
     80 CA          0.0837  -27.1366  -47.1629 C.3       14 UNK         0.1400 
     81 CB          1.3893  -26.3434  -47.3247 C.3       14 UNK        -0.1800 
     82 C          -0.3292  -27.7918  -48.4947 C.2       14 UNK         0.5000 
     83 O          -0.0490  -28.9731  -48.7017 O.2       14 UNK        -0.5000 
     84 N          -1.0140  -27.0276  -49.3575 N.am      15 UNK        -0.5000 
     85 CA         -1.6096  -27.5079  -50.6078 C.3       15 UNK         0.1400 
     86 CB         -1.9811  -26.2983  -51.4805 C.3       15 UNK        -0.1800 
     87 C          -2.8439  -28.4080  -50.3896 C.2       15 UNK         0.5000 
     88 O          -3.1967  -29.1740  -51.2870 O.2       15 UNK        -0.5000 
     89 N          -3.4745  -28.2848  -49.2125 N.am      16 UNK        -0.5000 
     90 CA         -4.7122  -28.9324  -48.7683 C.3       16 UNK         0.1400 
     91 CB         -4.5389  -30.4629  -48.6816 C.3       16 UNK        -0.1800 
     92 C          -5.9448  -28.5033  -49.5932 C.2       16 UNK         0.5000 
     93 O          -6.8950  -29.2762  -49.7315 O.2       16 UNK        -0.5000 
     94 N          -5.9105  -27.2734  -50.1177 N.am      17 UNK        -0.5000 
     95 CA         -6.9190  -26.6563  -50.9718 C.3       17 UNK         0.1400 
     96 CB         -6.9725  -27.3611  -52.3425 C.3       17 UNK        -0.1800 
     97 C          -6.5482  -25.1805  -51.1586 C.2       17 UNK         0.5000 
     98 O          -5.3787  -24.8191  -51.0093 O.2       17 UNK        -0.5000 
     99 N          -7.5271  -24.3532  -51.5437 N.am      18 UNK        -0.5000 
    100 CA        -7.3575  -22.9294  -51.8548 C.3       18 UNK         0.1400 
    101 CB        -8.7257  -22.2310  -51.7556 C.3       18 UNK        -0.1800 
    102 C         -6.6680  -22.6979  -53.2194 C.2       18 UNK         0.5000 
    103 O         -7.1975  -21.9837  -54.0741 O.2       18 UNK        -0.5000 
    104 N         -5.4956  -23.3183  -53.4000 N.am      19 UNK        -0.5000 
    105 CA        -4.6239  -23.2109  -54.5670 C.3       19 UNK         0.1400 
    106 CB        -3.3950  -24.1079  -54.3549 C.3       19 UNK        -0.1800 
    107 C         -4.2037  -21.7527  -54.8107 C.2       19 UNK         0.5000 
    108 O         -3.8208  -21.0689  -53.8598 O.2       19 UNK        -0.5000 
    109 N         -4.3479  -21.2950  -56.0627 N.am      20 UNK        -0.5000 
    110 CA        -4.1188  -19.9198  -56.5317 C.3       20 UNK         0.1400 
    111 CB        -2.6118  -19.5907  -56.5142 C.3       20 UNK        -0.1800 
    112 C         -4.9728  -18.8512  -55.8055 C.2       20 UNK         0.5000 
    113 O         -4.6117  -17.6735  -55.8117 O.2       20 UNK        -0.5000 
    114 N         -6.0891  -19.2852  -55.1970 N.am      21 UNK        -0.5000 
    115 CA        -7.0136  -18.5162  -54.3594 C.3       21 UNK         0.1400 
    116 CB        -7.7207  -17.4154  -55.1783 C.3       21 UNK        -0.1800 
    117 C         -6.3771  -17.9841  -53.0552 C.2       21 UNK         0.5000 
    118 O         -6.8680  -16.9986  -52.5017 O.2       21 UNK        -0.5000 
    119 N         -5.3136  -18.6426  -52.5696 N.am      22 UNK        -0.5000 
    120 CA        -4.5979  -18.2660  -51.3356 C.3       22 UNK         0.1400 
    121 C         -5.3630  -18.5878  -50.0175 C.2       22 UNK         0.5000 
    122 N         -6.4274  -19.3817  -50.0407 N.am      22 UNK        -0.7600 
    123 O         -5.0010  -18.0867  -48.9582 O.2       22 UNK        -0.5000 
    124 C124       -3.1553  -18.8355  -51.2938 C.3       23 UNK        -0.0398 
    125 S125       -2.1715  -18.3643  -52.7564 S.3       23 UNK        -0.2404 
    126 C126       -1.3995  -16.8072  -52.2057 C.3       23 UNK        -0.0205 
    127 H127        5.7815  -15.4338  -45.2249 H         1 UNK         0.0600 
    128 H128        6.8550  -14.1127  -45.6985 H         1 UNK         0.0600 
    129 H129        5.8368  -14.9027  -46.9080 H         1 UNK         0.0600 
    130 H130        4.0919  -13.6367  -47.4733 H         1 UNK         0.3000 
    131 H131        2.1766  -12.7441  -45.6364 H         1 UNK         0.0600 
    132 H132        1.0783  -11.6367  -47.6050 H         1 UNK         0.0800 
    133 H133        2.4777  -12.0048  -48.5786 H         1 UNK         0.0800 
    134 H134        2.1243  -13.7551  -50.2276 H         1 UNK         0.0800 
    135 H135        3.1781  -14.6620  -49.1671 H         1 UNK         0.0800 
    136 H136       -0.1428  -14.8509  -50.8824 H         1 UNK         0.1150 
    137 H137        0.2540  -19.0385  -51.7454 H         1 UNK         0.1150 
    138 H138        3.2099  -17.0499  -49.3791 H         1 UNK         0.1150 
    139 H139        2.4071  -20.0972  -51.3470 H         1 UNK         0.0800 
    140 H140        3.6798  -19.2195  -50.5464 H         1 UNK         0.0800 
    141 H141        0.6894  -21.5218  -50.2781 H         1 UNK         0.0800 
    142 H142       -0.0505  -20.3068  -49.2627 H         1 UNK         0.0800 
    143 H143        1.1567  -22.9074  -48.1908 H         1 UNK         0.0600 
    144 H144        0.1288  -20.6698  -46.7827 H         1 UNK         0.3000 
    145 H145       -0.8522  -22.4596  -43.8091 H         1 UNK         0.0600 
    146 H146        0.6012  -20.6640  -42.8463 H         1 UNK         0.0600 
    147 H147        1.5419  -21.9879  -43.5193 H         1 UNK         0.0600 
    148 H148        1.4039  -20.4787  -44.4045 H         1 UNK         0.0600 
    149 H149       -1.0620  -19.7034  -44.4729 H         1 UNK         0.3000 
    150 H150       -4.2258  -19.8703  -46.1392 H         1 UNK         0.0600 
    151 H151       -4.8202  -19.8189  -43.7323 H         1 UNK         0.0600 
    152 H152       -4.7932  -18.1920  -44.3943 H         1 UNK         0.0600 
    153 H153       -3.4631  -18.7588  -43.3850 H         1 UNK         0.0600 
    154 H154       -2.4657  -17.7133  -45.4470 H         1 UNK         0.3000 
    155 H155       -0.5424  -17.7555  -48.4525 H         1 UNK         0.0600 
    156 H156       -2.6970  -15.8686  -47.3513 H         1 UNK         0.0600 
    157 H157       -1.3984  -15.4111  -48.4492 H         1 UNK         0.0600 
    158 H158       -2.6423  -16.5277  -48.9798 H         1 UNK         0.0600 
    159 H159       -0.5270  -16.0901  -46.1147 H         1 UNK         0.3000 
    160 H160        1.7820  -18.0718  -44.2123 H         1 UNK         0.0600 
    161 H161        2.2671  -15.4371  -45.6858 H         1 UNK         0.0600 
    162 H162        3.2477  -16.8860  -45.8776 H         1 UNK         0.0600 
    163 H163        3.1949  -16.0591  -44.3256 H         1 UNK         0.0600 
    164 H164        0.7926  -15.4740  -43.7228 H         1 UNK         0.3000 
    165 H165       -2.5055  -16.1575  -42.7956 H         1 UNK         0.0600 
    166 H166       -2.0128  -15.4525  -40.4656 H         1 UNK         0.0600 
    167 H167       -1.5116  -17.1179  -40.7065 H         1 UNK         0.0600 
    168 H168       -0.3044  -15.8376  -40.6821 H         1 UNK         0.0600 
    169 H169       -0.8939  -13.9295  -42.1305 H         1 UNK         0.3000 
    170 H170       -0.2359  -12.4908  -45.1815 H         1 UNK         0.0600 
    171 H171       -2.6511  -11.8467  -45.1947 H         1 UNK         0.0600 
    172 H172       -2.5834  -11.5223  -43.4664 H         1 UNK         0.0600 
    173 H173       -1.6427  -10.5418  -44.5928 H         1 UNK         0.0600 
    174 H174       -0.2304  -11.2446  -42.6743 H         1 UNK         0.3000 
    175 H175        1.5150  -11.0272  -41.4183 H         1 UNK         0.0600 
    176 H176        2.5635  -13.8129  -40.6468 H         1 UNK         0.0600 
    177 H177        2.5213  -12.3984  -39.5964 H         1 UNK         0.0600 
    178 H178        1.0219  -13.1380  -40.1317 H         1 UNK         0.0600 
    179 H179        3.7012  -12.1886  -42.9268 H         1 UNK         0.3000 
    180 H180        5.9755   -9.6140  -41.7744 H         1 UNK         0.0600 
    181 H181        6.1378  -12.6324  -42.2749 H         1 UNK         0.0600 
    182 H182        6.6592  -11.7860  -40.8263 H         1 UNK         0.0600 
    183 H183        7.4874  -11.5021  -42.3495 H         1 UNK         0.0600 
    184 H184        5.3466  -11.2124  -44.1895 H         1 UNK         0.3000 
    185 H185        4.2409   -8.4081  -46.0259 H         1 UNK         0.0600 
    186 H186        6.6931   -7.9811  -46.2181 H         1 UNK         0.0600 
    187 H187        7.0011   -9.7092  -46.3372 H         1 UNK         0.0600 
    188 H188        6.0993   -8.8786  -47.6059 H         1 UNK         0.0600 
    189 H189        5.0176  -11.1008  -46.7319 H         1 UNK         0.3000 
    190 H190       -2.1885  -21.5884  -48.0512 H         1 UNK         0.3000 
    191 H191       -3.3420  -23.5101  -49.8069 H         1 UNK         0.0600 
    192 H192       -4.6410  -21.9165  -47.5381 H         1 UNK         0.0600 
    193 H193       -5.4938  -22.7511  -48.8309 H         1 UNK         0.0600 
    194 H194       -4.4555  -21.3838  -49.2074 H         1 UNK         0.0600 
    195 H195       -2.8899  -23.5548  -46.2376 H         1 UNK         0.3000 
    196 H196       -4.1508  -26.0492  -45.7571 H         1 UNK         0.0600 
    197 H197       -2.9122  -25.9806  -43.6008 H         1 UNK         0.0600 
    198 H198       -3.6285  -24.4175  -43.9633 H         1 UNK         0.0600 
    199 H199       -1.9010  -24.6728  -44.1991 H         1 UNK         0.0600 
    200 H200       -0.7372  -25.2738  -46.5579 H         1 UNK         0.3000 
    201 H201        0.2626  -27.9369  -46.4418 H         1 UNK         0.0600 
    202 H202        1.7253  -25.9392  -46.3697 H         1 UNK         0.0600 
    203 H203        1.2722  -25.5096  -48.0170 H         1 UNK         0.0600 
    204 H204        2.1879  -26.9795  -47.7083 H         1 UNK         0.0600 
    205 H205       -1.1353  -26.0412  -49.1465 H         1 UNK         0.3000 
    206 H206       -0.8611  -28.0974  -51.1411 H         1 UNK         0.0600 
    207 H207       -1.1065  -25.6869  -51.7027 H         1 UNK         0.0600 
    208 H208       -2.4068  -26.6171  -52.4326 H         1 UNK         0.0600 
    209 H209       -2.7175  -25.6611  -50.9901 H         1 UNK         0.0600 
    210 H210       -3.1255  -27.5706  -48.5858 H         1 UNK         0.3000 
    211 H211       -4.8893  -28.5660  -47.7562 H         1 UNK         0.0600 
    212 H212       -4.4341  -30.9168  -49.6672 H         1 UNK         0.0600 
    213 H213       -5.3999  -30.9267  -48.1991 H         1 UNK         0.0600 
    214 H214       -3.6589  -30.7258  -48.0944 H         1 UNK         0.0600 
    215 H215       -5.1223  -26.6666  -49.9040 H         1 UNK         0.3000 
    216 H216       -7.8905  -26.7185  -50.4780 H         1 UNK         0.0600 
    217 H217       -5.9979  -27.3528  -52.8327 H         1 UNK         0.0600 
    218 H218       -7.6805  -26.8705  -53.0115 H         1 UNK         0.0600 
    219 H219       -7.2900  -28.3994  -52.2502 H         1 UNK         0.0600 
    220 H220       -8.4527  -24.7301  -51.6888 H         1 UNK         0.3000 
    221 H221       -6.7084  -22.4857  -51.0969 H         1 UNK         0.0600 
    222 H222       -9.1590  -22.3528  -50.7627 H         1 UNK         0.0600 
    223 H223       -9.4341  -22.6298  -52.4827 H         1 UNK         0.0600 
    224 H224       -8.6357  -21.1595  -51.9383 H         1 UNK         0.0600 
    225 H225       -5.1478  -23.8724  -52.6224 H         1 UNK         0.3000 
    226 H226       -5.1796  -23.5768  -55.4327 H         1 UNK         0.0600 
    227 H227       -3.6861  -25.1500  -54.2208 H         1 UNK         0.0600 
    228 H228       -2.7253  -24.0643  -55.2147 H         1 UNK         0.0600 
    229 H229       -2.8236  -23.8048  -53.4762 H         1 UNK         0.0600 
    230 H230       -4.6951  -21.9332  -56.7655 H         1 UNK         0.3000 
    231 H231       -4.4450  -19.8972  -57.5724 H         1 UNK         0.0600 
    232 H232       -2.2149  -19.5683  -55.4997 H         1 UNK         0.0600 
    233 H233       -2.4138  -18.6175  -56.9645 H         1 UNK         0.0600 
    234 H234       -2.0418  -20.3285  -57.0787 H         1 UNK         0.0600 
    235 H235       -6.2845  -20.2787  -55.2302 H         1 UNK         0.3000 
    236 H236       -7.7807  -19.2238  -54.0424 H         1 UNK         0.0600 
    237 H237       -8.5304  -16.9613  -54.6060 H         1 UNK         0.0600 
    238 H238       -7.0358  -16.6161  -55.4620 H         1 UNK         0.0600 
    239 H239       -8.1595  -17.8218  -56.0896 H         1 UNK         0.0600 
    240 H240       -4.9256  -19.4232  -53.0887 H         1 UNK         0.3000 
    241 H241       -4.5016  -17.1786  -51.3480 H         1 UNK         0.0600 
    242 H242       -6.9239  -19.5627  -49.1833 H         1 UNK         0.3800 
    243 H243       -6.7618  -19.7589  -50.9100 H         1 UNK         0.3800 
    244 H244       -3.1818  -19.9254  -51.2409 H         1 UNK         0.0800 
    245 H245       -2.6277  -18.5025  -50.3997 H         1 UNK         0.0800 
    246 H246       -1.1656  -16.2232  -53.0966 H         1 UNK         0.0800 
    247 H247       -2.1344  -16.2268  -51.6460 H         1 UNK         0.0800 
@<TRIPOS>BOND
     1    1    2 1    
     2    1  127 1    
     3    1  128 1    
     4    1  129 1    
     5    2    3 2    
     6    2    4 am   BACKBONE|DICT|INTERRES
     7    4    5 1    
     8    4  130 1    
     9    5    6 1    
    10    5   65 1    
    11    5  131 1    
    12    6    7 1    
    13    6  132 1    
    14    6  133 1    
    15    7    8 1    
    16    8    9 1    
    17    8  134 1    
    18    8  135 1    
    19    9   10 ar   
    20    9   14 ar   
    21   10   11 ar   
    22   10  136 1    
    23   11   12 ar   
    24   11  126 1    
    25   12   13 ar   
    26   12  137 1    
    27   13   14 ar   
    28   13   15 1    
    29   14  138 1    
    30   15   16 1    
    31   15  139 1    
    32   15  140 1    
    33   16   17 1    
    34   17   18 1    
    35   17  141 1    
    36   17  142 1    
    37   18   19 1    
    38   18   67 1    
    39   18  143 1    
    40   19   20 am   BACKBONE|DICT|INTERRES
    41   19  144 1    
    42   20   21 2    
    43   20   22 1    
    44   22   23 1    
    45   22   24 1    
    46   22  145 1    
    47   23  146 1    
    48   23  147 1    
    49   23  148 1    
    50   24   25 am   BACKBONE|DICT|INTERRES
    51   24  149 1    
    52   25   26 2    
    53   25   27 1    
    54   27   28 1    
    55   27   29 1    
    56   27  150 1    
    57   28  151 1    
    58   28  152 1    
    59   28  153 1    
    60   29   30 am   BACKBONE|DICT|INTERRES
    61   29  154 1    
    62   30   31 2    
    63   30   32 1    
    64   32   33 1    
    65   32   34 1    
    66   32  155 1    
    67   33  156 1    
    68   33  157 1    
    69   33  158 1    
    70   34   35 am   BACKBONE|DICT|INTERRES
    71   34  159 1    
    72   35   36 2    
    73   35   37 1    
    74   37   38 1    
    75   37   39 1    
    76   37  160 1    
    77   38  161 1    
    78   38  162 1    
    79   38  163 1    
    80   39   40 am   BACKBONE|DICT|INTERRES
    81   39  164 1    
    82   40   41 2    
    83   40   42 1    
    84   42   43 1    
    85   42   44 1    
    86   42  165 1    
    87   43  166 1    
    88   43  167 1    
    89   43  168 1    
    90   44   45 am   BACKBONE|DICT|INTERRES
    91   44  169 1    
    92   45   46 2    
    93   45   47 1    
    94   47   48 1    
    95   47   49 1    
    96   47  170 1    
    97   48  171 1    
    98   48  172 1    
    99   48  173 1    
   100   49   50 am   BACKBONE|DICT|INTERRES
   101   49  174 1    
   102   50   51 2    
   103   50   52 1    
   104   52   53 1    
   105   52   54 1    
   106   52  175 1    
   107   53  176 1    
   108   53  177 1    
   109   53  178 1    
   110   54   55 am   BACKBONE|DICT|INTERRES
   111   54  179 1    
   112   55   56 2    
   113   55   57 1    
   114   57   58 1    
   115   57   59 1    
   116   57  180 1    
   117   58  181 1    
   118   58  182 1    
   119   58  183 1    
   120   59   60 am   BACKBONE|DICT|INTERRES
   121   59  184 1    
   122   60   61 2    
   123   60   62 1    
   124   62   63 1    
   125   62   64 1    
   126   62  185 1    
   127   63  186 1    
   128   63  187 1    
   129   63  188 1    
   130   64   65 am   BACKBONE|DICT|INTERRES
   131   64  189 1    
   132   65   66 2    
   133   67   68 2    
   134   67   69 am   BACKBONE|DICT|INTERRES
   135   69   70 1    
   136   69  190 1    
   137   70   71 1    
   138   70   72 1    
   139   70  191 1    
   140   71  192 1    
   141   71  193 1    
   142   71  194 1    
   143   72   73 2    
   144   72   74 am   BACKBONE|DICT|INTERRES
   145   74   75 1    
   146   74  195 1    
   147   75   76 1    
   148   75   77 1    
   149   75  196 1    
   150   76  197 1    
   151   76  198 1    
   152   76  199 1    
   153   77   78 2    
   154   77   79 am   BACKBONE|DICT|INTERRES
   155   79   80 1    
   156   79  200 1    
   157   80   81 1    
   158   80   82 1    
   159   80  201 1    
   160   81  202 1    
   161   81  203 1    
   162   81  204 1    
   163   82   83 2    
   164   82   84 am   BACKBONE|DICT|INTERRES
   165   84   85 1    
   166   84  205 1    
   167   85   86 1    
   168   85   87 1    
   169   85  206 1    
   170   86  207 1    
   171   86  208 1    
   172   86  209 1    
   173   87   88 2    
   174   87   89 am   BACKBONE|DICT|INTERRES
   175   89   90 1    
   176   89  210 1    
   177   90   91 1    
   178   90   92 1    
   179   90  211 1    
   180   91  212 1    
   181   91  213 1    
   182   91  214 1    
   183   92   93 2    
   184   92   94 am   BACKBONE|DICT|INTERRES
   185   94   95 1    
   186   94  215 1    
   187   95   96 1    
   188   95   97 1    
   189   95  216 1    
   190   96  217 1    
   191   96  218 1    
   192   96  219 1    
   193   97   98 2    
   194   97   99 am   BACKBONE|DICT|INTERRES
   195   99  100 1    
   196   99  220 1    
   197  100  101 1    
   198  100  102 1    
   199  100  221 1    
   200  101  222 1    
   201  101  223 1    
   202  101  224 1    
   203  102  103 2    
   204  102  104 am   BACKBONE|DICT|INTERRES
   205  104  105 1    
   206  104  225 1    
   207  105  106 1    
   208  105  107 1    
   209  105  226 1    
   210  106  227 1    
   211  106  228 1    
   212  106  229 1    
   213  107  108 2    
   214  107  109 am   BACKBONE|DICT|INTERRES
   215  109  110 1    
   216  109  230 1    
   217  110  111 1    
   218  110  112 1    
   219  110  231 1    
   220  111  232 1    
   221  111  233 1    
   222  111  234 1    
   223  112  113 2    
   224  112  114 am   BACKBONE|DICT|INTERRES
   225  114  115 1    
   226  114  235 1    
   227  115  116 1    
   228  115  117 1    
   229  115  236 1    
   230  116  237 1    
   231  116  238 1    
   232  116  239 1    
   233  117  118 2    
   234  117  119 am   BACKBONE|DICT|INTERRES
   235  119  120 1    
   236  119  240 1    
   237  120  121 1    
   238  120  124 1    
   239  120  241 1    
   240  121  122 am   BACKBONE|DICT|INTERRES
   241  121  123 2    
   242  122  242 1    
   243  122  243 1    
   244  124  125 1    
   245  124  244 1    
   246  124  245 1    
   247  125  126 1    
   248  126  246 1    
   249  126  247 1    
@<TRIPOS>SUBSTRUCTURE
     1 UNK         1 GROUP             0       ****    0 ROOT    
