@<TRIPOS>MOLECULE
3R540
247   249    1
SMALL
USER_CHARGES


@<TRIPOS>ATOM
      1 CA          6.8805  -10.6242  -51.5129 C.3       0 UNK        -0.1800 
      2 C           5.9801  -10.8475  -50.3060 C.2       0 UNK         0.5000 
      3 O           5.6206   -9.8867  -49.6255 O.2       0 UNK        -0.5000 
      4 N           5.6220  -12.1102  -50.0375 N.am      1 UNK        -0.5000 
      5 CA          4.7329  -12.5211  -48.9439 C.3       1 UNK         0.1400 
      6 C6          4.7994  -14.0543  -48.7284 C.3       23 UNK        -0.0398 
      7 S7          4.0571  -14.6108  -47.1562 S.3       23 UNK        -0.2404 
      8 C8          4.4032  -16.4050  -47.2219 C.3       23 UNK        -0.0205 
      9 C9          3.6895  -17.1940  -48.3239 C.ar      23 UNK        -0.0193 
     10 C10         2.5696  -16.7015  -49.0065 C.ar      23 UNK        -0.1150 
     11 C11         1.9195  -17.4756  -49.9708 C.ar      23 UNK        -0.0193 
     12 C12         2.3953  -18.7540  -50.2640 C.ar      23 UNK        -0.1150 
     13 C13         3.5101  -19.2624  -49.5949 C.ar      23 UNK        -0.0193 
     14 C14         4.1515  -18.4786  -48.6304 C.ar      23 UNK        -0.1150 
     15 C15         4.0162  -20.6612  -49.9097 C.3       23 UNK        -0.0205 
     16 S16         3.4642  -21.8752  -48.6722 S.3       23 UNK        -0.2404 
     17 C17         1.6644  -21.9283  -48.9791 C.3       23 UNK        -0.0398 
     18 CA          0.9943  -23.1225  -48.2587 C.3       11 UNK         0.1400 
     19 N           1.2107  -23.0922  -46.8100 N.am      11 UNK        -0.5000 
     20 C           1.0311  -24.1265  -45.9806 C.2       10 UNK         0.5000 
     21 O           0.6657  -25.2432  -46.3477 O.2       10 UNK        -0.5000 
     22 CA          1.2683  -23.8507  -44.4839 C.3       10 UNK         0.1400 
     23 CB          2.7667  -23.9144  -44.1521 C.3       10 UNK        -0.1800 
     24 N           0.7307  -22.5568  -44.0563 N.am      10 UNK        -0.5000 
     25 C          -0.5775  -22.2713  -44.0055 C.2       9 UNK         0.5000 
     26 O          -1.4606  -23.0813  -44.2856 O.2       9 UNK        -0.5000 
     27 CA         -0.9701  -20.8335  -43.6132 C.3       9 UNK         0.1400 
     28 CB         -1.0018  -20.6854  -42.0846 C.3       9 UNK        -0.1800 
     29 N          -0.1314  -19.7714  -44.1778 N.am      9 UNK        -0.5000 
     30 C           0.2185  -19.6188  -45.4631 C.2       8 UNK         0.5000 
     31 O          -0.0170  -20.4550  -46.3318 O.2       8 UNK        -0.5000 
     32 CA          0.9154  -18.3075  -45.8731 C.3       8 UNK         0.1400 
     33 CB          0.0904  -17.5999  -46.9566 C.3       8 UNK        -0.1800 
     34 N           1.1067  -17.3678  -44.7722 N.am      8 UNK        -0.5000 
     35 C           2.0502  -17.4355  -43.8269 C.2       7 UNK         0.5000 
     36 O           2.8787  -18.3419  -43.7455 O.2       7 UNK        -0.5000 
     37 CA          2.0365  -16.3064  -42.7839 C.3       7 UNK         0.1400 
     38 CB          2.8017  -15.0819  -43.3112 C.3       7 UNK        -0.1800 
     39 N           0.6657  -15.9118  -42.4514 N.am      7 UNK        -0.5000 
     40 C          -0.0882  -16.4968  -41.5110 C.2       6 UNK         0.5000 
     41 O           0.3117  -17.4078  -40.7859 O.2       6 UNK        -0.5000 
     42 CA         -1.5350  -15.9858  -41.3553 C.3       6 UNK         0.1400 
     43 CB         -1.5821  -14.7921  -40.3893 C.3       6 UNK        -0.1800 
     44 N          -2.1485  -15.5976  -42.6269 N.am      6 UNK        -0.5000 
     45 C          -2.5286  -16.4616  -43.5781 C.2       5 UNK         0.5000 
     46 O          -2.4558  -17.6832  -43.4549 O.2       5 UNK        -0.5000 
     47 CA         -3.0629  -15.8723  -44.9006 C.3       5 UNK         0.1400 
     48 CB         -4.5967  -15.8008  -44.8745 C.3       5 UNK        -0.1800 
     49 N          -2.5318  -14.5566  -45.2800 N.am      5 UNK        -0.5000 
     50 C          -1.2394  -14.2160  -45.3715 C.2       4 UNK         0.5000 
     51 O          -0.3137  -14.9538  -45.0354 O.2       4 UNK        -0.5000 
     52 CA         -0.9368  -12.8349  -45.9743 C.3       4 UNK         0.1400 
     53 CB          0.4730  -12.3381  -45.6083 C.3       4 UNK        -0.1800 
     54 N          -1.0419  -12.9071  -47.4270 N.am      4 UNK        -0.5000 
     55 C          -2.1730  -12.8646  -48.1392 C.2       3 UNK         0.5000 
     56 O          -3.2800  -12.6851  -47.6279 O.2       3 UNK        -0.5000 
     57 CA         -2.0408  -13.0622  -49.6685 C.3       3 UNK         0.1400 
     58 CB         -3.3189  -12.6780  -50.4341 C.3       3 UNK        -0.1800 
     59 N          -0.9002  -12.3510  -50.2587 N.am      3 UNK        -0.5000 
     60 C           0.3786  -12.7394  -50.1745 C.2       2 UNK         0.5000 
     61 O           0.7188  -13.7563  -49.5691 O.2       2 UNK        -0.5000 
     62 CA          1.4394  -11.8627  -50.8781 C.3       2 UNK         0.1400 
     63 CB          1.1403  -10.3510  -50.7744 C.3       2 UNK        -0.1800 
     64 N           2.8040  -12.1533  -50.4191 N.am      2 UNK        -0.5000 
     65 C           3.2840  -12.0304  -49.1697 C.2       1 UNK         0.5000 
     66 O           2.6556  -11.5381  -48.2311 O.2       1 UNK        -0.5000 
     67 C          -0.5093  -23.1973  -48.5833 C.2       11 UNK         0.5000 
     68 O          -0.9022  -23.9507  -49.4728 O.2       11 UNK        -0.5000 
     69 N          -1.3236  -22.4617  -47.8143 N.am      12 UNK        -0.5000 
     70 CA         -2.7832  -22.4864  -47.8552 C.3       12 UNK         0.1400 
     71 CB         -3.3338  -21.4397  -46.8772 C.3       12 UNK        -0.1800 
     72 C          -3.3490  -23.8792  -47.5326 C.2       12 UNK         0.5000 
     73 O          -4.2141  -24.3638  -48.2623 O.2       12 UNK        -0.5000 
     74 N          -2.8244  -24.5090  -46.4706 N.am      13 UNK        -0.5000 
     75 CA         -3.1588  -25.8703  -46.0537 C.3       13 UNK         0.1400 
     76 CB         -2.5227  -26.1687  -44.6883 C.3       13 UNK        -0.1800 
     77 C          -2.7457  -26.9263  -47.0929 C.2       13 UNK         0.5000 
     78 O          -3.5509  -27.8020  -47.4107 O.2       13 UNK        -0.5000 
     79 N          -1.5282  -26.7991  -47.6429 N.am      14 UNK        -0.5000 
     80 CA         -1.0023  -27.6549  -48.7132 C.3       14 UNK         0.1400 
     81 CB          0.4703  -27.3059  -48.9742 C.3       14 UNK        -0.1800 
     82 C          -1.8201  -27.5709  -50.0178 C.2       14 UNK         0.5000 
     83 O          -1.9498  -28.5718  -50.7225 O.2       14 UNK        -0.5000 
     84 N          -2.4011  -26.3944  -50.2824 N.am      15 UNK        -0.5000 
     85 CA         -3.3329  -26.1193  -51.3759 C.3       15 UNK         0.1400 
     86 CB         -3.2167  -24.6323  -51.7444 C.3       15 UNK        -0.1800 
     87 C          -4.7936  -26.5235  -51.0616 C.2       15 UNK         0.5000 
     88 O          -5.6960  -26.1213  -51.7966 O.2       15 UNK        -0.5000 
     89 N          -5.0040  -27.3164  -49.9991 N.am      16 UNK        -0.5000 
     90 CA         -6.2753  -27.8752  -49.5291 C.3       16 UNK         0.1400 
     91 CB         -6.9235  -28.7828  -50.5967 C.3       16 UNK        -0.1800 
     92 C          -7.2269  -26.8000  -48.9701 C.2       16 UNK         0.5000 
     93 O          -8.4064  -26.7660  -49.3257 O.2       16 UNK        -0.5000 
     94 N          -6.6810  -25.9553  -48.0838 N.am      17 UNK        -0.5000 
     95 CA         -7.3375  -24.8489  -47.3790 C.3       17 UNK         0.1400 
     96 CB         -8.4654  -25.3592  -46.4573 C.3       17 UNK        -0.1800 
     97 C          -7.7839  -23.7331  -48.3432 C.2       17 UNK         0.5000 
     98 O          -8.9341  -23.2901  -48.3061 O.2       17 UNK        -0.5000 
     99 N          -6.8489  -23.3088  -49.2009 N.am      18 UNK        -0.5000 
    100 CA        -7.0174  -22.2011  -50.1397 C.3       18 UNK         0.1400 
    101 CB        -5.8855  -22.2638  -51.1758 C.3       18 UNK        -0.1800 
    102 C         -7.0076  -20.8331  -49.4317 C.2       18 UNK         0.5000 
    103 O         -6.5556  -20.7219  -48.2893 O.2       18 UNK        -0.5000 
    104 N         -7.4546  -19.7955  -50.1496 N.am      19 UNK        -0.5000 
    105 CA        -7.3541  -18.3931  -49.7443 C.3       19 UNK         0.1400 
    106 CB        -8.3427  -17.5606  -50.5791 C.3       19 UNK        -0.1800 
    107 C         -5.8999  -17.9070  -49.9013 C.2       19 UNK         0.5000 
    108 O         -5.5475  -17.3324  -50.9321 O.2       19 UNK        -0.5000 
    109 N         -5.0592  -18.2463  -48.9151 N.am      20 UNK        -0.5000 
    110 CA        -3.6086  -18.0256  -48.8127 C.3       20 UNK         0.1400 
    111 CB        -3.2553  -16.5270  -48.8837 C.3       20 UNK        -0.1800 
    112 C         -2.7538  -18.8401  -49.8082 C.2       20 UNK         0.5000 
    113 O         -1.6207  -19.1709  -49.4729 O.2       20 UNK        -0.5000 
    114 N         -3.3014  -19.1517  -50.9911 N.am      21 UNK        -0.5000 
    115 CA        -2.6522  -19.7771  -52.1517 C.3       21 UNK         0.1400 
    116 CB        -1.9486  -21.1047  -51.7917 C.3       21 UNK        -0.1800 
    117 C         -1.7418  -18.7989  -52.9281 C.2       21 UNK         0.5000 
    118 O         -0.8215  -19.2365  -53.6202 O.2       21 UNK        -0.5000 
    119 N         -2.0361  -17.4970  -52.8247 N.am      22 UNK        -0.5000 
    120 CA        -1.4204  -16.4048  -53.5904 C.3       22 UNK         0.1400 
    121 C         -2.5411  -15.5879  -54.2824 C.2       22 UNK         0.5000 
    122 N         -2.3562  -15.2024  -55.5371 N.am      22 UNK        -0.7600 
    123 O         -3.5624  -15.2681  -53.6785 O.2       22 UNK        -0.5000 
    124 C124       -0.5643  -15.4743  -52.6920 C.3       23 UNK        -0.0398 
    125 S125        1.0582  -16.1823  -52.2577 S.3       23 UNK        -0.2404 
    126 C126        0.6729  -16.9517  -50.6598 C.3       23 UNK        -0.0205 
    127 H127        7.1252  -11.5599  -52.0161 H         1 UNK         0.0600 
    128 H128        7.8124  -10.1511  -51.2035 H         1 UNK         0.0600 
    129 H129        6.3875   -9.9704  -52.2324 H         1 UNK         0.0600 
    130 H130        5.9635  -12.8520  -50.6321 H         1 UNK         0.3000 
    131 H131        5.1014  -12.0403  -48.0348 H         1 UNK         0.0600 
    132 H132        4.3287  -14.5804  -49.5603 H         1 UNK         0.0800 
    133 H133        5.8416  -14.3766  -48.7205 H         1 UNK         0.0800 
    134 H134        4.1192  -16.8371  -46.2615 H         1 UNK         0.0800 
    135 H135        5.4814  -16.5437  -47.3145 H         1 UNK         0.0800 
    136 H136        2.1756  -15.7233  -48.7759 H         1 UNK         0.1150 
    137 H137        1.8861  -19.3563  -51.0035 H         1 UNK         0.1150 
    138 H138        5.0068  -18.8800  -48.1049 H         1 UNK         0.1150 
    139 H139        3.6917  -20.9767  -50.9025 H         1 UNK         0.0800 
    140 H140        5.1069  -20.6543  -49.9346 H         1 UNK         0.0800 
    141 H141        1.4980  -21.9954  -50.0558 H         1 UNK         0.0800 
    142 H142        1.2249  -20.9824  -48.6568 H         1 UNK         0.0800 
    143 H143        1.4509  -24.0377  -48.6415 H         1 UNK         0.0600 
    144 H144        1.4261  -22.1862  -46.4179 H         1 UNK         0.3000 
    145 H145        0.7608  -24.6346  -43.9175 H         1 UNK         0.0600 
    146 H146        2.9388  -23.7977  -43.0820 H         1 UNK         0.0600 
    147 H147        3.1902  -24.8757  -44.4458 H         1 UNK         0.0600 
    148 H148        3.3286  -23.1360  -44.6700 H         1 UNK         0.0600 
    149 H149        1.3940  -21.8319  -43.8246 H         1 UNK         0.3000 
    150 H150       -1.9811  -20.6621  -43.9862 H         1 UNK         0.0600 
    151 H151       -1.6313  -21.4508  -41.6289 H         1 UNK         0.0600 
    152 H152       -1.4071  -19.7168  -41.7907 H         1 UNK         0.0600 
    153 H153       -0.0051  -20.7758  -41.6509 H         1 UNK         0.0600 
    154 H154        0.0881  -19.0090  -43.5543 H         1 UNK         0.3000 
    155 H155        1.8921  -18.5619  -46.2891 H         1 UNK         0.0600 
    156 H156       -0.9528  -17.4938  -46.6646 H         1 UNK         0.0600 
    157 H157        0.4769  -16.6051  -47.1763 H         1 UNK         0.0600 
    158 H158        0.1139  -18.1718  -47.8826 H         1 UNK         0.0600 
    159 H159        0.5034  -16.5480  -44.7843 H         1 UNK         0.3000 
    160 H160        2.5442  -16.6647  -41.8858 H         1 UNK         0.0600 
    161 H161        2.3460  -14.6778  -44.2163 H         1 UNK         0.0600 
    162 H162        3.8330  -15.3411  -43.5540 H         1 UNK         0.0600 
    163 H163        2.8318  -14.2856  -42.5676 H         1 UNK         0.0600 
    164 H164        0.2366  -15.2300  -43.0656 H         1 UNK         0.3000 
    165 H165       -2.1269  -16.7954  -40.9226 H         1 UNK         0.0600 
    166 H166       -2.6081  -14.4700  -40.2103 H         1 UNK         0.0600 
    167 H167       -1.1520  -15.0557  -39.4221 H         1 UNK         0.0600 
    168 H168       -1.0237  -13.9384  -40.7753 H         1 UNK         0.0600 
    169 H169       -2.2474  -14.6096  -42.8073 H         1 UNK         0.3000 
    170 H170       -2.7812  -16.5672  -45.6918 H         1 UNK         0.0600 
    171 H171       -5.0306  -16.7712  -44.6289 H         1 UNK         0.0600 
    172 H172       -4.9519  -15.0843  -44.1328 H         1 UNK         0.0600 
    173 H173       -4.9956  -15.5058  -45.8453 H         1 UNK         0.0600 
    174 H174       -3.2100  -13.8901  -45.6265 H         1 UNK         0.3000 
    175 H175       -1.6632  -12.1183  -45.5857 H         1 UNK         0.0600 
    176 H176        1.2497  -12.9902  -46.0116 H         1 UNK         0.0600 
    177 H177        0.6497  -11.3357  -45.9985 H         1 UNK         0.0600 
    178 H178        0.6064  -12.2963  -44.5267 H         1 UNK         0.0600 
    179 H179       -0.1863  -13.1242  -47.9290 H         1 UNK         0.3000 
    180 H180       -1.8858  -14.1311  -49.8197 H         1 UNK         0.0600 
    181 H181       -4.1779  -13.2473  -50.0763 H         1 UNK         0.0600 
    182 H182       -3.2185  -12.8893  -51.4992 H         1 UNK         0.0600 
    183 H183       -3.5529  -11.6190  -50.3199 H         1 UNK         0.0600 
    184 H184       -1.1139  -11.4881  -50.7372 H         1 UNK         0.3000 
    185 H185        1.4116  -12.1388  -51.9330 H         1 UNK         0.0600 
    186 H186        1.0085  -10.0327  -49.7396 H         1 UNK         0.0600 
    187 H187        1.9509   -9.7608  -51.2021 H         1 UNK         0.0600 
    188 H188        0.2339  -10.0854  -51.3189 H         1 UNK         0.0600 
    189 H189        3.4085  -12.5733  -51.1098 H         1 UNK         0.3000 
    190 H190       -0.8969  -21.8199  -47.1486 H         1 UNK         0.3000 
    191 H191       -3.0936  -22.2140  -48.8651 H         1 UNK         0.0600 
    192 H192       -3.1360  -21.7086  -45.8407 H         1 UNK         0.0600 
    193 H193       -4.4127  -21.3368  -46.9825 H         1 UNK         0.0600 
    194 H194       -2.8862  -20.4633  -47.0528 H         1 UNK         0.0600 
    195 H195       -2.1543  -24.0131  -45.8903 H         1 UNK         0.3000 
    196 H196       -4.2432  -25.9251  -45.9384 H         1 UNK         0.0600 
    197 H197       -2.7610  -27.1803  -44.3577 H         1 UNK         0.0600 
    198 H198       -2.8909  -25.4827  -43.9253 H         1 UNK         0.0600 
    199 H199       -1.4364  -26.0796  -44.7203 H         1 UNK         0.0600 
    200 H200       -0.9059  -26.0757  -47.2957 H         1 UNK         0.3000 
    201 H201       -1.0496  -28.6878  -48.3625 H         1 UNK         0.0600 
    202 H202        1.0721  -27.4349  -48.0745 H         1 UNK         0.0600 
    203 H203        0.5854  -26.2754  -49.3099 H         1 UNK         0.0600 
    204 H204        0.8944  -27.9514  -49.7443 H         1 UNK         0.0600 
    205 H205       -2.1871  -25.6094  -49.6768 H         1 UNK         0.3000 
    206 H206       -3.0292  -26.7009  -52.2484 H         1 UNK         0.0600 
    207 H207       -2.1952  -24.3758  -52.0257 H         1 UNK         0.0600 
    208 H208       -3.8569  -24.3759  -52.5889 H         1 UNK         0.0600 
    209 H209       -3.4974  -23.9982  -50.9046 H         1 UNK         0.0600 
    210 H210       -4.2035  -27.5509  -49.4244 H         1 UNK         0.3000 
    211 H211       -6.0214  -28.5147  -48.6824 H         1 UNK         0.0600 
    212 H212       -7.2705  -28.2162  -51.4611 H         1 UNK         0.0600 
    213 H213       -7.7867  -29.3080  -50.1865 H         1 UNK         0.0600 
    214 H214       -6.2223  -29.5389  -50.9497 H         1 UNK         0.0600 
    215 H215       -5.6789  -26.0071  -47.9518 H         1 UNK         0.3000 
    216 H216       -6.5760  -24.4043  -46.7365 H         1 UNK         0.0600 
    217 H217       -8.8601  -24.5491  -45.8431 H         1 UNK         0.0600 
    218 H218       -8.1013  -26.1316  -45.7798 H         1 UNK         0.0600 
    219 H219       -9.3004  -25.7741  -47.0222 H         1 UNK         0.0600 
    220 H220       -5.9195  -23.7079  -49.1221 H         1 UNK         0.3000 
    221 H221       -7.9739  -22.3216  -50.6525 H         1 UNK         0.0600 
    222 H222       -4.9124  -22.1135  -50.7086 H         1 UNK         0.0600 
    223 H223       -5.8744  -23.2269  -51.6858 H         1 UNK         0.0600 
    224 H224       -6.0021  -21.4957  -51.9412 H         1 UNK         0.0600 
    225 H225       -7.7890  -19.9607  -51.0880 H         1 UNK         0.3000 
    226 H226       -7.6379  -18.2979  -48.6938 H         1 UNK         0.0600 
    227 H227       -9.3703  -17.8809  -50.4059 H         1 UNK         0.0600 
    228 H228       -8.2828  -16.5043  -50.3138 H         1 UNK         0.0600 
    229 H229       -8.1428  -17.6424  -51.6483 H         1 UNK         0.0600 
    230 H230       -5.4488  -18.8336  -48.1863 H         1 UNK         0.3000 
    231 H231       -3.3317  -18.3663  -47.8150 H         1 UNK         0.0600 
    232 H232       -2.1960  -16.3697  -48.6765 H         1 UNK         0.0600 
    233 H233       -3.8177  -15.9510  -48.1490 H         1 UNK         0.0600 
    234 H234       -3.4589  -16.1053  -49.8682 H         1 UNK         0.0600 
    235 H235       -4.2274  -18.7732  -51.1618 H         1 UNK         0.3000 
    236 H236       -3.4655  -20.0258  -52.8348 H         1 UNK         0.0600 
    237 H237       -1.6961  -21.6669  -52.6912 H         1 UNK         0.0600 
    238 H238       -1.0198  -20.9414  -51.2447 H         1 UNK         0.0600 
    239 H239       -2.5865  -21.7411  -51.1818 H         1 UNK         0.0600 
    240 H240       -2.8487  -17.2278  -52.2872 H         1 UNK         0.3000 
    241 H241       -0.7815  -16.8160  -54.3747 H         1 UNK         0.0600 
    242 H242       -3.0741  -14.6592  -55.9916 H         1 UNK         0.3800 
    243 H243       -1.5221  -15.4440  -56.0504 H         1 UNK         0.3800 
    244 H244       -0.3534  -14.5345  -53.2059 H         1 UNK         0.0800 
    245 H245       -1.1084  -15.2005  -51.7879 H         1 UNK         0.0800 
    246 H246       -0.0157  -17.7759  -50.8290 H         1 UNK         0.0800 
    247 H247        0.1533  -16.2460  -50.0115 H         1 UNK         0.0800 
@<TRIPOS>BOND
     1    1    2 1    
     2    1  127 1    
     3    1  128 1    
     4    1  129 1    
     5    2    3 2    
     6    2    4 am   BACKBONE|DICT|INTERRES
     7    4    5 1    
     8    4  130 1    
     9    5    6 1    
    10    5   65 1    
    11    5  131 1    
    12    6    7 1    
    13    6  132 1    
    14    6  133 1    
    15    7    8 1    
    16    8    9 1    
    17    8  134 1    
    18    8  135 1    
    19    9   10 ar   
    20    9   14 ar   
    21   10   11 ar   
    22   10  136 1    
    23   11   12 ar   
    24   11  126 1    
    25   12   13 ar   
    26   12  137 1    
    27   13   14 ar   
    28   13   15 1    
    29   14  138 1    
    30   15   16 1    
    31   15  139 1    
    32   15  140 1    
    33   16   17 1    
    34   17   18 1    
    35   17  141 1    
    36   17  142 1    
    37   18   19 1    
    38   18   67 1    
    39   18  143 1    
    40   19   20 am   BACKBONE|DICT|INTERRES
    41   19  144 1    
    42   20   21 2    
    43   20   22 1    
    44   22   23 1    
    45   22   24 1    
    46   22  145 1    
    47   23  146 1    
    48   23  147 1    
    49   23  148 1    
    50   24   25 am   BACKBONE|DICT|INTERRES
    51   24  149 1    
    52   25   26 2    
    53   25   27 1    
    54   27   28 1    
    55   27   29 1    
    56   27  150 1    
    57   28  151 1    
    58   28  152 1    
    59   28  153 1    
    60   29   30 am   BACKBONE|DICT|INTERRES
    61   29  154 1    
    62   30   31 2    
    63   30   32 1    
    64   32   33 1    
    65   32   34 1    
    66   32  155 1    
    67   33  156 1    
    68   33  157 1    
    69   33  158 1    
    70   34   35 am   BACKBONE|DICT|INTERRES
    71   34  159 1    
    72   35   36 2    
    73   35   37 1    
    74   37   38 1    
    75   37   39 1    
    76   37  160 1    
    77   38  161 1    
    78   38  162 1    
    79   38  163 1    
    80   39   40 am   BACKBONE|DICT|INTERRES
    81   39  164 1    
    82   40   41 2    
    83   40   42 1    
    84   42   43 1    
    85   42   44 1    
    86   42  165 1    
    87   43  166 1    
    88   43  167 1    
    89   43  168 1    
    90   44   45 am   BACKBONE|DICT|INTERRES
    91   44  169 1    
    92   45   46 2    
    93   45   47 1    
    94   47   48 1    
    95   47   49 1    
    96   47  170 1    
    97   48  171 1    
    98   48  172 1    
    99   48  173 1    
   100   49   50 am   BACKBONE|DICT|INTERRES
   101   49  174 1    
   102   50   51 2    
   103   50   52 1    
   104   52   53 1    
   105   52   54 1    
   106   52  175 1    
   107   53  176 1    
   108   53  177 1    
   109   53  178 1    
   110   54   55 am   BACKBONE|DICT|INTERRES
   111   54  179 1    
   112   55   56 2    
   113   55   57 1    
   114   57   58 1    
   115   57   59 1    
   116   57  180 1    
   117   58  181 1    
   118   58  182 1    
   119   58  183 1    
   120   59   60 am   BACKBONE|DICT|INTERRES
   121   59  184 1    
   122   60   61 2    
   123   60   62 1    
   124   62   63 1    
   125   62   64 1    
   126   62  185 1    
   127   63  186 1    
   128   63  187 1    
   129   63  188 1    
   130   64   65 am   BACKBONE|DICT|INTERRES
   131   64  189 1    
   132   65   66 2    
   133   67   68 2    
   134   67   69 am   BACKBONE|DICT|INTERRES
   135   69   70 1    
   136   69  190 1    
   137   70   71 1    
   138   70   72 1    
   139   70  191 1    
   140   71  192 1    
   141   71  193 1    
   142   71  194 1    
   143   72   73 2    
   144   72   74 am   BACKBONE|DICT|INTERRES
   145   74   75 1    
   146   74  195 1    
   147   75   76 1    
   148   75   77 1    
   149   75  196 1    
   150   76  197 1    
   151   76  198 1    
   152   76  199 1    
   153   77   78 2    
   154   77   79 am   BACKBONE|DICT|INTERRES
   155   79   80 1    
   156   79  200 1    
   157   80   81 1    
   158   80   82 1    
   159   80  201 1    
   160   81  202 1    
   161   81  203 1    
   162   81  204 1    
   163   82   83 2    
   164   82   84 am   BACKBONE|DICT|INTERRES
   165   84   85 1    
   166   84  205 1    
   167   85   86 1    
   168   85   87 1    
   169   85  206 1    
   170   86  207 1    
   171   86  208 1    
   172   86  209 1    
   173   87   88 2    
   174   87   89 am   BACKBONE|DICT|INTERRES
   175   89   90 1    
   176   89  210 1    
   177   90   91 1    
   178   90   92 1    
   179   90  211 1    
   180   91  212 1    
   181   91  213 1    
   182   91  214 1    
   183   92   93 2    
   184   92   94 am   BACKBONE|DICT|INTERRES
   185   94   95 1    
   186   94  215 1    
   187   95   96 1    
   188   95   97 1    
   189   95  216 1    
   190   96  217 1    
   191   96  218 1    
   192   96  219 1    
   193   97   98 2    
   194   97   99 am   BACKBONE|DICT|INTERRES
   195   99  100 1    
   196   99  220 1    
   197  100  101 1    
   198  100  102 1    
   199  100  221 1    
   200  101  222 1    
   201  101  223 1    
   202  101  224 1    
   203  102  103 2    
   204  102  104 am   BACKBONE|DICT|INTERRES
   205  104  105 1    
   206  104  225 1    
   207  105  106 1    
   208  105  107 1    
   209  105  226 1    
   210  106  227 1    
   211  106  228 1    
   212  106  229 1    
   213  107  108 2    
   214  107  109 am   BACKBONE|DICT|INTERRES
   215  109  110 1    
   216  109  230 1    
   217  110  111 1    
   218  110  112 1    
   219  110  231 1    
   220  111  232 1    
   221  111  233 1    
   222  111  234 1    
   223  112  113 2    
   224  112  114 am   BACKBONE|DICT|INTERRES
   225  114  115 1    
   226  114  235 1    
   227  115  116 1    
   228  115  117 1    
   229  115  236 1    
   230  116  237 1    
   231  116  238 1    
   232  116  239 1    
   233  117  118 2    
   234  117  119 am   BACKBONE|DICT|INTERRES
   235  119  120 1    
   236  119  240 1    
   237  120  121 1    
   238  120  124 1    
   239  120  241 1    
   240  121  122 am   BACKBONE|DICT|INTERRES
   241  121  123 2    
   242  122  242 1    
   243  122  243 1    
   244  124  125 1    
   245  124  244 1    
   246  124  245 1    
   247  125  126 1    
   248  126  246 1    
   249  126  247 1    
@<TRIPOS>SUBSTRUCTURE
     1 UNK         1 GROUP             0       ****    0 ROOT    
