@<TRIPOS>MOLECULE
3R540
247   249    1
SMALL
USER_CHARGES


@<TRIPOS>ATOM
      1 CA         -3.9365  -15.3115  -42.6164 C.3       0 UNK        -0.1800 
      2 C          -3.6212  -14.2138  -43.6220 C.2       0 UNK         0.5000 
      3 O          -4.4295  -13.3053  -43.8170 O.2       0 UNK        -0.5000 
      4 N          -2.4545  -14.3064  -44.2687 N.am      1 UNK        -0.5000 
      5 CA         -1.9521  -13.3352  -45.2454 C.3       1 UNK         0.1400 
      6 C6         -0.7577  -13.9044  -46.0517 C.3       23 UNK        -0.0398 
      7 S7         -1.2108  -15.3726  -47.0281 S.3       23 UNK        -0.2404 
      8 C8         -1.6747  -14.6167  -48.6167 C.3       23 UNK        -0.0205 
      9 C9         -2.0847  -15.6794  -49.6237 C.ar      23 UNK        -0.0193 
     10 C10        -1.2867  -15.9502  -50.7402 C.ar      23 UNK        -0.1150 
     11 C11        -1.6563  -16.9447  -51.6513 C.ar      23 UNK        -0.0193 
     12 C12        -2.8322  -17.6701  -51.4333 C.ar      23 UNK        -0.1150 
     13 C13        -3.6348  -17.4132  -50.3192 C.ar      23 UNK        -0.0193 
     14 C14        -3.2614  -16.4070  -49.4254 C.ar      23 UNK        -0.1150 
     15 C15        -4.8891  -18.2371  -50.0609 C.3       23 UNK        -0.0205 
     16 S16        -4.5342  -20.0114  -49.8314 S.3       23 UNK        -0.2404 
     17 C17        -3.3802  -19.9943  -48.4151 C.3       23 UNK        -0.0398 
     18 CA         -2.5647  -21.3123  -48.3289 C.3       11 UNK         0.1400 
     19 N          -1.1204  -21.0750  -48.2405 N.am      11 UNK        -0.5000 
     20 C          -0.1878  -22.0238  -48.4004 C.2       10 UNK         0.5000 
     21 O          -0.4541  -23.1965  -48.6582 O.2       10 UNK        -0.5000 
     22 CA          1.2846  -21.6159  -48.2102 C.3       10 UNK         0.1400 
     23 CB          1.9207  -21.3112  -49.5749 C.3       10 UNK        -0.1800 
     24 N           1.5153  -20.4788  -47.3109 N.am      10 UNK        -0.5000 
     25 C           1.0855  -20.3652  -46.0460 C.2       9 UNK         0.5000 
     26 O           0.3191  -21.1683  -45.5072 O.2       9 UNK        -0.5000 
     27 CA          1.5686  -19.1124  -45.2883 C.3       9 UNK         0.1400 
     28 CB          0.8035  -17.8710  -45.7642 C.3       9 UNK        -0.1800 
     29 N           1.4069  -19.2186  -43.8400 N.am      9 UNK        -0.5000 
     30 C           2.0435  -20.0870  -43.0422 C.2       8 UNK         0.5000 
     31 O           2.9187  -20.8576  -43.4409 O.2       8 UNK        -0.5000 
     32 CA          1.6514  -20.0934  -41.5495 C.3       8 UNK         0.1400 
     33 CB          2.8905  -20.0148  -40.6406 C.3       8 UNK        -0.1800 
     34 N           0.7379  -18.9991  -41.2055 N.am      8 UNK        -0.5000 
     35 C          -0.5995  -19.0941  -41.1929 C.2       7 UNK         0.5000 
     36 O          -1.2047  -20.1349  -41.4466 O.2       7 UNK        -0.5000 
     37 CA         -1.4117  -17.8310  -40.8411 C.3       7 UNK         0.1400 
     38 CB         -2.0813  -17.9837  -39.4664 C.3       7 UNK        -0.1800 
     39 N          -0.6194  -16.6011  -40.8379 N.am      7 UNK        -0.5000 
     40 C          -0.2465  -15.9176  -41.9268 C.2       6 UNK         0.5000 
     41 O          -0.5580  -16.2421  -43.0741 O.2       6 UNK        -0.5000 
     42 CA          0.6235  -14.6612  -41.7055 C.3       6 UNK         0.1400 
     43 CB          0.8316  -14.2855  -40.2215 C.3       6 UNK        -0.1800 
     44 N           1.9204  -14.7510  -42.3782 N.am      6 UNK        -0.5000 
     45 C           2.8249  -15.7369  -42.2663 C.2       5 UNK         0.5000 
     46 O           2.6530  -16.7495  -41.5877 O.2       5 UNK        -0.5000 
     47 CA          4.1590  -15.5583  -43.0207 C.3       5 UNK         0.1400 
     48 CB          4.1090  -16.2784  -44.3759 C.3       5 UNK        -0.1800 
     49 N           4.5203  -14.1556  -43.2370 N.am      5 UNK        -0.5000 
     50 C           4.8458  -13.2920  -42.2644 C.2       4 UNK         0.5000 
     51 O           4.9896  -13.6190  -41.0856 O.2       4 UNK        -0.5000 
     52 CA          5.0255  -11.8104  -42.6595 C.3       4 UNK         0.1400 
     53 CB          6.5186  -11.4517  -42.7198 C.3       4 UNK        -0.1800 
     54 N           4.3931  -11.4055  -43.9224 N.am      4 UNK        -0.5000 
     55 C           3.0891  -11.4947  -44.2174 C.2       3 UNK         0.5000 
     56 O           2.2592  -12.0542  -43.4971 O.2       3 UNK        -0.5000 
     57 CA          2.6620  -10.9081  -45.5769 C.3       3 UNK         0.1400 
     58 CB          2.9788  -11.9025  -46.7059 C.3       3 UNK        -0.1800 
     59 N           1.2332  -10.6019  -45.6206 N.am      3 UNK        -0.5000 
     60 C           0.6083   -9.6558  -44.9045 C.2       2 UNK         0.5000 
     61 O           1.1929   -8.8271  -44.2051 O.2       2 UNK        -0.5000 
     62 CA         -0.9337   -9.6353  -44.9855 C.3       2 UNK         0.1400 
     63 CB         -1.4069   -8.5641  -45.9802 C.3       2 UNK        -0.1800 
     64 N          -1.4954  -10.9330  -45.3777 N.am      2 UNK        -0.5000 
     65 C          -1.5448  -12.0054  -44.5746 C.2       1 UNK         0.5000 
     66 O          -1.2366  -11.9762  -43.3811 O.2       1 UNK        -0.5000 
     67 C          -3.0911  -22.2470  -47.2189 C.2       11 UNK         0.5000 
     68 O          -4.0639  -22.9638  -47.4535 O.2       11 UNK        -0.5000 
     69 N          -2.4286  -22.2656  -46.0520 N.am      12 UNK        -0.5000 
     70 CA         -2.7394  -23.1902  -44.9612 C.3       12 UNK         0.1400 
     71 CB         -2.0784  -22.7036  -43.6636 C.3       12 UNK        -0.1800 
     72 C          -2.3054  -24.6291  -45.2922 C.2       12 UNK         0.5000 
     73 O          -3.0462  -25.5685  -45.0024 O.2       12 UNK        -0.5000 
     74 N          -1.1340  -24.7713  -45.9289 N.am      13 UNK        -0.5000 
     75 CA         -0.5896  -26.0489  -46.3938 C.3       13 UNK         0.1400 
     76 CB          0.8978  -25.8757  -46.7382 C.3       13 UNK        -0.1800 
     77 C          -1.3704  -26.6127  -47.5953 C.2       13 UNK         0.5000 
     78 O          -1.6051  -27.8196  -47.6597 O.2       13 UNK        -0.5000 
     79 N          -1.7857  -25.7219  -48.5059 N.am      14 UNK        -0.5000 
     80 CA         -2.6054  -26.0303  -49.6790 C.3       14 UNK         0.1400 
     81 CB         -2.4916  -24.8657  -50.6743 C.3       14 UNK        -0.1800 
     82 C          -4.0876  -26.3003  -49.3458 C.2       14 UNK         0.5000 
     83 O          -4.8211  -26.7480  -50.2260 O.2       14 UNK        -0.5000 
     84 N          -4.5086  -26.0060  -48.1063 N.am      15 UNK        -0.5000 
     85 CA         -5.8721  -26.1210  -47.5786 C.3       15 UNK         0.1400 
     86 CB         -6.3175  -27.5970  -47.5140 C.3       15 UNK        -0.1800 
     87 C          -6.8644  -25.2121  -48.3337 C.2       15 UNK         0.5000 
     88 O          -7.9130  -25.6695  -48.7909 O.2       15 UNK        -0.5000 
     89 N          -6.4836  -23.9332  -48.4567 N.am      16 UNK        -0.5000 
     90 CA         -7.1999  -22.8249  -49.0974 C.3       16 UNK         0.1400 
     91 CB         -8.5869  -22.6025  -48.4592 C.3       16 UNK        -0.1800 
     92 C          -7.2641  -22.8991  -50.6375 C.2       16 UNK         0.5000 
     93 O          -7.9580  -22.0842  -51.2493 O.2       16 UNK        -0.5000 
     94 N          -6.5254  -23.8318  -51.2556 N.am      17 UNK        -0.5000 
     95 CA         -6.3630  -23.9331  -52.7050 C.3       17 UNK         0.1400 
     96 CB         -5.9484  -25.3656  -53.0799 C.3       17 UNK        -0.1800 
     97 C          -5.3479  -22.8841  -53.1923 C.2       17 UNK         0.5000 
     98 O          -4.1722  -23.2001  -53.3859 O.2       17 UNK        -0.5000 
     99 N          -5.8194  -21.6413  -53.3578 N.am      18 UNK        -0.5000 
    100 CA        -5.0226  -20.4680  -53.7282 C.3       18 UNK         0.1400 
    101 CB        -5.9372  -19.2382  -53.8133 C.3       18 UNK        -0.1800 
    102 C         -4.2230  -20.6377  -55.0335 C.2       18 UNK         0.5000 
    103 O         -3.0813  -20.1872  -55.1119 O.2       18 UNK        -0.5000 
    104 N         -4.8178  -21.3351  -56.0114 N.am      19 UNK        -0.5000 
    105 CA        -4.2009  -21.6694  -57.2964 C.3       19 UNK         0.1400 
    106 CB        -5.2608  -22.3053  -58.2086 C.3       19 UNK        -0.1800 
    107 C         -2.9713  -22.5920  -57.1735 C.2       19 UNK         0.5000 
    108 O         -2.0769  -22.5143  -58.0164 O.2       19 UNK        -0.5000 
    109 N         -2.9408  -23.4342  -56.1311 N.am      20 UNK        -0.5000 
    110 CA        -1.7915  -24.2667  -55.7855 C.3       20 UNK         0.1400 
    111 CB        -2.2703  -25.5446  -55.0773 C.3       20 UNK        -0.1800 
    112 C         -0.8031  -23.4845  -54.9060 C.2       20 UNK         0.5000 
    113 O          0.3992  -23.5160  -55.1712 O.2       20 UNK        -0.5000 
    114 N         -1.3314  -22.7810  -53.8930 N.am      21 UNK        -0.5000 
    115 CA        -0.5760  -22.0039  -52.9078 C.3       21 UNK         0.1400 
    116 CB        -1.5525  -21.3676  -51.9111 C.3       21 UNK        -0.1800 
    117 C          0.3117  -20.9108  -53.5247 C.2       21 UNK         0.5000 
    118 O          1.4687  -20.7725  -53.1272 O.2       21 UNK        -0.5000 
    119 N         -0.2475  -20.1557  -54.4782 N.am      22 UNK        -0.5000 
    120 CA         0.4419  -19.0642  -55.1840 C.3       22 UNK         0.1400 
    121 C          1.3642  -19.5475  -56.3454 C.2       22 UNK         0.5000 
    122 N          1.4867  -20.8418  -56.6188 N.am      22 UNK        -0.7600 
    123 O          1.9960  -18.7294  -57.0085 O.2       22 UNK        -0.5000 
    124 C124       -0.5498  -17.9698  -55.6688 C.3       23 UNK        -0.0398 
    125 S125       -1.6588  -17.2040  -54.4222 S.3       23 UNK        -0.2404 
    126 C126       -0.7595  -17.2817  -52.8350 C.3       23 UNK        -0.0205 
    127 H127       -3.4876  -16.2572  -42.9193 H         1 UNK         0.0600 
    128 H128       -5.0133  -15.4620  -42.5376 H         1 UNK         0.0600 
    129 H129       -3.5530  -15.0443  -41.6316 H         1 UNK         0.0600 
    130 H130       -1.8218  -15.0688  -44.0445 H         1 UNK         0.3000 
    131 H131       -2.7642  -13.1159  -45.9421 H         1 UNK         0.0600 
    132 H132        0.0555  -14.1847  -45.3787 H         1 UNK         0.0800 
    133 H133       -0.3433  -13.1588  -46.7317 H         1 UNK         0.0800 
    134 H134       -0.8383  -14.0287  -48.9978 H         1 UNK         0.0800 
    135 H135       -2.5036  -13.9241  -48.4646 H         1 UNK         0.0800 
    136 H136       -0.3703  -15.3971  -50.8912 H         1 UNK         0.1150 
    137 H137       -3.1144  -18.4489  -52.1257 H         1 UNK         0.1150 
    138 H138       -3.8708  -16.2039  -48.5558 H         1 UNK         0.1150 
    139 H139       -5.4206  -17.8704  -49.1815 H         1 UNK         0.0800 
    140 H140       -5.5711  -18.1159  -50.9022 H         1 UNK         0.0800 
    141 H141       -3.9439  -19.7882  -47.5030 H         1 UNK         0.0800 
    142 H142       -2.7062  -19.1460  -48.5321 H         1 UNK         0.0800 
    143 H143       -2.7079  -21.8676  -49.2556 H         1 UNK         0.0600 
    144 H144       -0.8197  -20.1389  -48.0137 H         1 UNK         0.3000 
    145 H145        1.7987  -22.4765  -47.7779 H         1 UNK         0.0600 
    146 H146        2.9928  -21.1374  -49.4829 H         1 UNK         0.0600 
    147 H147        1.7883  -22.1455  -50.2656 H         1 UNK         0.0600 
    148 H148        1.4755  -20.4303  -50.0396 H         1 UNK         0.0600 
    149 H149        2.1175  -19.7546  -47.6750 H         1 UNK         0.3000 
    150 H150        2.6307  -18.9774  -45.5003 H         1 UNK         0.0600 
    151 H151        0.9393  -17.7035  -46.8332 H         1 UNK         0.0600 
    152 H152        1.1462  -16.9719  -45.2518 H         1 UNK         0.0600 
    153 H153       -0.2673  -17.9670  -45.5791 H         1 UNK         0.0600 
    154 H154        0.7016  -18.6276  -43.4247 H         1 UNK         0.3000 
    155 H155        1.1643  -21.0513  -41.3563 H         1 UNK         0.0600 
    156 H156        3.4811  -19.1198  -40.8354 H         1 UNK         0.0600 
    157 H157        3.5433  -20.8749  -40.7937 H         1 UNK         0.0600 
    158 H158        2.6079  -20.0082  -39.5878 H         1 UNK         0.0600 
    159 H159        1.1758  -18.0967  -41.0506 H         1 UNK         0.3000 
    160 H160       -2.1986  -17.7394  -41.5913 H         1 UNK         0.0600 
    161 H161       -1.3441  -18.0789  -38.6682 H         1 UNK         0.0600 
    162 H162       -2.7154  -18.8707  -39.4351 H         1 UNK         0.0600 
    163 H163       -2.7151  -17.1262  -39.2394 H         1 UNK         0.0600 
    164 H164       -0.3046  -16.2735  -39.9361 H         1 UNK         0.3000 
    165 H165        0.0908  -13.8387  -42.1806 H         1 UNK         0.0600 
    166 H166        1.3847  -15.0510  -39.6758 H         1 UNK         0.0600 
    167 H167        1.3935  -13.3550  -40.1365 H         1 UNK         0.0600 
    168 H168       -0.1209  -14.1274  -39.7140 H         1 UNK         0.0600 
    169 H169        2.1606  -13.9386  -42.9384 H         1 UNK         0.3000 
    170 H170        4.9419  -16.0214  -42.4165 H         1 UNK         0.0600 
    171 H171        3.8768  -17.3353  -44.2420 H         1 UNK         0.0600 
    172 H172        3.3494  -15.8518  -45.0320 H         1 UNK         0.0600 
    173 H173        5.0687  -16.2212  -44.8897 H         1 UNK         0.0600 
    174 H174        4.4343  -13.8017  -44.1778 H         1 UNK         0.3000 
    175 H175        4.5660  -11.2168  -41.8666 H         1 UNK         0.0600 
    176 H176        7.0277  -11.9876  -43.5218 H         1 UNK         0.0600 
    177 H177        6.6630  -10.3836  -42.8834 H         1 UNK         0.0600 
    178 H178        7.0216  -11.7048  -41.7854 H         1 UNK         0.0600 
    179 H179        5.0049  -10.9604  -44.5914 H         1 UNK         0.3000 
    180 H180        3.2161   -9.9830  -45.7485 H         1 UNK         0.0600 
    181 H181        2.7001  -11.4971  -47.6788 H         1 UNK         0.0600 
    182 H182        2.4496  -12.8472  -46.5720 H         1 UNK         0.0600 
    183 H183        4.0453  -12.1276  -46.7458 H         1 UNK         0.0600 
    184 H184        0.6618  -11.2298  -46.1611 H         1 UNK         0.3000 
    185 H185       -1.3138   -9.3741  -43.9954 H         1 UNK         0.0600 
    186 H186       -2.4950   -8.4989  -46.0019 H         1 UNK         0.0600 
    187 H187       -1.0294   -7.5792  -45.7019 H         1 UNK         0.0600 
    188 H188       -1.0616   -8.7733  -46.9935 H         1 UNK         0.0600 
    189 H189       -1.7975  -11.0161  -46.3380 H         1 UNK         0.3000 
    190 H190       -1.6002  -21.6901  -45.9354 H         1 UNK         0.3000 
    191 H191       -3.8208  -23.1918  -44.8075 H         1 UNK         0.0600 
    192 H192       -2.3474  -23.3457  -42.8241 H         1 UNK         0.0600 
    193 H193       -2.3994  -21.6921  -43.4149 H         1 UNK         0.0600 
    194 H194       -0.9904  -22.6997  -43.7362 H         1 UNK         0.0600 
    195 H195       -0.6054  -23.9416  -46.1561 H         1 UNK         0.3000 
    196 H196       -0.6666  -26.7702  -45.5773 H         1 UNK         0.0600 
    197 H197        1.0468  -25.1635  -47.5502 H         1 UNK         0.0600 
    198 H198        1.4640  -25.5239  -45.8756 H         1 UNK         0.0600 
    199 H199        1.3373  -26.8238  -47.0504 H         1 UNK         0.0600 
    200 H200       -1.4697  -24.7591  -48.4183 H         1 UNK         0.3000 
    201 H201       -2.2034  -26.9277  -50.1534 H         1 UNK         0.0600 
    202 H202       -2.9771  -23.9696  -50.2891 H         1 UNK         0.0600 
    203 H203       -2.9659  -25.1115  -51.6236 H         1 UNK         0.0600 
    204 H204       -1.4512  -24.6222  -50.8903 H         1 UNK         0.0600 
    205 H205       -3.8294  -25.6140  -47.4689 H         1 UNK         0.3000 
    206 H206       -5.8336  -25.7470  -46.5543 H         1 UNK         0.0600 
    207 H207       -5.6013  -28.1992  -46.9549 H         1 UNK         0.0600 
    208 H208       -7.2815  -27.6903  -47.0129 H         1 UNK         0.0600 
    209 H209       -6.4225  -28.0364  -48.5063 H         1 UNK         0.0600 
    210 H210       -5.5802  -23.6714  -48.0608 H         1 UNK         0.3000 
    211 H211       -6.6048  -21.9392  -48.8748 H         1 UNK         0.0600 
    212 H212       -9.0318  -21.6700  -48.8081 H         1 UNK         0.0600 
    213 H213       -8.5164  -22.5390  -47.3733 H         1 UNK         0.0600 
    214 H214       -9.2826  -23.4045  -48.7062 H         1 UNK         0.0600 
    215 H215       -5.9843  -24.4729  -50.6929 H         1 UNK         0.3000 
    216 H216       -7.3209  -23.7335  -53.1901 H         1 UNK         0.0600 
    217 H217       -4.9891  -25.6414  -52.6445 H         1 UNK         0.0600 
    218 H218       -5.8567  -25.4732  -54.1613 H         1 UNK         0.0600 
    219 H219       -6.6876  -26.0914  -52.7406 H         1 UNK         0.0600 
    220 H220       -6.7837  -21.4687  -53.1030 H         1 UNK         0.3000 
    221 H221       -4.3116  -20.3024  -52.9204 H         1 UNK         0.0600 
    222 H222       -6.4838  -19.0867  -52.8829 H         1 UNK         0.0600 
    223 H223       -6.6681  -19.3345  -54.6172 H         1 UNK         0.0600 
    224 H224       -5.3560  -18.3341  -54.0012 H         1 UNK         0.0600 
    225 H225       -5.7539  -21.6774  -55.8530 H         1 UNK         0.3000 
    226 H226       -3.8658  -20.7378  -57.7570 H         1 UNK         0.0600 
    227 H227       -5.6531  -23.2308  -57.7850 H         1 UNK         0.0600 
    228 H228       -6.0990  -21.6278  -58.3724 H         1 UNK         0.0600 
    229 H229       -4.8417  -22.5439  -59.1870 H         1 UNK         0.0600 
    230 H230       -3.6865  -23.3936  -55.4480 H         1 UNK         0.3000 
    231 H231       -1.2702  -24.5680  -56.6968 H         1 UNK         0.0600 
    232 H232       -2.7904  -25.3268  -54.1447 H         1 UNK         0.0600 
    233 H233       -1.4276  -26.1936  -54.8365 H         1 UNK         0.0600 
    234 H234       -2.9490  -26.1146  -55.7117 H         1 UNK         0.0600 
    235 H235       -2.3357  -22.8341  -53.7467 H         1 UNK         0.3000 
    236 H236        0.0665  -22.7001  -52.3651 H         1 UNK         0.0600 
    237 H237       -2.2288  -22.1073  -51.4890 H         1 UNK         0.0600 
    238 H238       -1.0173  -20.8919  -51.0898 H         1 UNK         0.0600 
    239 H239       -2.1581  -20.5983  -52.3854 H         1 UNK         0.0600 
    240 H240       -1.2212  -20.3072  -54.7318 H         1 UNK         0.3000 
    241 H241        1.1227  -18.5849  -54.4789 H         1 UNK         0.0600 
    242 H242        2.0912  -21.1328  -57.3707 H         1 UNK         0.3800 
    243 H243        1.0057  -21.5383  -56.0658 H         1 UNK         0.3800 
    244 H244       -1.1881  -18.3808  -56.4528 H         1 UNK         0.0800 
    245 H245        0.0017  -17.1524  -56.1362 H         1 UNK         0.0800 
    246 H246       -0.3657  -18.2782  -52.6541 H         1 UNK         0.0800 
    247 H247        0.0983  -16.6094  -52.8820 H         1 UNK         0.0800 
@<TRIPOS>BOND
     1    1    2 1    
     2    1  127 1    
     3    1  128 1    
     4    1  129 1    
     5    2    3 2    
     6    2    4 am   BACKBONE|DICT|INTERRES
     7    4    5 1    
     8    4  130 1    
     9    5    6 1    
    10    5   65 1    
    11    5  131 1    
    12    6    7 1    
    13    6  132 1    
    14    6  133 1    
    15    7    8 1    
    16    8    9 1    
    17    8  134 1    
    18    8  135 1    
    19    9   10 ar   
    20    9   14 ar   
    21   10   11 ar   
    22   10  136 1    
    23   11   12 ar   
    24   11  126 1    
    25   12   13 ar   
    26   12  137 1    
    27   13   14 ar   
    28   13   15 1    
    29   14  138 1    
    30   15   16 1    
    31   15  139 1    
    32   15  140 1    
    33   16   17 1    
    34   17   18 1    
    35   17  141 1    
    36   17  142 1    
    37   18   19 1    
    38   18   67 1    
    39   18  143 1    
    40   19   20 am   BACKBONE|DICT|INTERRES
    41   19  144 1    
    42   20   21 2    
    43   20   22 1    
    44   22   23 1    
    45   22   24 1    
    46   22  145 1    
    47   23  146 1    
    48   23  147 1    
    49   23  148 1    
    50   24   25 am   BACKBONE|DICT|INTERRES
    51   24  149 1    
    52   25   26 2    
    53   25   27 1    
    54   27   28 1    
    55   27   29 1    
    56   27  150 1    
    57   28  151 1    
    58   28  152 1    
    59   28  153 1    
    60   29   30 am   BACKBONE|DICT|INTERRES
    61   29  154 1    
    62   30   31 2    
    63   30   32 1    
    64   32   33 1    
    65   32   34 1    
    66   32  155 1    
    67   33  156 1    
    68   33  157 1    
    69   33  158 1    
    70   34   35 am   BACKBONE|DICT|INTERRES
    71   34  159 1    
    72   35   36 2    
    73   35   37 1    
    74   37   38 1    
    75   37   39 1    
    76   37  160 1    
    77   38  161 1    
    78   38  162 1    
    79   38  163 1    
    80   39   40 am   BACKBONE|DICT|INTERRES
    81   39  164 1    
    82   40   41 2    
    83   40   42 1    
    84   42   43 1    
    85   42   44 1    
    86   42  165 1    
    87   43  166 1    
    88   43  167 1    
    89   43  168 1    
    90   44   45 am   BACKBONE|DICT|INTERRES
    91   44  169 1    
    92   45   46 2    
    93   45   47 1    
    94   47   48 1    
    95   47   49 1    
    96   47  170 1    
    97   48  171 1    
    98   48  172 1    
    99   48  173 1    
   100   49   50 am   BACKBONE|DICT|INTERRES
   101   49  174 1    
   102   50   51 2    
   103   50   52 1    
   104   52   53 1    
   105   52   54 1    
   106   52  175 1    
   107   53  176 1    
   108   53  177 1    
   109   53  178 1    
   110   54   55 am   BACKBONE|DICT|INTERRES
   111   54  179 1    
   112   55   56 2    
   113   55   57 1    
   114   57   58 1    
   115   57   59 1    
   116   57  180 1    
   117   58  181 1    
   118   58  182 1    
   119   58  183 1    
   120   59   60 am   BACKBONE|DICT|INTERRES
   121   59  184 1    
   122   60   61 2    
   123   60   62 1    
   124   62   63 1    
   125   62   64 1    
   126   62  185 1    
   127   63  186 1    
   128   63  187 1    
   129   63  188 1    
   130   64   65 am   BACKBONE|DICT|INTERRES
   131   64  189 1    
   132   65   66 2    
   133   67   68 2    
   134   67   69 am   BACKBONE|DICT|INTERRES
   135   69   70 1    
   136   69  190 1    
   137   70   71 1    
   138   70   72 1    
   139   70  191 1    
   140   71  192 1    
   141   71  193 1    
   142   71  194 1    
   143   72   73 2    
   144   72   74 am   BACKBONE|DICT|INTERRES
   145   74   75 1    
   146   74  195 1    
   147   75   76 1    
   148   75   77 1    
   149   75  196 1    
   150   76  197 1    
   151   76  198 1    
   152   76  199 1    
   153   77   78 2    
   154   77   79 am   BACKBONE|DICT|INTERRES
   155   79   80 1    
   156   79  200 1    
   157   80   81 1    
   158   80   82 1    
   159   80  201 1    
   160   81  202 1    
   161   81  203 1    
   162   81  204 1    
   163   82   83 2    
   164   82   84 am   BACKBONE|DICT|INTERRES
   165   84   85 1    
   166   84  205 1    
   167   85   86 1    
   168   85   87 1    
   169   85  206 1    
   170   86  207 1    
   171   86  208 1    
   172   86  209 1    
   173   87   88 2    
   174   87   89 am   BACKBONE|DICT|INTERRES
   175   89   90 1    
   176   89  210 1    
   177   90   91 1    
   178   90   92 1    
   179   90  211 1    
   180   91  212 1    
   181   91  213 1    
   182   91  214 1    
   183   92   93 2    
   184   92   94 am   BACKBONE|DICT|INTERRES
   185   94   95 1    
   186   94  215 1    
   187   95   96 1    
   188   95   97 1    
   189   95  216 1    
   190   96  217 1    
   191   96  218 1    
   192   96  219 1    
   193   97   98 2    
   194   97   99 am   BACKBONE|DICT|INTERRES
   195   99  100 1    
   196   99  220 1    
   197  100  101 1    
   198  100  102 1    
   199  100  221 1    
   200  101  222 1    
   201  101  223 1    
   202  101  224 1    
   203  102  103 2    
   204  102  104 am   BACKBONE|DICT|INTERRES
   205  104  105 1    
   206  104  225 1    
   207  105  106 1    
   208  105  107 1    
   209  105  226 1    
   210  106  227 1    
   211  106  228 1    
   212  106  229 1    
   213  107  108 2    
   214  107  109 am   BACKBONE|DICT|INTERRES
   215  109  110 1    
   216  109  230 1    
   217  110  111 1    
   218  110  112 1    
   219  110  231 1    
   220  111  232 1    
   221  111  233 1    
   222  111  234 1    
   223  112  113 2    
   224  112  114 am   BACKBONE|DICT|INTERRES
   225  114  115 1    
   226  114  235 1    
   227  115  116 1    
   228  115  117 1    
   229  115  236 1    
   230  116  237 1    
   231  116  238 1    
   232  116  239 1    
   233  117  118 2    
   234  117  119 am   BACKBONE|DICT|INTERRES
   235  119  120 1    
   236  119  240 1    
   237  120  121 1    
   238  120  124 1    
   239  120  241 1    
   240  121  122 am   BACKBONE|DICT|INTERRES
   241  121  123 2    
   242  122  242 1    
   243  122  243 1    
   244  124  125 1    
   245  124  244 1    
   246  124  245 1    
   247  125  126 1    
   248  126  246 1    
   249  126  247 1    
@<TRIPOS>SUBSTRUCTURE
     1 UNK         1 GROUP             0       ****    0 ROOT    
