@<TRIPOS>MOLECULE
3R540
247   249    1
SMALL
USER_CHARGES


@<TRIPOS>ATOM
      1 CA          2.9065  -14.9018  -44.7644 C.3       0 UNK        -0.1800 
      2 C           3.1200  -15.0205  -46.2657 C.2       0 UNK         0.5000 
      3 O           4.2330  -15.3083  -46.7041 O.2       0 UNK        -0.5000 
      4 N           2.0533  -14.8121  -47.0513 N.am      1 UNK        -0.5000 
      5 CA          2.0447  -14.7973  -48.5241 C.3       1 UNK         0.1400 
      6 C6          0.6345  -14.4449  -49.0641 C.3       23 UNK        -0.0398 
      7 S7          0.6581  -13.6562  -50.7119 S.3       23 UNK        -0.2404 
      8 C8         -0.9434  -12.7815  -50.7314 C.3       23 UNK        -0.0205 
      9 C9         -2.1159  -13.7418  -50.8771 C.ar      23 UNK        -0.0193 
     10 C10        -2.6837  -13.9907  -52.1325 C.ar      23 UNK        -0.1150 
     11 C11        -3.7497  -14.8881  -52.2648 C.ar      23 UNK        -0.0193 
     12 C12        -4.2301  -15.5507  -51.1311 C.ar      23 UNK        -0.1150 
     13 C13        -3.6611  -15.3225  -49.8773 C.ar      23 UNK        -0.0193 
     14 C14        -2.6286  -14.3918  -49.7514 C.ar      23 UNK        -0.1150 
     15 C15        -4.1158  -16.1241  -48.6706 C.3       23 UNK        -0.0205 
     16 S16        -2.8422  -17.3460  -48.2407 S.3       23 UNK        -0.2404 
     17 C17        -3.8084  -18.5854  -47.3219 C.3       23 UNK        -0.0398 
     18 CA         -2.9200  -19.8046  -46.9948 C.3       11 UNK         0.1400 
     19 N          -1.8709  -19.4934  -46.0263 N.am      11 UNK        -0.5000 
     20 C          -0.7958  -20.2597  -45.8085 C.2       10 UNK         0.5000 
     21 O          -0.5916  -21.3307  -46.3793 O.2       10 UNK        -0.5000 
     22 CA          0.1967  -19.7575  -44.7488 C.3       10 UNK         0.1400 
     23 CB          1.0031  -18.5620  -45.2860 C.3       10 UNK        -0.1800 
     24 N          -0.4702  -19.3831  -43.5028 N.am      10 UNK        -0.5000 
     25 C          -1.1972  -20.2132  -42.7405 C.2       9 UNK         0.5000 
     26 O          -1.3794  -21.4031  -42.9966 O.2       9 UNK        -0.5000 
     27 CA         -1.8772  -19.5930  -41.5094 C.3       9 UNK         0.1400 
     28 CB         -0.8762  -19.4199  -40.3559 C.3       9 UNK        -0.1800 
     29 N          -2.4997  -18.3073  -41.8223 N.am      9 UNK        -0.5000 
     30 C          -3.5620  -18.1552  -42.6268 C.2       8 UNK         0.5000 
     31 O          -4.1570  -19.0883  -43.1652 O.2       8 UNK        -0.5000 
     32 CA         -3.9971  -16.7076  -42.9185 C.3       8 UNK         0.1400 
     33 CB         -4.8435  -16.1487  -41.7649 C.3       8 UNK        -0.1800 
     34 N          -2.8582  -15.8208  -43.1631 N.am      8 UNK        -0.5000 
     35 C          -2.0063  -15.9595  -44.1884 C.2       7 UNK         0.5000 
     36 O          -2.1077  -16.8315  -45.0475 O.2       7 UNK        -0.5000 
     37 CA         -0.8005  -15.0076  -44.2257 C.3       7 UNK         0.1400 
     38 CB         -1.1613  -13.6909  -44.9285 C.3       7 UNK        -0.1800 
     39 N          -0.2461  -14.7314  -42.8973 N.am      7 UNK        -0.5000 
     40 C           0.3168  -15.6617  -42.1156 C.2       6 UNK         0.5000 
     41 O           0.4051  -16.8530  -42.4246 O.2       6 UNK        -0.5000 
     42 CA          0.8401  -15.1992  -40.7530 C.3       6 UNK         0.1400 
     43 CB         -0.2691  -15.2660  -39.6900 C.3       6 UNK        -0.1800 
     44 N           1.9375  -16.0797  -40.3759 N.am      6 UNK        -0.5000 
     45 C           3.0062  -15.7320  -39.6528 C.2       5 UNK         0.5000 
     46 O           3.1483  -14.6229  -39.1358 O.2       5 UNK        -0.5000 
     47 CA          4.1106  -16.7954  -39.4749 C.3       5 UNK         0.1400 
     48 CB          3.9866  -17.4663  -38.0978 C.3       5 UNK        -0.1800 
     49 N           4.1275  -17.8386  -40.5074 N.am      5 UNK        -0.5000 
     50 C           4.4077  -17.6388  -41.8022 C.2       4 UNK         0.5000 
     51 O           4.6552  -16.5307  -42.2857 O.2       4 UNK        -0.5000 
     52 CA          4.4136  -18.8857  -42.7032 C.3       4 UNK         0.1400 
     53 CB          3.1075  -19.6953  -42.5877 C.3       4 UNK        -0.1800 
     54 N           4.6543  -18.4631  -44.0827 N.am      4 UNK        -0.5000 
     55 C           5.2585  -19.1984  -45.0221 C.2       3 UNK         0.5000 
     56 O           5.5191  -20.3957  -44.8887 O.2       3 UNK        -0.5000 
     57 CA          5.6742  -18.4438  -46.3014 C.3       3 UNK         0.1400 
     58 CB          6.8665  -19.1054  -47.0251 C.3       3 UNK        -0.1800 
     59 N           4.5615  -18.2098  -47.2269 N.am      3 UNK        -0.5000 
     60 C           3.8498  -19.1167  -47.9158 C.2       2 UNK         0.5000 
     61 O           4.0084  -20.3332  -47.8176 O.2       2 UNK        -0.5000 
     62 CA          2.7889  -18.5692  -48.8960 C.3       2 UNK         0.1400 
     63 CB          1.5767  -19.5040  -49.0507 C.3       2 UNK        -0.1800 
     64 N           2.3170  -17.2393  -48.5043 N.am      2 UNK        -0.5000 
     65 C           2.5772  -16.1020  -49.1633 C.2       1 UNK         0.5000 
     66 O           3.2331  -16.0473  -50.2041 O.2       1 UNK        -0.5000 
     67 C          -3.7492  -21.0375  -46.5967 C.2       11 UNK         0.5000 
     68 O          -4.1303  -21.7987  -47.4850 O.2       11 UNK        -0.5000 
     69 N          -3.9708  -21.2520  -45.2924 N.am      12 UNK        -0.5000 
     70 CA         -4.6076  -22.4615  -44.7703 C.3       12 UNK         0.1400 
     71 CB         -4.9644  -22.2636  -43.2892 C.3       12 UNK        -0.1800 
     72 C          -3.7342  -23.7168  -44.9577 C.2       12 UNK         0.5000 
     73 O          -4.2564  -24.7663  -45.3348 O.2       12 UNK        -0.5000 
     74 N          -2.4270  -23.5878  -44.6937 N.am      13 UNK        -0.5000 
     75 CA         -1.4587  -24.6797  -44.7707 C.3       13 UNK         0.1400 
     76 CB         -0.1898  -24.2897  -43.9957 C.3       13 UNK        -0.1800 
     77 C          -1.1060  -25.0822  -46.2132 C.2       13 UNK         0.5000 
     78 O          -1.1185  -26.2724  -46.5297 O.2       13 UNK        -0.5000 
     79 N          -0.7690  -24.0924  -47.0494 N.am      14 UNK        -0.5000 
     80 CA         -0.1798  -24.2972  -48.3754 C.3       14 UNK         0.1400 
     81 CB          1.0094  -23.3335  -48.5260 C.3       14 UNK        -0.1800 
     82 C          -1.1772  -24.1021  -49.5309 C.2       14 UNK         0.5000 
     83 O          -0.7536  -24.1297  -50.6875 O.2       14 UNK        -0.5000 
     84 N          -2.4605  -23.8567  -49.2241 N.am      15 UNK        -0.5000 
     85 CA         -3.5428  -23.5555  -50.1754 C.3       15 UNK         0.1400 
     86 CB         -3.8710  -24.7872  -51.0437 C.3       15 UNK        -0.1800 
     87 C          -3.2502  -22.2933  -51.0162 C.2       15 UNK         0.5000 
     88 O          -3.5377  -22.2607  -52.2153 O.2       15 UNK        -0.5000 
     89 N          -2.6474  -21.2918  -50.3600 N.am      16 UNK        -0.5000 
     90 CA         -2.1290  -20.0394  -50.9208 C.3       16 UNK         0.1400 
     91 CB         -3.2770  -19.1458  -51.4263 C.3       16 UNK        -0.1800 
     92 C          -1.0246  -20.2830  -51.9705 C.2       16 UNK         0.5000 
     93 O          -1.0483  -19.6915  -53.0485 O.2       16 UNK        -0.5000 
     94 N          -0.0838  -21.1737  -51.6203 N.am      17 UNK        -0.5000 
     95 CA          1.0404  -21.6495  -52.4343 C.3       17 UNK         0.1400 
     96 CB          2.0166  -20.5028  -52.7755 C.3       17 UNK        -0.1800 
     97 C           0.5577  -22.4352  -53.6696 C.2       17 UNK         0.5000 
     98 O           0.9756  -22.1538  -54.7942 O.2       17 UNK        -0.5000 
     99 N          -0.3313  -23.4072  -53.4165 N.am      18 UNK        -0.5000 
    100 CA        -0.9660  -24.3106  -54.3822 C.3       18 UNK         0.1400 
    101 CB         0.0776  -25.2518  -55.0191 C.3       18 UNK        -0.1800 
    102 C         -1.8472  -23.5936  -55.4294 C.2       18 UNK         0.5000 
    103 O         -2.0336  -24.1095  -56.5328 O.2       18 UNK        -0.5000 
    104 N         -2.4045  -22.4336  -55.0578 N.am      19 UNK        -0.5000 
    105 CA        -3.3342  -21.6484  -55.8747 C.3       19 UNK         0.1400 
    106 CB        -3.1354  -20.1593  -55.5570 C.3       19 UNK        -0.1800 
    107 C         -4.8046  -22.0608  -55.6580 C.2       19 UNK         0.5000 
    108 O         -5.6909  -21.4693  -56.2754 O.2       19 UNK        -0.5000 
    109 N         -5.0344  -23.0478  -54.7783 N.am      20 UNK        -0.5000 
    110 CA        -6.3286  -23.5647  -54.3252 C.3       20 UNK         0.1400 
    111 CB        -7.1367  -24.1709  -55.4926 C.3       20 UNK        -0.1800 
    112 C         -7.1142  -22.5217  -53.5049 C.2       20 UNK         0.5000 
    113 O         -8.3361  -22.4308  -53.6337 O.2       20 UNK        -0.5000 
    114 N         -6.3815  -21.7693  -52.6675 N.am      21 UNK        -0.5000 
    115 CA        -6.8536  -20.7079  -51.7741 C.3       21 UNK         0.1400 
    116 CB        -7.7386  -21.2888  -50.6519 C.3       21 UNK        -0.1800 
    117 C         -7.5255  -19.5584  -52.5514 C.2       21 UNK         0.5000 
    118 O         -8.7418  -19.3733  -52.4680 O.2       21 UNK        -0.5000 
    119 N         -6.7070  -18.8298  -53.3210 N.am      22 UNK        -0.5000 
    120 CA        -7.0894  -17.6390  -54.0978 C.3       22 UNK         0.1400 
    121 C         -7.7280  -16.4902  -53.2595 C.2       22 UNK         0.5000 
    122 N         -8.4934  -15.6111  -53.8930 N.am      22 UNK        -0.7600 
    123 O         -7.5176  -16.3642  -52.0555 O.2       22 UNK        -0.5000 
    124 C124       -5.9140  -17.1262  -54.9795 C.3       23 UNK        -0.0398 
    125 S125       -4.3300  -16.8980  -54.0929 S.3       23 UNK        -0.2404 
    126 C126       -4.3986  -15.1376  -53.6207 C.3       23 UNK        -0.0205 
    127 H127        2.1336  -14.1702  -44.5311 H         1 UNK         0.0600 
    128 H128        3.8257  -14.5809  -44.2740 H         1 UNK         0.0600 
    129 H129        2.6158  -15.8636  -44.3433 H         1 UNK         0.0600 
    130 H130        1.1754  -14.5744  -46.6162 H         1 UNK         0.3000 
    131 H131        2.7315  -13.9990  -48.8141 H         1 UNK         0.0600 
    132 H132        0.1519  -13.7409  -48.3849 H         1 UNK         0.0800 
    133 H133       -0.0102  -15.3259  -49.0917 H         1 UNK         0.0800 
    134 H134       -0.9418  -12.0710  -51.5593 H         1 UNK         0.0800 
    135 H135       -1.0538  -12.1856  -49.8242 H         1 UNK         0.0800 
    136 H136       -2.2954  -13.4847  -53.0052 H         1 UNK         0.1150 
    137 H137       -5.0336  -16.2663  -51.2328 H         1 UNK         0.1150 
    138 H138       -2.1960  -14.2118  -48.7781 H         1 UNK         0.1150 
    139 H139       -4.2913  -15.4629  -47.8209 H         1 UNK         0.0800 
    140 H140       -5.0605  -16.6273  -48.8822 H         1 UNK         0.0800 
    141 H141       -4.6584  -18.8779  -47.9415 H         1 UNK         0.0800 
    142 H142       -4.2141  -18.1375  -46.4129 H         1 UNK         0.0800 
    143 H143       -2.4077  -20.0865  -47.9144 H         1 UNK         0.0600 
    144 H144       -1.9522  -18.5980  -45.5478 H         1 UNK         0.3000 
    145 H145        0.8877  -20.5708  -44.5208 H         1 UNK         0.0600 
    146 H146        1.5901  -18.0782  -44.5088 H         1 UNK         0.0600 
    147 H147        1.7061  -18.8951  -46.0446 H         1 UNK         0.0600 
    148 H148        0.3634  -17.8008  -45.7326 H         1 UNK         0.0600 
    149 H149       -0.3451  -18.4236  -43.1925 H         1 UNK         0.3000 
    150 H150       -2.6611  -20.2781  -41.1795 H         1 UNK         0.0600 
    151 H151       -0.4296  -20.3769  -40.0835 H         1 UNK         0.0600 
    152 H152       -1.3653  -19.0250  -39.4653 H         1 UNK         0.0600 
    153 H153       -0.0622  -18.7443  -40.6183 H         1 UNK         0.0600 
    154 H154       -2.0421  -17.4825  -41.4661 H         1 UNK         0.3000 
    155 H155       -4.6133  -16.7214  -43.8202 H         1 UNK         0.0600 
    156 H156       -4.2709  -16.0794  -40.8392 H         1 UNK         0.0600 
    157 H157       -5.7066  -16.7868  -41.5704 H         1 UNK         0.0600 
    158 H158       -5.2227  -15.1542  -42.0005 H         1 UNK         0.0600 
    159 H159       -2.6987  -15.0807  -42.4961 H         1 UNK         0.3000 
    160 H160       -0.0248  -15.5017  -44.8128 H         1 UNK         0.0600 
    161 H161       -1.9187  -13.1339  -44.3756 H         1 UNK         0.0600 
    162 H162       -1.5566  -13.8775  -45.9283 H         1 UNK         0.0600 
    163 H163       -0.2876  -13.0485  -45.0392 H         1 UNK         0.0600 
    164 H164       -0.2960  -13.7759  -42.5736 H         1 UNK         0.3000 
    165 H165        1.2019  -14.1733  -40.8491 H         1 UNK         0.0600 
    166 H166        0.0968  -14.9309  -38.7193 H         1 UNK         0.0600 
    167 H167       -1.1102  -14.6256  -39.9579 H         1 UNK         0.0600 
    168 H168       -0.6508  -16.2806  -39.5696 H         1 UNK         0.0600 
    169 H169        1.9119  -16.9891  -40.8179 H         1 UNK         0.3000 
    170 H170        5.0690  -16.2735  -39.5143 H         1 UNK         0.0600 
    171 H171        4.0029  -16.7247  -37.2979 H         1 UNK         0.0600 
    172 H172        3.0552  -18.0266  -38.0065 H         1 UNK         0.0600 
    173 H173        4.8130  -18.1538  -37.9168 H         1 UNK         0.0600 
    174 H174        3.9351  -18.7779  -40.1909 H         1 UNK         0.3000 
    175 H175        5.2483  -19.5120  -42.3813 H         1 UNK         0.0600 
    176 H176        2.2292  -19.0523  -42.6082 H         1 UNK         0.0600 
    177 H177        3.0163  -20.4275  -43.3895 H         1 UNK         0.0600 
    178 H178        3.0742  -20.2476  -41.6485 H         1 UNK         0.0600 
    179 H179        4.5321  -17.4685  -44.2275 H         1 UNK         0.3000 
    180 H180        6.0117  -17.4553  -45.9853 H         1 UNK         0.0600 
    181 H181        6.6281  -20.1076  -47.3820 H         1 UNK         0.0600 
    182 H182        7.7232  -19.1955  -46.3563 H         1 UNK         0.0600 
    183 H183        7.1848  -18.5119  -47.8821 H         1 UNK         0.0600 
    184 H184        4.3331  -17.2299  -47.3595 H         1 UNK         0.3000 
    185 H185        3.2820  -18.5212  -49.8687 H         1 UNK         0.0600 
    186 H186        1.8844  -20.4735  -49.4423 H         1 UNK         0.0600 
    187 H187        1.0637  -19.6775  -48.1067 H         1 UNK         0.0600 
    188 H188        0.8537  -19.0871  -49.7511 H         1 UNK         0.0600 
    189 H189        1.7960  -17.1817  -47.6422 H         1 UNK         0.3000 
    190 H190       -3.6650  -20.5651  -44.6121 H         1 UNK         0.3000 
    191 H191       -5.5376  -22.6195  -45.3207 H         1 UNK         0.0600 
    192 H192       -4.0813  -22.0509  -42.6859 H         1 UNK         0.0600 
    193 H193       -5.4374  -23.1560  -42.8777 H         1 UNK         0.0600 
    194 H194       -5.6636  -21.4373  -43.1607 H         1 UNK         0.0600 
    195 H195       -2.0805  -22.6995  -44.3438 H         1 UNK         0.3000 
    196 H196       -1.8917  -25.5539  -44.2795 H         1 UNK         0.0600 
    197 H197        0.5550  -25.0856  -44.0353 H         1 UNK         0.0600 
    198 H198       -0.4127  -24.1052  -42.9447 H         1 UNK         0.0600 
    199 H199        0.2697  -23.3872  -44.4014 H         1 UNK         0.0600 
    200 H200       -0.7829  -23.1313  -46.7109 H         1 UNK         0.3000 
    201 H201        0.2074  -25.3143  -48.4626 H         1 UNK         0.0600 
    202 H202        1.7281  -23.4629  -47.7166 H         1 UNK         0.0600 
    203 H203        0.6826  -22.2945  -48.5160 H         1 UNK         0.0600 
    204 H204        1.5445  -23.5035  -49.4610 H         1 UNK         0.0600 
    205 H205       -2.7135  -23.8224  -48.2456 H         1 UNK         0.3000 
    206 H206       -4.4308  -23.3313  -49.5840 H         1 UNK         0.0600 
    207 H207       -4.7655  -24.6136  -51.6413 H         1 UNK         0.0600 
    208 H208       -4.0620  -25.6642  -50.4254 H         1 UNK         0.0600 
    209 H209       -3.0602  -25.0317  -51.7299 H         1 UNK         0.0600 
    210 H210       -2.4785  -21.4429  -49.3763 H         1 UNK         0.3000 
    211 H211       -1.6441  -19.5071  -50.1021 H         1 UNK         0.0600 
    212 H212       -2.8958  -18.1747  -51.7435 H         1 UNK         0.0600 
    213 H213       -4.0089  -18.9606  -50.6408 H         1 UNK         0.0600 
    214 H214       -3.7958  -19.5886  -52.2744 H         1 UNK         0.0600 
    215 H215       -0.2003  -21.6486  -50.7380 H         1 UNK         0.3000 
    216 H216        1.5848  -22.3636  -51.8147 H         1 UNK         0.0600 
    217 H217        2.9069  -20.8878  -53.2738 H         1 UNK         0.0600 
    218 H218        2.3487  -19.9831  -51.8778 H         1 UNK         0.0600 
    219 H219        1.5665  -19.7660  -53.4411 H         1 UNK         0.0600 
    220 H220       -0.5813  -23.5747  -52.4433 H         1 UNK         0.3000 
    221 H221       -1.6478  -24.9313  -53.7998 H         1 UNK         0.0600 
    222 H222        0.7607  -24.7140  -55.6769 H         1 UNK         0.0600 
    223 H223        0.6718  -25.7546  -54.2560 H         1 UNK         0.0600 
    224 H224       -0.4051  -26.0278  -55.6142 H         1 UNK         0.0600 
    225 H225       -2.2331  -22.0912  -54.1205 H         1 UNK         0.3000 
    226 H226       -3.1068  -21.7984  -56.9319 H         1 UNK         0.0600 
    227 H227       -2.0995  -19.8568  -55.7112 H         1 UNK         0.0600 
    228 H228       -3.7550  -19.5317  -56.1983 H         1 UNK         0.0600 
    229 H229       -3.3986  -19.9334  -54.5246 H         1 UNK         0.0600 
    230 H230       -4.2271  -23.4084  -54.2896 H         1 UNK         0.3000 
    231 H231       -6.1035  -24.3794  -53.6365 H         1 UNK         0.0600 
    232 H232       -6.5412  -24.8930  -56.0512 H         1 UNK         0.0600 
    233 H233       -7.4824  -23.4083  -56.1906 H         1 UNK         0.0600 
    234 H234       -8.0186  -24.6954  -55.1232 H         1 UNK         0.0600 
    235 H235       -5.3772  -21.9253  -52.6623 H         1 UNK         0.3000 
    236 H236       -5.9694  -20.2894  -51.2934 H         1 UNK         0.0600 
    237 H237       -8.0300  -20.5097  -49.9466 H         1 UNK         0.0600 
    238 H238       -8.6542  -21.7354  -51.0402 H         1 UNK         0.0600 
    239 H239       -7.2051  -22.0542  -50.0880 H         1 UNK         0.0600 
    240 H240       -5.7216  -19.0446  -53.3275 H         1 UNK         0.3000 
    241 H241       -7.8735  -17.9779  -54.7776 H         1 UNK         0.0600 
    242 H242       -8.9065  -14.8575  -53.3657 H         1 UNK         0.3800 
    243 H243       -8.6895  -15.6865  -54.8793 H         1 UNK         0.3800 
    244 H244       -5.7292  -17.8560  -55.7689 H         1 UNK         0.0800 
    245 H245       -6.1786  -16.2054  -55.5020 H         1 UNK         0.0800 
    246 H246       -3.9168  -14.5462  -54.4005 H         1 UNK         0.0800 
    247 H247       -5.4320  -14.7955  -53.5706 H         1 UNK         0.0800 
@<TRIPOS>BOND
     1    1    2 1    
     2    1  127 1    
     3    1  128 1    
     4    1  129 1    
     5    2    3 2    
     6    2    4 am   BACKBONE|DICT|INTERRES
     7    4    5 1    
     8    4  130 1    
     9    5    6 1    
    10    5   65 1    
    11    5  131 1    
    12    6    7 1    
    13    6  132 1    
    14    6  133 1    
    15    7    8 1    
    16    8    9 1    
    17    8  134 1    
    18    8  135 1    
    19    9   10 ar   
    20    9   14 ar   
    21   10   11 ar   
    22   10  136 1    
    23   11   12 ar   
    24   11  126 1    
    25   12   13 ar   
    26   12  137 1    
    27   13   14 ar   
    28   13   15 1    
    29   14  138 1    
    30   15   16 1    
    31   15  139 1    
    32   15  140 1    
    33   16   17 1    
    34   17   18 1    
    35   17  141 1    
    36   17  142 1    
    37   18   19 1    
    38   18   67 1    
    39   18  143 1    
    40   19   20 am   BACKBONE|DICT|INTERRES
    41   19  144 1    
    42   20   21 2    
    43   20   22 1    
    44   22   23 1    
    45   22   24 1    
    46   22  145 1    
    47   23  146 1    
    48   23  147 1    
    49   23  148 1    
    50   24   25 am   BACKBONE|DICT|INTERRES
    51   24  149 1    
    52   25   26 2    
    53   25   27 1    
    54   27   28 1    
    55   27   29 1    
    56   27  150 1    
    57   28  151 1    
    58   28  152 1    
    59   28  153 1    
    60   29   30 am   BACKBONE|DICT|INTERRES
    61   29  154 1    
    62   30   31 2    
    63   30   32 1    
    64   32   33 1    
    65   32   34 1    
    66   32  155 1    
    67   33  156 1    
    68   33  157 1    
    69   33  158 1    
    70   34   35 am   BACKBONE|DICT|INTERRES
    71   34  159 1    
    72   35   36 2    
    73   35   37 1    
    74   37   38 1    
    75   37   39 1    
    76   37  160 1    
    77   38  161 1    
    78   38  162 1    
    79   38  163 1    
    80   39   40 am   BACKBONE|DICT|INTERRES
    81   39  164 1    
    82   40   41 2    
    83   40   42 1    
    84   42   43 1    
    85   42   44 1    
    86   42  165 1    
    87   43  166 1    
    88   43  167 1    
    89   43  168 1    
    90   44   45 am   BACKBONE|DICT|INTERRES
    91   44  169 1    
    92   45   46 2    
    93   45   47 1    
    94   47   48 1    
    95   47   49 1    
    96   47  170 1    
    97   48  171 1    
    98   48  172 1    
    99   48  173 1    
   100   49   50 am   BACKBONE|DICT|INTERRES
   101   49  174 1    
   102   50   51 2    
   103   50   52 1    
   104   52   53 1    
   105   52   54 1    
   106   52  175 1    
   107   53  176 1    
   108   53  177 1    
   109   53  178 1    
   110   54   55 am   BACKBONE|DICT|INTERRES
   111   54  179 1    
   112   55   56 2    
   113   55   57 1    
   114   57   58 1    
   115   57   59 1    
   116   57  180 1    
   117   58  181 1    
   118   58  182 1    
   119   58  183 1    
   120   59   60 am   BACKBONE|DICT|INTERRES
   121   59  184 1    
   122   60   61 2    
   123   60   62 1    
   124   62   63 1    
   125   62   64 1    
   126   62  185 1    
   127   63  186 1    
   128   63  187 1    
   129   63  188 1    
   130   64   65 am   BACKBONE|DICT|INTERRES
   131   64  189 1    
   132   65   66 2    
   133   67   68 2    
   134   67   69 am   BACKBONE|DICT|INTERRES
   135   69   70 1    
   136   69  190 1    
   137   70   71 1    
   138   70   72 1    
   139   70  191 1    
   140   71  192 1    
   141   71  193 1    
   142   71  194 1    
   143   72   73 2    
   144   72   74 am   BACKBONE|DICT|INTERRES
   145   74   75 1    
   146   74  195 1    
   147   75   76 1    
   148   75   77 1    
   149   75  196 1    
   150   76  197 1    
   151   76  198 1    
   152   76  199 1    
   153   77   78 2    
   154   77   79 am   BACKBONE|DICT|INTERRES
   155   79   80 1    
   156   79  200 1    
   157   80   81 1    
   158   80   82 1    
   159   80  201 1    
   160   81  202 1    
   161   81  203 1    
   162   81  204 1    
   163   82   83 2    
   164   82   84 am   BACKBONE|DICT|INTERRES
   165   84   85 1    
   166   84  205 1    
   167   85   86 1    
   168   85   87 1    
   169   85  206 1    
   170   86  207 1    
   171   86  208 1    
   172   86  209 1    
   173   87   88 2    
   174   87   89 am   BACKBONE|DICT|INTERRES
   175   89   90 1    
   176   89  210 1    
   177   90   91 1    
   178   90   92 1    
   179   90  211 1    
   180   91  212 1    
   181   91  213 1    
   182   91  214 1    
   183   92   93 2    
   184   92   94 am   BACKBONE|DICT|INTERRES
   185   94   95 1    
   186   94  215 1    
   187   95   96 1    
   188   95   97 1    
   189   95  216 1    
   190   96  217 1    
   191   96  218 1    
   192   96  219 1    
   193   97   98 2    
   194   97   99 am   BACKBONE|DICT|INTERRES
   195   99  100 1    
   196   99  220 1    
   197  100  101 1    
   198  100  102 1    
   199  100  221 1    
   200  101  222 1    
   201  101  223 1    
   202  101  224 1    
   203  102  103 2    
   204  102  104 am   BACKBONE|DICT|INTERRES
   205  104  105 1    
   206  104  225 1    
   207  105  106 1    
   208  105  107 1    
   209  105  226 1    
   210  106  227 1    
   211  106  228 1    
   212  106  229 1    
   213  107  108 2    
   214  107  109 am   BACKBONE|DICT|INTERRES
   215  109  110 1    
   216  109  230 1    
   217  110  111 1    
   218  110  112 1    
   219  110  231 1    
   220  111  232 1    
   221  111  233 1    
   222  111  234 1    
   223  112  113 2    
   224  112  114 am   BACKBONE|DICT|INTERRES
   225  114  115 1    
   226  114  235 1    
   227  115  116 1    
   228  115  117 1    
   229  115  236 1    
   230  116  237 1    
   231  116  238 1    
   232  116  239 1    
   233  117  118 2    
   234  117  119 am   BACKBONE|DICT|INTERRES
   235  119  120 1    
   236  119  240 1    
   237  120  121 1    
   238  120  124 1    
   239  120  241 1    
   240  121  122 am   BACKBONE|DICT|INTERRES
   241  121  123 2    
   242  122  242 1    
   243  122  243 1    
   244  124  125 1    
   245  124  244 1    
   246  124  245 1    
   247  125  126 1    
   248  126  246 1    
   249  126  247 1    
@<TRIPOS>SUBSTRUCTURE
     1 UNK         1 GROUP             0       ****    0 ROOT    
