@<TRIPOS>MOLECULE
3R540
247   249    1
SMALL
USER_CHARGES


@<TRIPOS>ATOM
      1 CA         -1.0452  -12.1994  -53.6093 C.3       0 UNK        -0.1800 
      2 C          -0.7823  -12.5514  -52.1519 C.2       0 UNK         0.5000 
      3 O          -1.6429  -12.3319  -51.3004 O.2       0 UNK        -0.5000 
      4 N           0.3967  -13.1161  -51.8642 N.am      1 UNK        -0.5000 
      5 CA          0.8374  -13.5475  -50.5293 C.3       1 UNK         0.1400 
      6 C6          2.3868  -13.5872  -50.4108 C.3       23 UNK        -0.0398 
      7 S7          3.2539  -14.4278  -51.7876 S.3       23 UNK        -0.2404 
      8 C8          4.1812  -15.7539  -50.9469 C.3       23 UNK        -0.0205 
      9 C9          3.3434  -17.0137  -50.8089 C.ar      23 UNK        -0.0193 
     10 C10         3.2192  -17.8904  -51.8897 C.ar      23 UNK        -0.1150 
     11 C11         2.3848  -19.0119  -51.8088 C.ar      23 UNK        -0.0193 
     12 C12         1.7087  -19.2711  -50.6132 C.ar      23 UNK        -0.1150 
     13 C13         1.8408  -18.4112  -49.5198 C.ar      23 UNK        -0.0193 
     14 C14         2.6695  -17.2915  -49.6187 C.ar      23 UNK        -0.1150 
     15 C15         1.0395  -18.6557  -48.2544 C.3       23 UNK        -0.0205 
     16 S16         2.0315  -19.4869  -46.9851 S.3       23 UNK        -0.2404 
     17 C17         0.7437  -19.7468  -45.7236 C.3       23 UNK        -0.0398 
     18 CA          0.1444  -21.1675  -45.8130 C.3       11 UNK         0.1400 
     19 N           1.1489  -22.2110  -45.5961 N.am      11 UNK        -0.5000 
     20 C           1.0406  -23.4762  -46.0186 C.2       10 UNK         0.5000 
     21 O           0.0747  -23.9044  -46.6454 O.2       10 UNK        -0.5000 
     22 CA          2.2004  -24.4276  -45.6718 C.3       10 UNK         0.1400 
     23 CB          3.2828  -24.3703  -46.7601 C.3       10 UNK        -0.1800 
     24 N           2.8066  -24.1291  -44.3740 N.am      10 UNK        -0.5000 
     25 C           2.2073  -24.3377  -43.1936 C.2       9 UNK         0.5000 
     26 O           1.0972  -24.8560  -43.0704 O.2       9 UNK        -0.5000 
     27 CA          2.9611  -23.8425  -41.9433 C.3       9 UNK         0.1400 
     28 CB          3.9117  -24.9305  -41.4217 C.3       9 UNK        -0.1800 
     29 N           3.7140  -22.5980  -42.1486 N.am      9 UNK        -0.5000 
     30 C           3.1707  -21.4349  -42.5301 C.2       8 UNK         0.5000 
     31 O           1.9857  -21.3087  -42.8446 O.2       8 UNK        -0.5000 
     32 CA          4.1047  -20.2157  -42.6174 C.3       8 UNK         0.1400 
     33 CB          4.7200  -20.1110  -44.0202 C.3       8 UNK        -0.1800 
     34 N           3.3629  -18.9882  -42.3301 N.am      8 UNK        -0.5000 
     35 C           2.9282  -18.6376  -41.1134 C.2       7 UNK         0.5000 
     36 O           3.2415  -19.2462  -40.0884 O.2       7 UNK        -0.5000 
     37 CA          1.9534  -17.4464  -41.0052 C.3       7 UNK         0.1400 
     38 CB          2.4080  -16.4251  -39.9423 C.3       7 UNK        -0.1800 
     39 N           1.6154  -16.7718  -42.2658 N.am      7 UNK        -0.5000 
     40 C           2.4024  -16.0043  -43.0381 C.2       6 UNK         0.5000 
     41 O           3.6157  -15.8817  -42.8720 O.2       6 UNK        -0.5000 
     42 CA          1.7177  -15.2227  -44.1829 C.3       6 UNK         0.1400 
     43 CB          1.9278  -15.9384  -45.5247 C.3       6 UNK        -0.1800 
     44 N           0.2810  -15.0179  -43.9742 N.am      6 UNK        -0.5000 
     45 C          -0.2558  -14.3031  -42.9716 C.2       5 UNK         0.5000 
     46 O           0.4109  -13.6101  -42.2022 O.2       5 UNK        -0.5000 
     47 CA         -1.7825  -14.3984  -42.7565 C.3       5 UNK         0.1400 
     48 CB         -2.4713  -13.1082  -43.2281 C.3       5 UNK        -0.1800 
     49 N          -2.4252  -15.5366  -43.4184 N.am      5 UNK        -0.5000 
     50 C          -2.1507  -16.8372  -43.2369 C.2       4 UNK         0.5000 
     51 O          -1.3357  -17.2575  -42.4151 O.2       4 UNK        -0.5000 
     52 CA         -2.8560  -17.8296  -44.1855 C.3       4 UNK         0.1400 
     53 CB         -4.0191  -18.5354  -43.4737 C.3       4 UNK        -0.1800 
     54 N          -3.3500  -17.2174  -45.4258 N.am      4 UNK        -0.5000 
     55 C          -2.5751  -16.6433  -46.3574 C.2       3 UNK         0.5000 
     56 O          -1.3484  -16.5655  -46.2643 O.2       3 UNK        -0.5000 
     57 CA         -3.3164  -15.9707  -47.5304 C.3       3 UNK         0.1400 
     58 CB         -3.6828  -14.5253  -47.1584 C.3       3 UNK        -0.1800 
     59 N          -2.5485  -15.9488  -48.7744 N.am      3 UNK        -0.5000 
     60 C          -2.1030  -17.0273  -49.4306 C.2       2 UNK         0.5000 
     61 O          -2.3223  -18.1827  -49.0671 O.2       2 UNK        -0.5000 
     62 CA         -1.3033  -16.7928  -50.7304 C.3       2 UNK         0.1400 
     63 CB         -2.2182  -17.0189  -51.9438 C.3       2 UNK        -0.1800 
     64 N          -0.6555  -15.4852  -50.8920 N.am      2 UNK        -0.5000 
     65 C           0.1775  -14.8601  -50.0455 C.2       1 UNK         0.5000 
     66 O           0.4279  -15.2605  -48.9117 O.2       1 UNK        -0.5000 
     67 C          -1.0261  -21.3239  -44.8299 C.2       11 UNK         0.5000 
     68 O          -2.1808  -21.1861  -45.2332 O.2       11 UNK        -0.5000 
     69 N          -0.7070  -21.6467  -43.5686 N.am      12 UNK        -0.5000 
     70 CA         -1.6492  -21.8827  -42.4729 C.3       12 UNK         0.1400 
     71 CB         -0.8572  -22.1260  -41.1801 C.3       12 UNK        -0.1800 
     72 C          -2.6357  -23.0382  -42.7314 C.2       12 UNK         0.5000 
     73 O          -3.7192  -23.0505  -42.1451 O.2       12 UNK        -0.5000 
     74 N          -2.2733  -23.9599  -43.6340 N.am      13 UNK        -0.5000 
     75 CA         -3.1284  -25.0105  -44.1811 C.3       13 UNK         0.1400 
     76 CB         -2.2376  -26.0781  -44.8404 C.3       13 UNK        -0.1800 
     77 C          -4.1829  -24.4345  -45.1529 C.2       13 UNK         0.5000 
     78 O          -4.1303  -24.6967  -46.3557 O.2       13 UNK        -0.5000 
     79 N          -5.1158  -23.6461  -44.6013 N.am      14 UNK        -0.5000 
     80 CA         -6.2956  -23.0613  -45.2455 C.3       14 UNK         0.1400 
     81 CB         -7.3219  -24.1690  -45.5650 C.3       14 UNK        -0.1800 
     82 C          -5.9625  -22.1890  -46.4734 C.2       14 UNK         0.5000 
     83 O          -6.5616  -22.3739  -47.5329 O.2       14 UNK        -0.5000 
     84 N          -4.9987  -21.2688  -46.3151 N.am      15 UNK        -0.5000 
     85 CA         -4.4804  -20.3640  -47.3511 C.3       15 UNK         0.1400 
     86 CB         -5.5585  -19.3543  -47.8000 C.3       15 UNK        -0.1800 
     87 C          -3.8568  -21.1495  -48.5205 C.2       15 UNK         0.5000 
     88 O          -4.2474  -20.9664  -49.6746 O.2       15 UNK        -0.5000 
     89 N          -2.9381  -22.0609  -48.1673 N.am      16 UNK        -0.5000 
     90 CA         -2.2305  -22.9893  -49.0549 C.3       16 UNK         0.1400 
     91 CB         -1.1919  -22.2285  -49.9058 C.3       16 UNK        -0.1800 
     92 C          -3.1913  -23.8629  -49.8884 C.2       16 UNK         0.5000 
     93 O          -3.0596  -23.9410  -51.1111 O.2       16 UNK        -0.5000 
     94 N          -4.1543  -24.4856  -49.1922 N.am      17 UNK        -0.5000 
     95 CA         -5.2570  -25.2914  -49.7232 C.3       17 UNK         0.1400 
     96 CB         -4.7294  -26.6022  -50.3430 C.3       17 UNK        -0.1800 
     97 C          -6.1689  -24.4854  -50.6727 C.2       17 UNK         0.5000 
     98 O          -6.4753  -24.9398  -51.7769 O.2       17 UNK        -0.5000 
     99 N          -6.5819  -23.2985  -50.2058 N.am      18 UNK        -0.5000 
    100 CA        -7.4388  -22.3172  -50.8727 C.3       18 UNK         0.1400 
    101 CB        -8.8796  -22.8551  -50.9977 C.3       18 UNK        -0.1800 
    102 C         -6.8563  -21.8148  -52.2094 C.2       18 UNK         0.5000 
    103 O         -7.5540  -21.8052  -53.2265 O.2       18 UNK        -0.5000 
    104 N         -5.5823  -21.4020  -52.1864 N.am      19 UNK        -0.5000 
    105 CA        -4.9022  -20.7740  -53.3167 C.3       19 UNK         0.1400 
    106 CB        -3.3891  -20.7410  -53.0510 C.3       19 UNK        -0.1800 
    107 C         -5.4597  -19.3590  -53.5563 C.2       19 UNK         0.5000 
    108 O         -5.4777  -18.5456  -52.6301 O.2       19 UNK        -0.5000 
    109 N         -5.9222  -19.0972  -54.7854 N.am      20 UNK        -0.5000 
    110 CA        -6.5410  -17.8281  -55.1786 C.3       20 UNK         0.1400 
    111 CB        -7.2837  -18.0208  -56.5098 C.3       20 UNK        -0.1800 
    112 C         -5.5325  -16.6696  -55.2868 C.2       20 UNK         0.5000 
    113 O         -5.8877  -15.5251  -55.0027 O.2       20 UNK        -0.5000 
    114 N         -4.2982  -16.9896  -55.6878 N.am      21 UNK        -0.5000 
    115 CA        -3.1740  -16.0736  -55.8223 C.3       21 UNK         0.1400 
    116 CB        -3.3266  -15.2170  -57.0932 C.3       21 UNK        -0.1800 
    117 C         -1.8834  -16.9009  -55.8709 C.2       21 UNK         0.5000 
    118 O         -1.9215  -18.0776  -56.2408 O.2       21 UNK        -0.5000 
    119 N         -0.7686  -16.2673  -55.5000 N.am      22 UNK        -0.5000 
    120 CA         0.5813  -16.8508  -55.4893 C.3       22 UNK         0.1400 
    121 C          1.6901  -15.7566  -55.5926 C.2       22 UNK         0.5000 
    122 N          1.3908  -14.5583  -56.0843 N.am      22 UNK        -0.7600 
    123 O          2.8422  -15.9817  -55.2369 O.2       22 UNK        -0.5000 
    124 C124        0.7711  -17.8459  -54.3084 C.3       23 UNK        -0.0398 
    125 S125        2.0699  -19.0942  -54.6175 S.3       23 UNK        -0.2404 
    126 C126        2.1785  -19.9424  -53.0023 C.3       23 UNK        -0.0205 
    127 H127       -0.2002  -12.4588  -54.2479 H         1 UNK         0.0600 
    128 H128       -1.2296  -11.1297  -53.7087 H         1 UNK         0.0600 
    129 H129       -1.9237  -12.7327  -53.9725 H         1 UNK         0.0600 
    130 H130        1.0698  -13.2758  -52.6018 H         1 UNK         0.3000 
    131 H131        0.4974  -12.7896  -49.8201 H         1 UNK         0.0600 
    132 H132        2.7573  -12.5615  -50.3933 H         1 UNK         0.0800 
    133 H133        2.6971  -14.0121  -49.4547 H         1 UNK         0.0800 
    134 H134        4.5392  -15.4124  -49.9746 H         1 UNK         0.0800 
    135 H135        5.0729  -15.9796  -51.5336 H         1 UNK         0.0800 
    136 H136        3.7400  -17.6705  -52.8113 H         1 UNK         0.1150 
    137 H137        1.0572  -20.1304  -50.5398 H         1 UNK         0.1150 
    138 H138        2.7550  -16.6161  -48.7789 H         1 UNK         0.1150 
    139 H139        0.6696  -17.7068  -47.8628 H         1 UNK         0.0800 
    140 H140        0.1580  -19.2585  -48.4777 H         1 UNK         0.0800 
    141 H141       -0.0339  -18.9903  -45.8460 H         1 UNK         0.0800 
    142 H142        1.1851  -19.5691  -44.7418 H         1 UNK         0.0800 
    143 H143       -0.2654  -21.2911  -46.8178 H         1 UNK         0.0600 
    144 H144        1.9485  -21.9508  -45.0374 H         1 UNK         0.3000 
    145 H145        1.7998  -25.4433  -45.6396 H         1 UNK         0.0600 
    146 H146        3.7326  -23.3789  -46.8302 H         1 UNK         0.0600 
    147 H147        4.0792  -25.0882  -46.5631 H         1 UNK         0.0600 
    148 H148        2.8646  -24.6105  -47.7386 H         1 UNK         0.0600 
    149 H149        3.7213  -23.7026  -44.3811 H         1 UNK         0.3000 
    150 H150        2.2141  -23.6475  -41.1713 H         1 UNK         0.0600 
    151 H151        3.3759  -25.8631  -41.2396 H         1 UNK         0.0600 
    152 H152        4.3725  -24.6336  -40.4794 H         1 UNK         0.0600 
    153 H153        4.7096  -25.1439  -42.1341 H         1 UNK         0.0600 
    154 H154        4.6981  -22.6281  -41.9234 H         1 UNK         0.3000 
    155 H155        4.9075  -20.3254  -41.8854 H         1 UNK         0.0600 
    156 H156        5.3098  -20.9972  -44.2575 H         1 UNK         0.0600 
    157 H157        5.3840  -19.2497  -44.0958 H         1 UNK         0.0600 
    158 H158        3.9548  -20.0109  -44.7895 H         1 UNK         0.0600 
    159 H159        3.0542  -18.4429  -43.1199 H         1 UNK         0.3000 
    160 H160        1.0137  -17.8763  -40.6552 H         1 UNK         0.0600 
    161 H161        1.6893  -15.6110  -39.8455 H         1 UNK         0.0600 
    162 H162        3.3776  -15.9901  -40.1857 H         1 UNK         0.0600 
    163 H163        2.4993  -16.8932  -38.9615 H         1 UNK         0.0600 
    164 H164        0.6304  -16.8252  -42.5070 H         1 UNK         0.3000 
    165 H165        2.1932  -14.2416  -44.2392 H         1 UNK         0.0600 
    166 H166        1.4297  -16.9067  -45.5375 H         1 UNK         0.0600 
    167 H167        1.5304  -15.3513  -46.3528 H         1 UNK         0.0600 
    168 H168        2.9866  -16.1084  -45.7241 H         1 UNK         0.0600 
    169 H169       -0.3369  -15.5304  -44.5929 H         1 UNK         0.3000 
    170 H170       -1.9492  -14.5068  -41.6831 H         1 UNK         0.0600 
    171 H171       -2.3594  -12.9637  -44.3035 H         1 UNK         0.0600 
    172 H172       -3.5371  -13.1222  -42.9992 H         1 UNK         0.0600 
    173 H173       -2.0468  -12.2335  -42.7334 H         1 UNK         0.0600 
    174 H174       -3.1078  -15.3047  -44.1235 H         1 UNK         0.3000 
    175 H175       -2.1162  -18.5820  -44.4597 H         1 UNK         0.0600 
    176 H176       -4.8196  -17.8386  -43.2227 H         1 UNK         0.0600 
    177 H177       -4.4410  -19.3244  -44.0961 H         1 UNK         0.0600 
    178 H178       -3.6869  -19.0000  -42.5447 H         1 UNK         0.0600 
    179 H179       -4.3519  -17.2135  -45.5509 H         1 UNK         0.3000 
    180 H180       -4.2362  -16.5255  -47.7225 H         1 UNK         0.0600 
    181 H181       -2.7930  -13.9224  -46.9704 H         1 UNK         0.0600 
    182 H182       -4.2983  -14.4920  -46.2585 H         1 UNK         0.0600 
    183 H183       -4.2513  -14.0443  -47.9546 H         1 UNK         0.0600 
    184 H184       -2.2760  -15.0423  -49.1229 H         1 UNK         0.3000 
    185 H185       -0.5160  -17.5450  -50.7584 H         1 UNK         0.0600 
    186 H186       -1.6540  -17.0034  -52.8732 H         1 UNK         0.0600 
    187 H187       -2.7174  -17.9855  -51.8850 H         1 UNK         0.0600 
    188 H188       -2.9962  -16.2573  -52.0093 H         1 UNK         0.0600 
    189 H189       -0.8082  -15.0309  -51.7787 H         1 UNK         0.3000 
    190 H190        0.2800  -21.6902  -43.3211 H         1 UNK         0.3000 
    191 H191       -2.2392  -20.9735  -42.3477 H         1 UNK         0.0600 
    192 H192       -0.2342  -23.0177  -41.2556 H         1 UNK         0.0600 
    193 H193       -0.2071  -21.2814  -40.9501 H         1 UNK         0.0600 
    194 H194       -1.5265  -22.2626  -40.3297 H         1 UNK         0.0600 
    195 H195       -1.3619  -23.8638  -44.0589 H         1 UNK         0.3000 
    196 H196       -3.6647  -25.4873  -43.3581 H         1 UNK         0.0600 
    197 H197       -1.5208  -26.4888  -44.1288 H         1 UNK         0.0600 
    198 H198       -1.6767  -25.6726  -45.6825 H         1 UNK         0.0600 
    199 H199       -2.8370  -26.9083  -45.2156 H         1 UNK         0.0600 
    200 H200       -5.0034  -23.4368  -43.6137 H         1 UNK         0.3000 
    201 H201       -6.7492  -22.3931  -44.5123 H         1 UNK         0.0600 
    202 H202       -8.2505  -23.7446  -45.9488 H         1 UNK         0.0600 
    203 H203       -7.5736  -24.7425  -44.6730 H         1 UNK         0.0600 
    204 H204       -6.9454  -24.8650  -46.3156 H         1 UNK         0.0600 
    205 H205       -4.4901  -21.2534  -45.4407 H         1 UNK         0.3000 
    206 H206       -3.6698  -19.7902  -46.9004 H         1 UNK         0.0600 
    207 H207       -6.4040  -19.8438  -48.2833 H         1 UNK         0.0600 
    208 H208       -5.1464  -18.6448  -48.5182 H         1 UNK         0.0600 
    209 H209       -5.9394  -18.7822  -46.9545 H         1 UNK         0.0600 
    210 H210       -2.7323  -22.1507  -47.1801 H         1 UNK         0.3000 
    211 H211       -1.6909  -23.6836  -48.4137 H         1 UNK         0.0600 
    212 H212       -0.4850  -21.6925  -49.2730 H         1 UNK         0.0600 
    213 H213       -0.6143  -22.9147  -50.5259 H         1 UNK         0.0600 
    214 H214       -1.6639  -21.5034  -50.5689 H         1 UNK         0.0600 
    215 H215       -4.1529  -24.3818  -48.1787 H         1 UNK         0.3000 
    216 H216       -5.8738  -25.5607  -48.8644 H         1 UNK         0.0600 
    217 H217       -5.5537  -27.2554  -50.6317 H         1 UNK         0.0600 
    218 H218       -4.1306  -26.4188  -51.2355 H         1 UNK         0.0600 
    219 H219       -4.1131  -27.1529  -49.6325 H         1 UNK         0.0600 
    220 H220       -6.2936  -23.0247  -49.2689 H         1 UNK         0.3000 
    221 H221       -7.4703  -21.4493  -50.2123 H         1 UNK         0.0600 
    222 H222       -8.9360  -23.7143  -51.6667 H         1 UNK         0.0600 
    223 H223       -9.2708  -23.1592  -50.0268 H         1 UNK         0.0600 
    224 H224       -9.5493  -22.0894  -51.3910 H         1 UNK         0.0600 
    225 H225       -5.0868  -21.3825  -51.2966 H         1 UNK         0.3000 
    226 H226       -5.0749  -21.3834  -54.2062 H         1 UNK         0.0600 
    227 H227       -2.8579  -20.2250  -53.8520 H         1 UNK         0.0600 
    228 H228       -3.1584  -20.2302  -52.1165 H         1 UNK         0.0600 
    229 H229       -2.9815  -21.7498  -52.9834 H         1 UNK         0.0600 
    230 H230       -5.8920  -19.8216  -55.4883 H         1 UNK         0.3000 
    231 H231       -7.2757  -17.5560  -54.4176 H         1 UNK         0.0600 
    232 H232       -7.7765  -17.0980  -56.8187 H         1 UNK         0.0600 
    233 H233       -8.0550  -18.7865  -56.4241 H         1 UNK         0.0600 
    234 H234       -6.6051  -18.3144  -57.3117 H         1 UNK         0.0600 
    235 H235       -4.0675  -17.9568  -55.8782 H         1 UNK         0.3000 
    236 H236       -3.1394  -15.4263  -54.9433 H         1 UNK         0.0600 
    237 H237       -4.2229  -14.5982  -57.0527 H         1 UNK         0.0600 
    238 H238       -2.4779  -14.5438  -57.2185 H         1 UNK         0.0600 
    239 H239       -3.3894  -15.8374  -57.9881 H         1 UNK         0.0600 
    240 H240       -0.8199  -15.3037  -55.2041 H         1 UNK         0.3000 
    241 H241        0.6777  -17.4179  -56.4171 H         1 UNK         0.0600 
    242 H242        2.1244  -13.8699  -56.1493 H         1 UNK         0.3800 
    243 H243        0.4924  -14.3604  -56.4928 H         1 UNK         0.3800 
    244 H244        0.9727  -17.2965  -53.3884 H         1 UNK         0.0800 
    245 H245       -0.1466  -18.4055  -54.1264 H         1 UNK         0.0800 
    246 H246        3.0042  -20.6541  -53.0352 H         1 UNK         0.0800 
    247 H247        1.2689  -20.5306  -52.8694 H         1 UNK         0.0800 
@<TRIPOS>BOND
     1    1    2 1    
     2    1  127 1    
     3    1  128 1    
     4    1  129 1    
     5    2    3 2    
     6    2    4 am   BACKBONE|DICT|INTERRES
     7    4    5 1    
     8    4  130 1    
     9    5    6 1    
    10    5   65 1    
    11    5  131 1    
    12    6    7 1    
    13    6  132 1    
    14    6  133 1    
    15    7    8 1    
    16    8    9 1    
    17    8  134 1    
    18    8  135 1    
    19    9   10 ar   
    20    9   14 ar   
    21   10   11 ar   
    22   10  136 1    
    23   11   12 ar   
    24   11  126 1    
    25   12   13 ar   
    26   12  137 1    
    27   13   14 ar   
    28   13   15 1    
    29   14  138 1    
    30   15   16 1    
    31   15  139 1    
    32   15  140 1    
    33   16   17 1    
    34   17   18 1    
    35   17  141 1    
    36   17  142 1    
    37   18   19 1    
    38   18   67 1    
    39   18  143 1    
    40   19   20 am   BACKBONE|DICT|INTERRES
    41   19  144 1    
    42   20   21 2    
    43   20   22 1    
    44   22   23 1    
    45   22   24 1    
    46   22  145 1    
    47   23  146 1    
    48   23  147 1    
    49   23  148 1    
    50   24   25 am   BACKBONE|DICT|INTERRES
    51   24  149 1    
    52   25   26 2    
    53   25   27 1    
    54   27   28 1    
    55   27   29 1    
    56   27  150 1    
    57   28  151 1    
    58   28  152 1    
    59   28  153 1    
    60   29   30 am   BACKBONE|DICT|INTERRES
    61   29  154 1    
    62   30   31 2    
    63   30   32 1    
    64   32   33 1    
    65   32   34 1    
    66   32  155 1    
    67   33  156 1    
    68   33  157 1    
    69   33  158 1    
    70   34   35 am   BACKBONE|DICT|INTERRES
    71   34  159 1    
    72   35   36 2    
    73   35   37 1    
    74   37   38 1    
    75   37   39 1    
    76   37  160 1    
    77   38  161 1    
    78   38  162 1    
    79   38  163 1    
    80   39   40 am   BACKBONE|DICT|INTERRES
    81   39  164 1    
    82   40   41 2    
    83   40   42 1    
    84   42   43 1    
    85   42   44 1    
    86   42  165 1    
    87   43  166 1    
    88   43  167 1    
    89   43  168 1    
    90   44   45 am   BACKBONE|DICT|INTERRES
    91   44  169 1    
    92   45   46 2    
    93   45   47 1    
    94   47   48 1    
    95   47   49 1    
    96   47  170 1    
    97   48  171 1    
    98   48  172 1    
    99   48  173 1    
   100   49   50 am   BACKBONE|DICT|INTERRES
   101   49  174 1    
   102   50   51 2    
   103   50   52 1    
   104   52   53 1    
   105   52   54 1    
   106   52  175 1    
   107   53  176 1    
   108   53  177 1    
   109   53  178 1    
   110   54   55 am   BACKBONE|DICT|INTERRES
   111   54  179 1    
   112   55   56 2    
   113   55   57 1    
   114   57   58 1    
   115   57   59 1    
   116   57  180 1    
   117   58  181 1    
   118   58  182 1    
   119   58  183 1    
   120   59   60 am   BACKBONE|DICT|INTERRES
   121   59  184 1    
   122   60   61 2    
   123   60   62 1    
   124   62   63 1    
   125   62   64 1    
   126   62  185 1    
   127   63  186 1    
   128   63  187 1    
   129   63  188 1    
   130   64   65 am   BACKBONE|DICT|INTERRES
   131   64  189 1    
   132   65   66 2    
   133   67   68 2    
   134   67   69 am   BACKBONE|DICT|INTERRES
   135   69   70 1    
   136   69  190 1    
   137   70   71 1    
   138   70   72 1    
   139   70  191 1    
   140   71  192 1    
   141   71  193 1    
   142   71  194 1    
   143   72   73 2    
   144   72   74 am   BACKBONE|DICT|INTERRES
   145   74   75 1    
   146   74  195 1    
   147   75   76 1    
   148   75   77 1    
   149   75  196 1    
   150   76  197 1    
   151   76  198 1    
   152   76  199 1    
   153   77   78 2    
   154   77   79 am   BACKBONE|DICT|INTERRES
   155   79   80 1    
   156   79  200 1    
   157   80   81 1    
   158   80   82 1    
   159   80  201 1    
   160   81  202 1    
   161   81  203 1    
   162   81  204 1    
   163   82   83 2    
   164   82   84 am   BACKBONE|DICT|INTERRES
   165   84   85 1    
   166   84  205 1    
   167   85   86 1    
   168   85   87 1    
   169   85  206 1    
   170   86  207 1    
   171   86  208 1    
   172   86  209 1    
   173   87   88 2    
   174   87   89 am   BACKBONE|DICT|INTERRES
   175   89   90 1    
   176   89  210 1    
   177   90   91 1    
   178   90   92 1    
   179   90  211 1    
   180   91  212 1    
   181   91  213 1    
   182   91  214 1    
   183   92   93 2    
   184   92   94 am   BACKBONE|DICT|INTERRES
   185   94   95 1    
   186   94  215 1    
   187   95   96 1    
   188   95   97 1    
   189   95  216 1    
   190   96  217 1    
   191   96  218 1    
   192   96  219 1    
   193   97   98 2    
   194   97   99 am   BACKBONE|DICT|INTERRES
   195   99  100 1    
   196   99  220 1    
   197  100  101 1    
   198  100  102 1    
   199  100  221 1    
   200  101  222 1    
   201  101  223 1    
   202  101  224 1    
   203  102  103 2    
   204  102  104 am   BACKBONE|DICT|INTERRES
   205  104  105 1    
   206  104  225 1    
   207  105  106 1    
   208  105  107 1    
   209  105  226 1    
   210  106  227 1    
   211  106  228 1    
   212  106  229 1    
   213  107  108 2    
   214  107  109 am   BACKBONE|DICT|INTERRES
   215  109  110 1    
   216  109  230 1    
   217  110  111 1    
   218  110  112 1    
   219  110  231 1    
   220  111  232 1    
   221  111  233 1    
   222  111  234 1    
   223  112  113 2    
   224  112  114 am   BACKBONE|DICT|INTERRES
   225  114  115 1    
   226  114  235 1    
   227  115  116 1    
   228  115  117 1    
   229  115  236 1    
   230  116  237 1    
   231  116  238 1    
   232  116  239 1    
   233  117  118 2    
   234  117  119 am   BACKBONE|DICT|INTERRES
   235  119  120 1    
   236  119  240 1    
   237  120  121 1    
   238  120  124 1    
   239  120  241 1    
   240  121  122 am   BACKBONE|DICT|INTERRES
   241  121  123 2    
   242  122  242 1    
   243  122  243 1    
   244  124  125 1    
   245  124  244 1    
   246  124  245 1    
   247  125  126 1    
   248  126  246 1    
   249  126  247 1    
@<TRIPOS>SUBSTRUCTURE
     1 UNK         1 GROUP             0       ****    0 ROOT    
