@<TRIPOS>MOLECULE
3R540
247   249    1
SMALL
USER_CHARGES


@<TRIPOS>ATOM
      1 CA         -3.7885  -11.3785  -50.4258 C.3       0 UNK        -0.1800 
      2 C          -2.9400  -12.2453  -49.5073 C.2       0 UNK         0.5000 
      3 O          -2.7826  -11.9212  -48.3303 O.2       0 UNK        -0.5000 
      4 N          -2.4086  -13.3589  -50.0326 N.am      1 UNK        -0.5000 
      5 CA         -1.5323  -14.3032  -49.3209 C.3       1 UNK         0.1400 
      6 C6         -0.9401  -15.3663  -50.2845 C.3       23 UNK        -0.0398 
      7 S7          0.6939  -15.9744  -49.7464 S.3       23 UNK        -0.2404 
      8 C8          0.2276  -17.4831  -48.8450 C.3       23 UNK        -0.0205 
      9 C9          0.6093  -18.7453  -49.5979 C.ar      23 UNK        -0.0193 
     10 C10        -0.2908  -19.3410  -50.4841 C.ar      23 UNK        -0.1150 
     11 C11         0.0511  -20.5166  -51.1595 C.ar      23 UNK        -0.0193 
     12 C12         1.2979  -21.1044  -50.9291 C.ar      23 UNK        -0.1150 
     13 C13         2.1994  -20.5270  -50.0310 C.ar      23 UNK        -0.0193 
     14 C14         1.8539  -19.3403  -49.3781 C.ar      23 UNK        -0.1150 
     15 C15         3.5448  -21.1870  -49.7658 C.3       23 UNK        -0.0205 
     16 S16         3.3938  -22.6971  -48.7546 S.3       23 UNK        -0.2404 
     17 C17         2.7899  -22.0331  -47.1645 C.3       23 UNK        -0.0398 
     18 CA          1.6018  -22.8284  -46.5717 C.3       11 UNK         0.1400 
     19 N           1.3770  -22.4746  -45.1671 N.am      11 UNK        -0.5000 
     20 C           0.5763  -23.1432  -44.3258 C.2       10 UNK         0.5000 
     21 O          -0.0117  -24.1824  -44.6234 O.2       10 UNK        -0.5000 
     22 CA          0.3569  -22.5190  -42.9349 C.3       10 UNK         0.1400 
     23 CB          1.5014  -22.8926  -41.9817 C.3       10 UNK        -0.1800 
     24 N           0.2149  -21.0628  -42.9934 N.am      10 UNK        -0.5000 
     25 C          -0.8014  -20.4281  -43.5955 C.2       9 UNK         0.5000 
     26 O          -1.7681  -21.0124  -44.0821 O.2       9 UNK        -0.5000 
     27 CA         -0.7000  -18.8959  -43.7280 C.3       9 UNK         0.1400 
     28 CB         -1.2191  -18.1975  -42.4639 C.3       9 UNK        -0.1800 
     29 N           0.6611  -18.4430  -44.0155 N.am      9 UNK        -0.5000 
     30 C           1.3466  -18.7440  -45.1258 C.2       8 UNK         0.5000 
     31 O           0.8805  -19.4052  -46.0501 O.2       8 UNK        -0.5000 
     32 CA          2.8167  -18.2959  -45.1862 C.3       8 UNK         0.1400 
     33 CB          2.9528  -16.8419  -45.6582 C.3       8 UNK        -0.1800 
     34 N           3.4721  -18.4441  -43.8898 N.am      8 UNK        -0.5000 
     35 C           3.8543  -19.6146  -43.3654 C.2       7 UNK         0.5000 
     36 O           3.7334  -20.6939  -43.9464 O.2       7 UNK        -0.5000 
     37 CA          4.4380  -19.5678  -41.9402 C.3       7 UNK         0.1400 
     38 CB          5.9346  -19.2246  -41.9797 C.3       7 UNK        -0.1800 
     39 N           3.7441  -18.6121  -41.0713 N.am      7 UNK        -0.5000 
     40 C           2.4834  -18.7692  -40.6455 C.2       6 UNK         0.5000 
     41 O           1.7861  -19.7405  -40.9350 O.2       6 UNK        -0.5000 
     42 CA          1.8821  -17.6435  -39.7805 C.3       6 UNK         0.1400 
     43 CB          2.2811  -17.8316  -38.3090 C.3       6 UNK        -0.1800 
     44 N           2.2063  -16.2727  -40.1964 N.am      6 UNK        -0.5000 
     45 C           2.0716  -15.7656  -41.4298 C.2       5 UNK         0.5000 
     46 O           1.8128  -16.4453  -42.4229 O.2       5 UNK        -0.5000 
     47 CA          2.2985  -14.2471  -41.5749 C.3       5 UNK         0.1400 
     48 CB          3.8022  -13.9304  -41.5341 C.3       5 UNK        -0.1800 
     49 N           1.7433  -13.6890  -42.8129 N.am      5 UNK        -0.5000 
     50 C           0.4540  -13.7065  -43.1822 C.2       4 UNK         0.5000 
     51 O          -0.4528  -14.1650  -42.4816 O.2       4 UNK        -0.5000 
     52 CA          0.1504  -13.1011  -44.5720 C.3       4 UNK         0.1400 
     53 CB          0.8918  -13.8577  -45.6869 C.3       4 UNK        -0.1800 
     54 N          -1.2788  -13.0834  -44.8933 N.am      4 UNK        -0.5000 
     55 C          -2.1758  -12.2459  -44.3521 C.2       3 UNK         0.5000 
     56 O          -1.8712  -11.3651  -43.5453 O.2       3 UNK        -0.5000 
     57 CA         -3.6519  -12.3849  -44.7848 C.3       3 UNK         0.1400 
     58 CB         -4.2218  -11.0341  -45.2519 C.3       3 UNK        -0.1800 
     59 N          -3.8383  -13.3610  -45.8600 N.am      3 UNK        -0.5000 
     60 C          -4.2477  -14.6274  -45.6938 C.2       2 UNK         0.5000 
     61 O          -4.5415  -15.1093  -44.5996 O.2       2 UNK        -0.5000 
     62 CA         -4.3425  -15.5171  -46.9547 C.3       2 UNK         0.1400 
     63 CB         -5.8032  -15.6558  -47.4104 C.3       2 UNK        -0.1800 
     64 N          -3.5416  -15.0383  -48.0844 N.am      2 UNK        -0.5000 
     65 C          -2.2039  -14.9551  -48.0874 C.2       1 UNK         0.5000 
     66 O          -1.5133  -15.3230  -47.1391 O.2       1 UNK        -0.5000 
     67 C           0.3028  -22.7036  -47.4035 C.2       11 UNK         0.5000 
     68 O          -0.0096  -23.6094  -48.1767 O.2       11 UNK        -0.5000 
     69 N          -0.4694  -21.6312  -47.1722 N.am      12 UNK        -0.5000 
     70 CA         -1.7967  -21.4158  -47.7507 C.3       12 UNK         0.1400 
     71 CB         -2.3242  -20.0291  -47.3528 C.3       12 UNK        -0.1800 
     72 C          -2.7973  -22.5069  -47.3356 C.2       12 UNK         0.5000 
     73 O          -3.4912  -23.0493  -48.1933 O.2       12 UNK        -0.5000 
     74 N          -2.8330  -22.8378  -46.0366 N.am      13 UNK        -0.5000 
     75 CA         -3.6703  -23.8942  -45.4646 C.3       13 UNK         0.1400 
     76 CB         -3.5582  -23.8754  -43.9335 C.3       13 UNK        -0.1800 
     77 C          -3.3399  -25.2898  -46.0243 C.2       13 UNK         0.5000 
     78 O          -4.2586  -26.0383  -46.3592 O.2       13 UNK        -0.5000 
     79 N          -2.0424  -25.5924  -46.1782 N.am      14 UNK        -0.5000 
     80 CA         -1.5386  -26.8114  -46.8194 C.3       14 UNK         0.1400 
     81 CB         -0.0155  -26.8920  -46.6385 C.3       14 UNK        -0.1800 
     82 C          -1.9184  -26.9145  -48.3113 C.2       14 UNK         0.5000 
     83 O          -2.1117  -28.0211  -48.8148 O.2       14 UNK        -0.5000 
     84 N          -2.0690  -25.7606  -48.9731 N.am      15 UNK        -0.5000 
     85 CA         -2.5619  -25.6093  -50.3422 C.3       15 UNK         0.1400 
     86 CB         -1.8831  -24.3812  -50.9706 C.3       15 UNK        -0.1800 
     87 C          -4.1039  -25.5142  -50.4230 C.2       15 UNK         0.5000 
     88 O          -4.6250  -25.0907  -51.4548 O.2       15 UNK        -0.5000 
     89 N          -4.8089  -25.9047  -49.3495 N.am      16 UNK        -0.5000 
     90 CA         -6.2681  -25.9472  -49.2021 C.3       16 UNK         0.1400 
     91 CB         -6.9053  -26.9236  -50.2139 C.3       16 UNK        -0.1800 
     92 C          -6.9244  -24.5509  -49.2001 C.2       16 UNK         0.5000 
     93 O          -8.0102  -24.3753  -49.7557 O.2       16 UNK        -0.5000 
     94 N          -6.2518  -23.5907  -48.5505 N.am      17 UNK        -0.5000 
     95 CA         -6.6423  -22.1895  -48.3579 C.3       17 UNK         0.1400 
     96 CB         -7.9727  -22.0725  -47.5843 C.3       17 UNK        -0.1800 
     97 C          -6.6142  -21.3616  -49.6587 C.2       17 UNK         0.5000 
     98 O          -7.3503  -20.3804  -49.7808 O.2       17 UNK        -0.5000 
     99 N          -5.7502  -21.7572  -50.6019 N.am      18 UNK        -0.5000 
    100 CA        -5.4565  -21.0089  -51.8219 C.3       18 UNK         0.1400 
    101 CB        -4.7554  -21.9430  -52.8198 C.3       18 UNK        -0.1800 
    102 C         -4.5874  -19.7717  -51.5265 C.2       18 UNK         0.5000 
    103 O         -3.8385  -19.7603  -50.5472 O.2       18 UNK        -0.5000 
    104 N         -4.6809  -18.7658  -52.3998 N.am      19 UNK        -0.5000 
    105 CA        -3.8925  -17.5398  -52.3671 C.3       19 UNK         0.1400 
    106 CB        -4.4813  -16.5584  -51.3364 C.3       19 UNK        -0.1800 
    107 C         -3.8776  -16.9283  -53.7750 C.2       19 UNK         0.5000 
    108 O         -4.7623  -17.2324  -54.5802 O.2       19 UNK        -0.5000 
    109 N         -2.8752  -16.0779  -54.0408 N.am      20 UNK        -0.5000 
    110 CA        -2.6238  -15.2889  -55.2593 C.3       20 UNK         0.1400 
    111 CB        -3.7897  -14.3269  -55.5576 C.3       20 UNK        -0.1800 
    112 C         -2.2505  -16.1163  -56.5065 C.2       20 UNK         0.5000 
    113 O         -1.2834  -15.7799  -57.1902 O.2       20 UNK        -0.5000 
    114 N         -2.9908  -17.1999  -56.7635 N.am      21 UNK        -0.5000 
    115 CA        -2.7662  -18.1577  -57.8504 C.3       21 UNK         0.1400 
    116 CB        -4.0549  -18.9714  -58.0503 C.3       21 UNK        -0.1800 
    117 C         -1.5655  -19.0977  -57.6066 C.2       21 UNK         0.5000 
    118 O         -1.1754  -19.8319  -58.5151 O.2       21 UNK        -0.5000 
    119 N         -1.0191  -19.0723  -56.3856 N.am      22 UNK        -0.5000 
    120 CA         0.0793  -19.9202  -55.8955 C.3       22 UNK         0.1400 
    121 C          1.4662  -19.6574  -56.5540 C.2       22 UNK         0.5000 
    122 N          1.6684  -18.5552  -57.2661 N.am      22 UNK        -0.7600 
    123 O          2.3749  -20.4716  -56.4165 O.2       22 UNK        -0.5000 
    124 C124        0.1978  -19.8464  -54.3503 C.3       23 UNK        -0.0398 
    125 S125       -1.4000  -20.0963  -53.5010 S.3       23 UNK        -0.2404 
    126 C126       -0.9387  -21.1728  -52.1096 C.3       23 UNK        -0.0205 
    127 H127       -3.3564  -10.3808  -50.5029 H         1 UNK         0.0600 
    128 H128       -4.7974  -11.2838  -50.0245 H         1 UNK         0.0600 
    129 H129       -3.8592  -11.7978  -51.4297 H         1 UNK         0.0600 
    130 H130       -2.5741  -13.5576  -51.0083 H         1 UNK         0.3000 
    131 H131       -0.7069  -13.6999  -48.9359 H         1 UNK         0.0600 
    132 H132       -0.7796  -14.9244  -51.2687 H         1 UNK         0.0800 
    133 H133       -1.6254  -16.1997  -50.4452 H         1 UNK         0.0800 
    134 H134        0.7082  -17.4703  -47.8687 H         1 UNK         0.0800 
    135 H135       -0.8420  -17.4851  -48.6427 H         1 UNK         0.0800 
    136 H136       -1.2625  -18.8966  -50.6441 H         1 UNK         0.1150 
    137 H137        1.5636  -22.0233  -51.4326 H         1 UNK         0.1150 
    138 H138        2.5450  -18.8859  -48.6823 H         1 UNK         0.1150 
    139 H139        4.0091  -21.4464  -50.7182 H         1 UNK         0.0800 
    140 H140        4.2275  -20.4920  -49.2742 H         1 UNK         0.0800 
    141 H141        2.5339  -20.9804  -47.2655 H         1 UNK         0.0800 
    142 H142        3.6316  -22.0635  -46.4711 H         1 UNK         0.0800 
    143 H143        1.8814  -23.8842  -46.5807 H         1 UNK         0.0600 
    144 H144        1.8368  -21.6379  -44.8319 H         1 UNK         0.3000 
    145 H145       -0.5689  -22.9305  -42.5282 H         1 UNK         0.0600 
    146 H146        1.3083  -22.5264  -40.9733 H         1 UNK         0.0600 
    147 H147        1.6188  -23.9750  -41.9175 H         1 UNK         0.0600 
    148 H148        2.4540  -22.4771  -42.3109 H         1 UNK         0.0600 
    149 H149        0.9350  -20.5136  -42.5343 H         1 UNK         0.3000 
    150 H150       -1.3307  -18.5918  -44.5658 H         1 UNK         0.0600 
    151 H151       -2.2606  -18.4597  -42.2746 H         1 UNK         0.0600 
    152 H152       -1.1675  -17.1126  -42.5623 H         1 UNK         0.0600 
    153 H153       -0.6439  -18.4824  -41.5838 H         1 UNK         0.0600 
    154 H154        1.1032  -17.8400  -43.3243 H         1 UNK         0.3000 
    155 H155        3.3283  -18.9322  -45.9115 H         1 UNK         0.0600 
    156 H156        2.4628  -16.6864  -46.6188 H         1 UNK         0.0600 
    157 H157        2.5127  -16.1474  -44.9443 H         1 UNK         0.0600 
    158 H158        4.0004  -16.5679  -45.7831 H         1 UNK         0.0600 
    159 H159        3.5106  -17.6172  -43.3093 H         1 UNK         0.3000 
    160 H160        4.3294  -20.5642  -41.5061 H         1 UNK         0.0600 
    161 H161        6.1095  -18.2255  -42.3811 H         1 UNK         0.0600 
    162 H162        6.4802  -19.9308  -42.6070 H         1 UNK         0.0600 
    163 H163        6.3754  -19.2685  -40.9836 H         1 UNK         0.0600 
    164 H164        4.2491  -17.7817  -40.7988 H         1 UNK         0.3000 
    165 H165        0.7970  -17.7394  -39.8432 H         1 UNK         0.0600 
    166 H166        1.7540  -17.1290  -37.6632 H         1 UNK         0.0600 
    167 H167        2.0345  -18.8359  -37.9614 H         1 UNK         0.0600 
    168 H168        3.3519  -17.6865  -38.1609 H         1 UNK         0.0600 
    169 H169        2.4563  -15.6411  -39.4493 H         1 UNK         0.3000 
    170 H170        1.8075  -13.7491  -40.7366 H         1 UNK         0.0600 
    171 H171        4.3338  -14.4010  -42.3624 H         1 UNK         0.0600 
    172 H172        3.9812  -12.8563  -41.5876 H         1 UNK         0.0600 
    173 H173        4.2578  -14.2852  -40.6088 H         1 UNK         0.0600 
    174 H174        2.4186  -13.3085  -43.4586 H         1 UNK         0.3000 
    175 H175        0.5084  -12.0695  -44.5666 H         1 UNK         0.0600 
    176 H176        0.6506  -13.4518  -46.6695 H         1 UNK         0.0600 
    177 H177        0.6288  -14.9157  -45.6894 H         1 UNK         0.0600 
    178 H178        1.9733  -13.7863  -45.5706 H         1 UNK         0.0600 
    179 H179       -1.6029  -13.8046  -45.5254 H         1 UNK         0.3000 
    180 H180       -4.2129  -12.6933  -43.9004 H         1 UNK         0.0600 
    181 H181       -5.2650  -11.1291  -45.5536 H         1 UNK         0.0600 
    182 H182       -3.6632  -10.6324  -46.0979 H         1 UNK         0.0600 
    183 H183       -4.1837  -10.2929  -44.4527 H         1 UNK         0.0600 
    184 H184       -3.5842  -13.0410  -46.7890 H         1 UNK         0.3000 
    185 H185       -3.9745  -16.5082  -46.6805 H         1 UNK         0.0600 
    186 H186       -6.4303  -16.0370  -46.6034 H         1 UNK         0.0600 
    187 H187       -6.2188  -14.6975  -47.7245 H         1 UNK         0.0600 
    188 H188       -5.8928  -16.3521  -48.2446 H         1 UNK         0.0600 
    189 H189       -4.0486  -14.6865  -48.8826 H         1 UNK         0.3000 
    190 H190       -0.1061  -20.8925  -46.5751 H         1 UNK         0.3000 
    191 H191       -1.6914  -21.4446  -48.8368 H         1 UNK         0.0600 
    192 H192       -1.5794  -19.2590  -47.5326 H         1 UNK         0.0600 
    193 H193       -3.2119  -19.7718  -47.9309 H         1 UNK         0.0600 
    194 H194       -2.5988  -19.9776  -46.3005 H         1 UNK         0.0600 
    195 H195       -2.2676  -22.3017  -45.3830 H         1 UNK         0.3000 
    196 H196       -4.7058  -23.6698  -45.7287 H         1 UNK         0.0600 
    197 H197       -4.2045  -24.6312  -43.4856 H         1 UNK         0.0600 
    198 H198       -3.8584  -22.9089  -43.5283 H         1 UNK         0.0600 
    199 H199       -2.5399  -24.0753  -43.6007 H         1 UNK         0.0600 
    200 H200       -1.3443  -24.9406  -45.8303 H         1 UNK         0.3000 
    201 H201       -1.9872  -27.6649  -46.3071 H         1 UNK         0.0600 
    202 H202        0.2567  -26.8913  -45.5829 H         1 UNK         0.0600 
    203 H203        0.4914  -26.0527  -47.1148 H         1 UNK         0.0600 
    204 H204        0.3825  -27.8079  -47.0770 H         1 UNK         0.0600 
    205 H205       -1.8592  -24.8983  -48.4840 H         1 UNK         0.3000 
    206 H206       -2.2684  -26.4847  -50.9244 H         1 UNK         0.0600 
    207 H207       -2.1517  -24.2730  -52.0219 H         1 UNK         0.0600 
    208 H208       -2.1721  -23.4644  -50.4582 H         1 UNK         0.0600 
    209 H209       -0.7970  -24.4607  -50.9204 H         1 UNK         0.0600 
    210 H210       -4.2924  -26.1827  -48.5240 H         1 UNK         0.3000 
    211 H211       -6.4499  -26.3561  -48.2072 H         1 UNK         0.0600 
    212 H212       -6.8354  -26.5537  -51.2371 H         1 UNK         0.0600 
    213 H213       -7.9629  -27.0756  -49.9954 H         1 UNK         0.0600 
    214 H214       -6.4241  -27.9008  -50.1757 H         1 UNK         0.0600 
    215 H215       -5.3126  -23.8072  -48.2308 H         1 UNK         0.3000 
    216 H216       -5.8697  -21.7543  -47.7228 H         1 UNK         0.0600 
    217 H217       -8.1631  -21.0396  -47.2909 H         1 UNK         0.0600 
    218 H218       -7.9523  -22.6684  -46.6718 H         1 UNK         0.0600 
    219 H219       -8.8226  -22.4009  -48.1827 H         1 UNK         0.0600 
    220 H220       -5.1634  -22.5560  -50.4075 H         1 UNK         0.3000 
    221 H221       -6.3983  -20.6748  -52.2625 H         1 UNK         0.0600 
    222 H222       -3.8345  -22.3545  -52.4075 H         1 UNK         0.0600 
    223 H223       -5.3984  -22.7803  -53.0918 H         1 UNK         0.0600 
    224 H224       -4.4977  -21.4177  -53.7404 H         1 UNK         0.0600 
    225 H225       -5.2793  -18.8446  -53.2130 H         1 UNK         0.3000 
    226 H226       -2.8645  -17.7833  -52.0930 H         1 UNK         0.0600 
    227 H227       -4.4116  -16.9605  -50.3255 H         1 UNK         0.0600 
    228 H228       -3.9500  -15.6069  -51.3453 H         1 UNK         0.0600 
    229 H229       -5.5318  -16.3480  -51.5406 H         1 UNK         0.0600 
    230 H230       -2.1808  -15.9444  -53.3204 H         1 UNK         0.3000 
    231 H231       -1.7526  -14.6729  -55.0299 H         1 UNK         0.0600 
    232 H232       -4.7048  -14.8594  -55.8177 H         1 UNK         0.0600 
    233 H233       -3.5474  -13.6717  -56.3952 H         1 UNK         0.0600 
    234 H234       -4.0047  -13.6904  -54.6993 H         1 UNK         0.0600 
    235 H235       -3.7667  -17.3899  -56.1333 H         1 UNK         0.3000 
    236 H236       -2.5643  -17.6008  -58.7675 H         1 UNK         0.0600 
    237 H237       -4.8990  -18.3219  -58.2830 H         1 UNK         0.0600 
    238 H238       -3.9515  -19.6761  -58.8764 H         1 UNK         0.0600 
    239 H239       -4.3088  -19.5448  -57.1577 H         1 UNK         0.0600 
    240 H240       -1.4255  -18.4495  -55.7048 H         1 UNK         0.3000 
    241 H241       -0.1837  -20.9476  -56.1539 H         1 UNK         0.0600 
    242 H242        0.9282  -17.8818  -57.3889 H         1 UNK         0.3800 
    243 H243        2.5681  -18.3959  -57.6918 H         1 UNK         0.3800 
    244 H244        0.9121  -20.5911  -53.9950 H         1 UNK         0.0800 
    245 H245        0.5902  -18.8762  -54.0404 H         1 UNK         0.0800 
    246 H246       -0.5497  -22.1150  -52.4981 H         1 UNK         0.0800 
    247 H247       -1.8394  -21.4148  -51.5471 H         1 UNK         0.0800 
@<TRIPOS>BOND
     1    1    2 1    
     2    1  127 1    
     3    1  128 1    
     4    1  129 1    
     5    2    3 2    
     6    2    4 am   BACKBONE|DICT|INTERRES
     7    4    5 1    
     8    4  130 1    
     9    5    6 1    
    10    5   65 1    
    11    5  131 1    
    12    6    7 1    
    13    6  132 1    
    14    6  133 1    
    15    7    8 1    
    16    8    9 1    
    17    8  134 1    
    18    8  135 1    
    19    9   10 ar   
    20    9   14 ar   
    21   10   11 ar   
    22   10  136 1    
    23   11   12 ar   
    24   11  126 1    
    25   12   13 ar   
    26   12  137 1    
    27   13   14 ar   
    28   13   15 1    
    29   14  138 1    
    30   15   16 1    
    31   15  139 1    
    32   15  140 1    
    33   16   17 1    
    34   17   18 1    
    35   17  141 1    
    36   17  142 1    
    37   18   19 1    
    38   18   67 1    
    39   18  143 1    
    40   19   20 am   BACKBONE|DICT|INTERRES
    41   19  144 1    
    42   20   21 2    
    43   20   22 1    
    44   22   23 1    
    45   22   24 1    
    46   22  145 1    
    47   23  146 1    
    48   23  147 1    
    49   23  148 1    
    50   24   25 am   BACKBONE|DICT|INTERRES
    51   24  149 1    
    52   25   26 2    
    53   25   27 1    
    54   27   28 1    
    55   27   29 1    
    56   27  150 1    
    57   28  151 1    
    58   28  152 1    
    59   28  153 1    
    60   29   30 am   BACKBONE|DICT|INTERRES
    61   29  154 1    
    62   30   31 2    
    63   30   32 1    
    64   32   33 1    
    65   32   34 1    
    66   32  155 1    
    67   33  156 1    
    68   33  157 1    
    69   33  158 1    
    70   34   35 am   BACKBONE|DICT|INTERRES
    71   34  159 1    
    72   35   36 2    
    73   35   37 1    
    74   37   38 1    
    75   37   39 1    
    76   37  160 1    
    77   38  161 1    
    78   38  162 1    
    79   38  163 1    
    80   39   40 am   BACKBONE|DICT|INTERRES
    81   39  164 1    
    82   40   41 2    
    83   40   42 1    
    84   42   43 1    
    85   42   44 1    
    86   42  165 1    
    87   43  166 1    
    88   43  167 1    
    89   43  168 1    
    90   44   45 am   BACKBONE|DICT|INTERRES
    91   44  169 1    
    92   45   46 2    
    93   45   47 1    
    94   47   48 1    
    95   47   49 1    
    96   47  170 1    
    97   48  171 1    
    98   48  172 1    
    99   48  173 1    
   100   49   50 am   BACKBONE|DICT|INTERRES
   101   49  174 1    
   102   50   51 2    
   103   50   52 1    
   104   52   53 1    
   105   52   54 1    
   106   52  175 1    
   107   53  176 1    
   108   53  177 1    
   109   53  178 1    
   110   54   55 am   BACKBONE|DICT|INTERRES
   111   54  179 1    
   112   55   56 2    
   113   55   57 1    
   114   57   58 1    
   115   57   59 1    
   116   57  180 1    
   117   58  181 1    
   118   58  182 1    
   119   58  183 1    
   120   59   60 am   BACKBONE|DICT|INTERRES
   121   59  184 1    
   122   60   61 2    
   123   60   62 1    
   124   62   63 1    
   125   62   64 1    
   126   62  185 1    
   127   63  186 1    
   128   63  187 1    
   129   63  188 1    
   130   64   65 am   BACKBONE|DICT|INTERRES
   131   64  189 1    
   132   65   66 2    
   133   67   68 2    
   134   67   69 am   BACKBONE|DICT|INTERRES
   135   69   70 1    
   136   69  190 1    
   137   70   71 1    
   138   70   72 1    
   139   70  191 1    
   140   71  192 1    
   141   71  193 1    
   142   71  194 1    
   143   72   73 2    
   144   72   74 am   BACKBONE|DICT|INTERRES
   145   74   75 1    
   146   74  195 1    
   147   75   76 1    
   148   75   77 1    
   149   75  196 1    
   150   76  197 1    
   151   76  198 1    
   152   76  199 1    
   153   77   78 2    
   154   77   79 am   BACKBONE|DICT|INTERRES
   155   79   80 1    
   156   79  200 1    
   157   80   81 1    
   158   80   82 1    
   159   80  201 1    
   160   81  202 1    
   161   81  203 1    
   162   81  204 1    
   163   82   83 2    
   164   82   84 am   BACKBONE|DICT|INTERRES
   165   84   85 1    
   166   84  205 1    
   167   85   86 1    
   168   85   87 1    
   169   85  206 1    
   170   86  207 1    
   171   86  208 1    
   172   86  209 1    
   173   87   88 2    
   174   87   89 am   BACKBONE|DICT|INTERRES
   175   89   90 1    
   176   89  210 1    
   177   90   91 1    
   178   90   92 1    
   179   90  211 1    
   180   91  212 1    
   181   91  213 1    
   182   91  214 1    
   183   92   93 2    
   184   92   94 am   BACKBONE|DICT|INTERRES
   185   94   95 1    
   186   94  215 1    
   187   95   96 1    
   188   95   97 1    
   189   95  216 1    
   190   96  217 1    
   191   96  218 1    
   192   96  219 1    
   193   97   98 2    
   194   97   99 am   BACKBONE|DICT|INTERRES
   195   99  100 1    
   196   99  220 1    
   197  100  101 1    
   198  100  102 1    
   199  100  221 1    
   200  101  222 1    
   201  101  223 1    
   202  101  224 1    
   203  102  103 2    
   204  102  104 am   BACKBONE|DICT|INTERRES
   205  104  105 1    
   206  104  225 1    
   207  105  106 1    
   208  105  107 1    
   209  105  226 1    
   210  106  227 1    
   211  106  228 1    
   212  106  229 1    
   213  107  108 2    
   214  107  109 am   BACKBONE|DICT|INTERRES
   215  109  110 1    
   216  109  230 1    
   217  110  111 1    
   218  110  112 1    
   219  110  231 1    
   220  111  232 1    
   221  111  233 1    
   222  111  234 1    
   223  112  113 2    
   224  112  114 am   BACKBONE|DICT|INTERRES
   225  114  115 1    
   226  114  235 1    
   227  115  116 1    
   228  115  117 1    
   229  115  236 1    
   230  116  237 1    
   231  116  238 1    
   232  116  239 1    
   233  117  118 2    
   234  117  119 am   BACKBONE|DICT|INTERRES
   235  119  120 1    
   236  119  240 1    
   237  120  121 1    
   238  120  124 1    
   239  120  241 1    
   240  121  122 am   BACKBONE|DICT|INTERRES
   241  121  123 2    
   242  122  242 1    
   243  122  243 1    
   244  124  125 1    
   245  124  244 1    
   246  124  245 1    
   247  125  126 1    
   248  126  246 1    
   249  126  247 1    
@<TRIPOS>SUBSTRUCTURE
     1 UNK         1 GROUP             0       ****    0 ROOT    
