@<TRIPOS>MOLECULE
3R540
247   249    1
SMALL
USER_CHARGES


@<TRIPOS>ATOM
      1 CA         -6.9579  -16.1875  -43.5739 C.3       0 UNK        -0.1800 
      2 C          -5.8792  -15.2432  -44.0861 C.2       0 UNK         0.5000 
      3 O          -5.7740  -14.1142  -43.6056 O.2       0 UNK        -0.5000 
      4 N          -5.0868  -15.6976  -45.0643 N.am      1 UNK        -0.5000 
      5 CA         -3.9476  -14.9669  -45.6273 C.3       1 UNK         0.1400 
      6 C6         -3.5316  -15.5689  -46.9930 C.3       23 UNK        -0.0398 
      7 S7         -2.7026  -14.3569  -48.0726 S.3       23 UNK        -0.2404 
      8 C8         -0.9747  -14.9441  -48.0215 C.3       23 UNK        -0.0205 
      9 C9         -0.6423  -16.1860  -48.8521 C.ar      23 UNK        -0.0193 
     10 C10        -1.5859  -16.8747  -49.6283 C.ar      23 UNK        -0.1150 
     11 C11        -1.2112  -17.9950  -50.3756 C.ar      23 UNK        -0.0193 
     12 C12         0.1178  -18.4237  -50.3585 C.ar      23 UNK        -0.1150 
     13 C13         1.0696  -17.7531  -49.5888 C.ar      23 UNK        -0.0193 
     14 C14         0.6810  -16.6388  -48.8407 C.ar      23 UNK        -0.1150 
     15 C15         2.5221  -18.2069  -49.5895 C.3       23 UNK        -0.0205 
     16 S16         2.9013  -19.3345  -48.2103 S.3       23 UNK        -0.2404 
     17 C17         2.2501  -20.9332  -48.8141 C.3       23 UNK        -0.0398 
     18 CA          1.2328  -21.6076  -47.8609 C.3       11 UNK         0.1400 
     19 N           1.7953  -21.8382  -46.5234 N.am      11 UNK        -0.5000 
     20 C           1.2104  -22.4828  -45.5033 C.2       10 UNK         0.5000 
     21 O           0.0377  -22.8607  -45.5119 O.2       10 UNK        -0.5000 
     22 CA          2.0894  -22.7932  -44.2815 C.3       10 UNK         0.1400 
     23 CB          3.6031  -22.7768  -44.5792 C.3       10 UNK        -0.1800 
     24 N           1.8008  -21.8659  -43.1901 N.am      10 UNK        -0.5000 
     25 C           1.7017  -22.2254  -41.9023 C.2       9 UNK         0.5000 
     26 O           1.7388  -23.3985  -41.5259 O.2       9 UNK        -0.5000 
     27 CA          1.5737  -21.1196  -40.8326 C.3       9 UNK         0.1400 
     28 CB          2.8029  -21.1236  -39.9084 C.3       9 UNK        -0.1800 
     29 N           1.4255  -19.7748  -41.3821 N.am      9 UNK        -0.5000 
     30 C           0.2766  -19.2305  -41.7997 C.2       8 UNK         0.5000 
     31 O          -0.8123  -19.8022  -41.7509 O.2       8 UNK        -0.5000 
     32 CA          0.3752  -17.8113  -42.3933 C.3       8 UNK         0.1400 
     33 CB          0.2476  -16.7594  -41.2808 C.3       8 UNK        -0.1800 
     34 N           1.6184  -17.5808  -43.1354 N.am      8 UNK        -0.5000 
     35 C           2.0478  -18.2920  -44.1896 C.2       7 UNK         0.5000 
     36 O           1.4263  -19.2297  -44.6902 O.2       7 UNK        -0.5000 
     37 CA          3.4390  -17.9312  -44.7327 C.3       7 UNK         0.1400 
     38 CB          3.3747  -16.6807  -45.6224 C.3       7 UNK        -0.1800 
     39 N           4.4028  -17.7234  -43.6518 N.am      7 UNK        -0.5000 
     40 C           4.9166  -18.7061  -42.8975 C.2       6 UNK         0.5000 
     41 O           4.6598  -19.8979  -43.0581 O.2       6 UNK        -0.5000 
     42 CA          5.8581  -18.2851  -41.7542 C.3       6 UNK         0.1400 
     43 CB          7.3008  -18.1520  -42.2644 C.3       6 UNK        -0.1800 
     44 N           5.4518  -17.0293  -41.1232 N.am      6 UNK        -0.5000 
     45 C           4.3468  -16.8771  -40.3798 C.2       5 UNK         0.5000 
     46 O           3.5713  -17.7941  -40.1105 O.2       5 UNK        -0.5000 
     47 CA          4.0335  -15.4440  -39.9053 C.3       5 UNK         0.1400 
     48 CB          4.7607  -15.1383  -38.5876 C.3       5 UNK        -0.1800 
     49 N           4.3753  -14.4213  -40.9016 N.am      5 UNK        -0.5000 
     50 C           3.8096  -14.3404  -42.1118 C.2       4 UNK         0.5000 
     51 O           2.9352  -15.1195  -42.5064 O.2       4 UNK        -0.5000 
     52 CA          4.3281  -13.2493  -43.0594 C.3       4 UNK         0.1400 
     53 CB          5.6983  -13.6376  -43.6454 C.3       4 UNK        -0.1800 
     54 N           3.3430  -13.1294  -44.1226 N.am      4 UNK        -0.5000 
     55 C           3.1982  -12.1505  -45.0195 C.2       3 UNK         0.5000 
     56 O           3.9459  -11.1762  -45.1062 O.2       3 UNK        -0.5000 
     57 CA          1.9926  -12.2897  -45.9739 C.3       3 UNK         0.1400 
     58 CB          2.4305  -12.9491  -47.2915 C.3       3 UNK        -0.1800 
     59 N           0.8962  -13.0703  -45.3837 N.am      3 UNK        -0.5000 
     60 C           0.1192  -12.6307  -44.3843 C.2       2 UNK         0.5000 
     61 O           0.1359  -11.4718  -43.9665 O.2       2 UNK        -0.5000 
     62 CA         -0.8342  -13.6613  -43.7653 C.3       2 UNK         0.1400 
     63 CB         -1.3065  -13.2614  -42.3519 C.3       2 UNK        -0.1800 
     64 N          -1.9774  -13.8587  -44.6513 N.am      2 UNK        -0.5000 
     65 C          -2.7716  -14.9347  -44.6240 C.2       1 UNK         0.5000 
     66 O          -2.5967  -15.8837  -43.8565 O.2       1 UNK        -0.5000 
     67 C          -0.1363  -20.8991  -47.8854 C.2       11 UNK         0.5000 
     68 O          -0.9161  -21.1454  -48.8063 O.2       11 UNK        -0.5000 
     69 N          -0.4396  -20.0963  -46.8556 N.am      12 UNK        -0.5000 
     70 CA         -1.7312  -19.4392  -46.6532 C.3       12 UNK         0.1400 
     71 CB         -1.6697  -18.6034  -45.3752 C.3       12 UNK        -0.1800 
     72 C          -2.9381  -20.3941  -46.5876 C.2       12 UNK         0.5000 
     73 O          -4.0535  -19.9620  -46.8737 O.2       12 UNK        -0.5000 
     74 N          -2.7088  -21.6758  -46.2639 N.am      13 UNK        -0.5000 
     75 CA         -3.7183  -22.7361  -46.3102 C.3       13 UNK         0.1400 
     76 CB         -3.1069  -24.0360  -45.7677 C.3       13 UNK        -0.1800 
     77 C          -4.3091  -22.9649  -47.7181 C.2       13 UNK         0.5000 
     78 O          -5.4562  -23.3995  -47.8274 O.2       13 UNK        -0.5000 
     79 N          -3.5411  -22.6382  -48.7689 N.am      14 UNK        -0.5000 
     80 CA         -3.9710  -22.7233  -50.1638 C.3       14 UNK         0.1400 
     81 CB         -2.7425  -22.8980  -51.0683 C.3       14 UNK        -0.1800 
     82 C          -4.8445  -21.5351  -50.6184 C.2       14 UNK         0.5000 
     83 O          -5.3559  -21.5664  -51.7377 O.2       14 UNK        -0.5000 
     84 N          -5.0467  -20.5221  -49.7588 N.am      15 UNK        -0.5000 
     85 CA         -5.9308  -19.3804  -50.0278 C.3       15 UNK         0.1400 
     86 CB         -5.7289  -18.3017  -48.9534 C.3       15 UNK        -0.1800 
     87 C          -7.4204  -19.7664  -50.1383 C.2       15 UNK         0.5000 
     88 O          -8.2016  -19.0031  -50.7076 O.2       15 UNK        -0.5000 
     89 N          -7.7856  -20.9583  -49.6441 N.am      16 UNK        -0.5000 
     90 CA         -9.0967  -21.5954  -49.7802 C.3       16 UNK         0.1400 
     91 CB         -9.2195  -22.6861  -48.7010 C.3       16 UNK        -0.1800 
     92 C          -9.3461  -22.1381  -51.2086 C.2       16 UNK         0.5000 
     93 O          -9.6594  -23.3171  -51.3802 O.2       16 UNK        -0.5000 
     94 N          -9.1933  -21.2570  -52.2067 N.am      17 UNK        -0.5000 
     95 CA         -9.4354  -21.4441  -53.6420 C.3       17 UNK         0.1400 
     96 CB        -10.9276  -21.7356  -53.9053 C.3       17 UNK        -0.1800 
     97 C          -8.5113  -22.4609  -54.3492 C.2       17 UNK         0.5000 
     98 O          -8.7893  -22.8266  -55.4931 O.2       17 UNK        -0.5000 
     99 N          -7.4090  -22.8745  -53.7095 N.am      18 UNK        -0.5000 
    100 CA        -6.4141  -23.7847  -54.2785 C.3       18 UNK         0.1400 
    101 CB        -5.8555  -24.6938  -53.1708 C.3       18 UNK        -0.1800 
    102 C         -5.3231  -22.9746  -55.0005 C.2       18 UNK         0.5000 
    103 O         -4.1583  -22.9904  -54.5984 O.2       18 UNK        -0.5000 
    104 N         -5.7283  -22.2624  -56.0607 N.am      19 UNK        -0.5000 
    105 CA        -4.8994  -21.3375  -56.8405 C.3       19 UNK         0.1400 
    106 CB        -5.7504  -20.7206  -57.9600 C.3       19 UNK        -0.1800 
    107 C         -3.6168  -21.9650  -57.4197 C.2       19 UNK         0.5000 
    108 O         -2.5873  -21.2928  -57.4778 O.2       19 UNK        -0.5000 
    109 N         -3.6892  -23.2506  -57.7905 N.am      20 UNK        -0.5000 
    110 CA        -2.5604  -24.0424  -58.2826 C.3       20 UNK         0.1400 
    111 CB        -3.0921  -25.3622  -58.8620 C.3       20 UNK        -0.1800 
    112 C         -1.4859  -24.3187  -57.2110 C.2       20 UNK         0.5000 
    113 O         -0.3151  -24.4714  -57.5618 O.2       20 UNK        -0.5000 
    114 N         -1.8939  -24.3764  -55.9357 N.am      21 UNK        -0.5000 
    115 CA        -0.9994  -24.5351  -54.7896 C.3       21 UNK         0.1400 
    116 CB        -1.7131  -25.3382  -53.6908 C.3       21 UNK        -0.1800 
    117 C         -0.5166  -23.1724  -54.2622 C.2       21 UNK         0.5000 
    118 O          0.6412  -23.0600  -53.8579 O.2       21 UNK        -0.5000 
    119 N         -1.4005  -22.1649  -54.2871 N.am      22 UNK        -0.5000 
    120 CA        -1.0938  -20.7715  -53.9327 C.3       22 UNK         0.1400 
    121 C         -0.0930  -20.0972  -54.9172 C.2       22 UNK         0.5000 
    122 N         -0.2588  -20.2554  -56.2248 N.am      22 UNK        -0.7600 
    123 O          0.8558  -19.4442  -54.4918 O.2       22 UNK        -0.5000 
    124 C124       -2.3951  -19.9457  -53.7539 C.3       23 UNK        -0.0398 
    125 S125       -2.1290  -18.3237  -52.9568 S.3       23 UNK        -0.2404 
    126 C126       -2.2368  -18.7579  -51.1954 C.3       23 UNK        -0.0205 
    127 H127       -6.8022  -16.3948  -42.5153 H         1 UNK         0.0600 
    128 H128       -6.9547  -17.1367  -44.1103 H         1 UNK         0.0600 
    129 H129       -7.9418  -15.7337  -43.6926 H         1 UNK         0.0600 
    130 H130       -5.2026  -16.6472  -45.3869 H         1 UNK         0.3000 
    131 H131       -4.2809  -13.9394  -45.7909 H         1 UNK         0.0600 
    132 H132       -2.9192  -16.4632  -46.8753 H         1 UNK         0.0800 
    133 H133       -4.4196  -15.8922  -47.5377 H         1 UNK         0.0800 
    134 H134       -0.3476  -14.1262  -48.3754 H         1 UNK         0.0800 
    135 H135       -0.6921  -15.1268  -46.9847 H         1 UNK         0.0800 
    136 H136       -2.6148  -16.5499  -49.6629 H         1 UNK         0.1150 
    137 H137        0.4062  -19.2831  -50.9467 H         1 UNK         0.1150 
    138 H138        1.4197  -16.1096  -48.2564 H         1 UNK         0.1150 
    139 H139        2.7765  -18.6816  -50.5384 H         1 UNK         0.0800 
    140 H140        3.1719  -17.3342  -49.5092 H         1 UNK         0.0800 
    141 H141        1.8201  -20.8156  -49.8096 H         1 UNK         0.0800 
    142 H142        3.1039  -21.5977  -48.9519 H         1 UNK         0.0800 
    143 H143        1.0421  -22.6034  -48.2664 H         1 UNK         0.0600 
    144 H144        2.7451  -21.5210  -46.3971 H         1 UNK         0.3000 
    145 H145        1.8244  -23.8112  -43.9886 H         1 UNK         0.0600 
    146 H146        4.1731  -23.1065  -43.7104 H         1 UNK         0.0600 
    147 H147        3.8518  -23.4500  -45.4006 H         1 UNK         0.0600 
    148 H148        3.9582  -21.7800  -44.8421 H         1 UNK         0.0600 
    149 H149        1.7104  -20.8891  -43.4471 H         1 UNK         0.3000 
    150 H150        0.6951  -21.3535  -40.2280 H         1 UNK         0.0600 
    151 H151        2.9364  -22.0952  -39.4312 H         1 UNK         0.0600 
    152 H152        2.7008  -20.3846  -39.1133 H         1 UNK         0.0600 
    153 H153        3.7176  -20.8980  -40.4584 H         1 UNK         0.0600 
    154 H154        2.2659  -19.2125  -41.4257 H         1 UNK         0.3000 
    155 H155       -0.4569  -17.6674  -43.0811 H         1 UNK         0.0600 
    156 H156        1.0325  -16.8672  -40.5324 H         1 UNK         0.0600 
    157 H157       -0.7106  -16.8507  -40.7681 H         1 UNK         0.0600 
    158 H158        0.3065  -15.7477  -41.6794 H         1 UNK         0.0600 
    159 H159        2.1909  -16.8051  -42.8125 H         1 UNK         0.3000 
    160 H160        3.7858  -18.7662  -45.3449 H         1 UNK         0.0600 
    161 H161        3.0350  -15.8046  -45.0732 H         1 UNK         0.0600 
    162 H162        2.6823  -16.8340  -46.4493 H         1 UNK         0.0600 
    163 H163        4.3492  -16.4515  -46.0536 H         1 UNK         0.0600 
    164 H164        4.6301  -16.7685  -43.4215 H         1 UNK         0.3000 
    165 H165        5.8339  -19.0717  -40.9968 H         1 UNK         0.0600 
    166 H166        7.9881  -17.9265  -41.4488 H         1 UNK         0.0600 
    167 H167        7.6386  -19.0814  -42.7249 H         1 UNK         0.0600 
    168 H168        7.3943  -17.3625  -43.0112 H         1 UNK         0.0600 
    169 H169        6.0356  -16.2232  -41.2893 H         1 UNK         0.3000 
    170 H170        2.9585  -15.3863  -39.7220 H         1 UNK         0.0600 
    171 H171        4.5090  -15.8750  -37.8233 H         1 UNK         0.0600 
    172 H172        5.8443  -15.1510  -38.7117 H         1 UNK         0.0600 
    173 H173        4.4781  -14.1598  -38.1990 H         1 UNK         0.0600 
    174 H174        5.0873  -13.7539  -40.6412 H         1 UNK         0.3000 
    175 H175        4.3968  -12.3047  -42.5168 H         1 UNK         0.0600 
    176 H176        5.6475  -14.5755  -44.1999 H         1 UNK         0.0600 
    177 H177        6.0707  -12.8706  -44.3244 H         1 UNK         0.0600 
    178 H178        6.4442  -13.7584  -42.8591 H         1 UNK         0.0600 
    179 H179        2.6557  -13.8713  -44.0927 H         1 UNK         0.3000 
    180 H180        1.6285  -11.2846  -46.1975 H         1 UNK         0.0600 
    181 H181        1.6260  -12.9363  -48.0254 H         1 UNK         0.0600 
    182 H182        2.7402  -13.9844  -47.1443 H         1 UNK         0.0600 
    183 H183        3.2731  -12.4157  -47.7337 H         1 UNK         0.0600 
    184 H184        0.8044  -14.0258  -45.6924 H         1 UNK         0.3000 
    185 H185       -0.2799  -14.5991  -43.6862 H         1 UNK         0.0600 
    186 H186       -0.4563  -13.0593  -41.6992 H         1 UNK         0.0600 
    187 H187       -1.9282  -12.3657  -42.3737 H         1 UNK         0.0600 
    188 H188       -1.8860  -14.0580  -41.8853 H         1 UNK         0.0600 
    189 H189       -2.1551  -13.1173  -45.3161 H         1 UNK         0.3000 
    190 H190        0.2631  -19.9429  -46.1378 H         1 UNK         0.3000 
    191 H191       -1.8964  -18.7700  -47.4984 H         1 UNK         0.0600 
    192 H192       -1.4033  -19.2220  -44.5181 H         1 UNK         0.0600 
    193 H193       -2.6361  -18.1494  -45.1570 H         1 UNK         0.0600 
    194 H194       -0.9384  -17.7997  -45.4633 H         1 UNK         0.0600 
    195 H195       -1.7607  -21.9610  -46.0386 H         1 UNK         0.3000 
    196 H196       -4.5394  -22.4420  -45.6534 H         1 UNK         0.0600 
    197 H197       -3.8442  -24.8397  -45.7525 H         1 UNK         0.0600 
    198 H198       -2.7454  -23.9064  -44.7474 H         1 UNK         0.0600 
    199 H199       -2.2678  -24.3697  -46.3796 H         1 UNK         0.0600 
    200 H200       -2.6197  -22.2430  -48.6074 H         1 UNK         0.3000 
    201 H201       -4.5852  -23.6185  -50.2749 H         1 UNK         0.0600 
    202 H202       -3.0385  -22.9477  -52.1151 H         1 UNK         0.0600 
    203 H203       -2.2115  -23.8212  -50.8368 H         1 UNK         0.0600 
    204 H204       -2.0365  -22.0762  -50.9709 H         1 UNK         0.0600 
    205 H205       -4.6177  -20.5534  -48.8409 H         1 UNK         0.3000 
    206 H206       -5.6398  -18.9558  -50.9907 H         1 UNK         0.0600 
    207 H207       -4.6790  -18.0240  -48.8615 H         1 UNK         0.0600 
    208 H208       -6.2844  -17.3963  -49.2009 H         1 UNK         0.0600 
    209 H209       -6.0754  -18.6392  -47.9761 H         1 UNK         0.0600 
    210 H210       -7.0676  -21.5198  -49.2089 H         1 UNK         0.3000 
    211 H211       -9.8666  -20.8463  -49.5848 H         1 UNK         0.0600 
    212 H212       -8.4701  -23.4679  -48.8326 H         1 UNK         0.0600 
    213 H213      -10.2013  -23.1604  -48.7308 H         1 UNK         0.0600 
    214 H214       -9.0938  -22.2681  -47.7021 H         1 UNK         0.0600 
    215 H215       -8.9041  -20.3215  -51.9340 H         1 UNK         0.3000 
    216 H216       -9.2090  -20.4811  -54.1017 H         1 UNK         0.0600 
    217 H217      -11.1514  -21.7140  -54.9725 H         1 UNK         0.0600 
    218 H218      -11.5653  -20.9909  -53.4291 H         1 UNK         0.0600 
    219 H219      -11.2203  -22.7171  -53.5314 H         1 UNK         0.0600 
    220 H220       -7.1771  -22.4661  -52.8129 H         1 UNK         0.3000 
    221 H221       -6.8825  -24.4354  -55.0198 H         1 UNK         0.0600 
    222 H222       -5.3212  -24.1262  -52.4128 H         1 UNK         0.0600 
    223 H223       -6.6532  -25.2470  -52.6751 H         1 UNK         0.0600 
    224 H224       -5.1587  -25.4246  -53.5826 H         1 UNK         0.0600 
    225 H225       -6.7079  -22.3117  -56.3104 H         1 UNK         0.3000 
    226 H226       -4.5939  -20.5347  -56.1680 H         1 UNK         0.0600 
    227 H227       -6.6074  -20.1830  -57.5537 H         1 UNK         0.0600 
    228 H228       -5.1689  -20.0071  -58.5456 H         1 UNK         0.0600 
    229 H229       -6.1252  -21.4811  -58.6460 H         1 UNK         0.0600 
    230 H230       -4.5755  -23.7253  -57.7027 H         1 UNK         0.3000 
    231 H231       -2.0826  -23.4831  -59.0898 H         1 UNK         0.0600 
    232 H232       -2.2789  -25.9680  -59.2642 H         1 UNK         0.0600 
    233 H233       -3.7940  -25.1817  -59.6763 H         1 UNK         0.0600 
    234 H234       -3.6014  -25.9584  -58.1038 H         1 UNK         0.0600 
    235 H235       -2.8634  -24.1782  -55.7217 H         1 UNK         0.3000 
    236 H236       -0.1162  -25.1035  -55.0895 H         1 UNK         0.0600 
    237 H237       -1.9425  -26.3477  -54.0319 H         1 UNK         0.0600 
    238 H238       -1.0872  -25.4292  -52.8022 H         1 UNK         0.0600 
    239 H239       -2.6495  -24.8717  -53.3881 H         1 UNK         0.0600 
    240 H240       -2.3526  -22.3640  -54.5781 H         1 UNK         0.3000 
    241 H241       -0.6003  -20.8071  -52.9592 H         1 UNK         0.0600 
    242 H242        0.3975  -19.8276  -56.8577 H         1 UNK         0.3800 
    243 H243       -1.0638  -20.7498  -56.6038 H         1 UNK         0.3800 
    244 H244       -2.8678  -19.7754  -54.7215 H         1 UNK         0.0800 
    245 H245       -3.1230  -20.5058  -53.1647 H         1 UNK         0.0800 
    246 H246       -3.2446  -18.5493  -50.8397 H         1 UNK         0.0800 
    247 H247       -2.0741  -19.8249  -51.0533 H         1 UNK         0.0800 
@<TRIPOS>BOND
     1    1    2 1    
     2    1  127 1    
     3    1  128 1    
     4    1  129 1    
     5    2    3 2    
     6    2    4 am   BACKBONE|DICT|INTERRES
     7    4    5 1    
     8    4  130 1    
     9    5    6 1    
    10    5   65 1    
    11    5  131 1    
    12    6    7 1    
    13    6  132 1    
    14    6  133 1    
    15    7    8 1    
    16    8    9 1    
    17    8  134 1    
    18    8  135 1    
    19    9   10 ar   
    20    9   14 ar   
    21   10   11 ar   
    22   10  136 1    
    23   11   12 ar   
    24   11  126 1    
    25   12   13 ar   
    26   12  137 1    
    27   13   14 ar   
    28   13   15 1    
    29   14  138 1    
    30   15   16 1    
    31   15  139 1    
    32   15  140 1    
    33   16   17 1    
    34   17   18 1    
    35   17  141 1    
    36   17  142 1    
    37   18   19 1    
    38   18   67 1    
    39   18  143 1    
    40   19   20 am   BACKBONE|DICT|INTERRES
    41   19  144 1    
    42   20   21 2    
    43   20   22 1    
    44   22   23 1    
    45   22   24 1    
    46   22  145 1    
    47   23  146 1    
    48   23  147 1    
    49   23  148 1    
    50   24   25 am   BACKBONE|DICT|INTERRES
    51   24  149 1    
    52   25   26 2    
    53   25   27 1    
    54   27   28 1    
    55   27   29 1    
    56   27  150 1    
    57   28  151 1    
    58   28  152 1    
    59   28  153 1    
    60   29   30 am   BACKBONE|DICT|INTERRES
    61   29  154 1    
    62   30   31 2    
    63   30   32 1    
    64   32   33 1    
    65   32   34 1    
    66   32  155 1    
    67   33  156 1    
    68   33  157 1    
    69   33  158 1    
    70   34   35 am   BACKBONE|DICT|INTERRES
    71   34  159 1    
    72   35   36 2    
    73   35   37 1    
    74   37   38 1    
    75   37   39 1    
    76   37  160 1    
    77   38  161 1    
    78   38  162 1    
    79   38  163 1    
    80   39   40 am   BACKBONE|DICT|INTERRES
    81   39  164 1    
    82   40   41 2    
    83   40   42 1    
    84   42   43 1    
    85   42   44 1    
    86   42  165 1    
    87   43  166 1    
    88   43  167 1    
    89   43  168 1    
    90   44   45 am   BACKBONE|DICT|INTERRES
    91   44  169 1    
    92   45   46 2    
    93   45   47 1    
    94   47   48 1    
    95   47   49 1    
    96   47  170 1    
    97   48  171 1    
    98   48  172 1    
    99   48  173 1    
   100   49   50 am   BACKBONE|DICT|INTERRES
   101   49  174 1    
   102   50   51 2    
   103   50   52 1    
   104   52   53 1    
   105   52   54 1    
   106   52  175 1    
   107   53  176 1    
   108   53  177 1    
   109   53  178 1    
   110   54   55 am   BACKBONE|DICT|INTERRES
   111   54  179 1    
   112   55   56 2    
   113   55   57 1    
   114   57   58 1    
   115   57   59 1    
   116   57  180 1    
   117   58  181 1    
   118   58  182 1    
   119   58  183 1    
   120   59   60 am   BACKBONE|DICT|INTERRES
   121   59  184 1    
   122   60   61 2    
   123   60   62 1    
   124   62   63 1    
   125   62   64 1    
   126   62  185 1    
   127   63  186 1    
   128   63  187 1    
   129   63  188 1    
   130   64   65 am   BACKBONE|DICT|INTERRES
   131   64  189 1    
   132   65   66 2    
   133   67   68 2    
   134   67   69 am   BACKBONE|DICT|INTERRES
   135   69   70 1    
   136   69  190 1    
   137   70   71 1    
   138   70   72 1    
   139   70  191 1    
   140   71  192 1    
   141   71  193 1    
   142   71  194 1    
   143   72   73 2    
   144   72   74 am   BACKBONE|DICT|INTERRES
   145   74   75 1    
   146   74  195 1    
   147   75   76 1    
   148   75   77 1    
   149   75  196 1    
   150   76  197 1    
   151   76  198 1    
   152   76  199 1    
   153   77   78 2    
   154   77   79 am   BACKBONE|DICT|INTERRES
   155   79   80 1    
   156   79  200 1    
   157   80   81 1    
   158   80   82 1    
   159   80  201 1    
   160   81  202 1    
   161   81  203 1    
   162   81  204 1    
   163   82   83 2    
   164   82   84 am   BACKBONE|DICT|INTERRES
   165   84   85 1    
   166   84  205 1    
   167   85   86 1    
   168   85   87 1    
   169   85  206 1    
   170   86  207 1    
   171   86  208 1    
   172   86  209 1    
   173   87   88 2    
   174   87   89 am   BACKBONE|DICT|INTERRES
   175   89   90 1    
   176   89  210 1    
   177   90   91 1    
   178   90   92 1    
   179   90  211 1    
   180   91  212 1    
   181   91  213 1    
   182   91  214 1    
   183   92   93 2    
   184   92   94 am   BACKBONE|DICT|INTERRES
   185   94   95 1    
   186   94  215 1    
   187   95   96 1    
   188   95   97 1    
   189   95  216 1    
   190   96  217 1    
   191   96  218 1    
   192   96  219 1    
   193   97   98 2    
   194   97   99 am   BACKBONE|DICT|INTERRES
   195   99  100 1    
   196   99  220 1    
   197  100  101 1    
   198  100  102 1    
   199  100  221 1    
   200  101  222 1    
   201  101  223 1    
   202  101  224 1    
   203  102  103 2    
   204  102  104 am   BACKBONE|DICT|INTERRES
   205  104  105 1    
   206  104  225 1    
   207  105  106 1    
   208  105  107 1    
   209  105  226 1    
   210  106  227 1    
   211  106  228 1    
   212  106  229 1    
   213  107  108 2    
   214  107  109 am   BACKBONE|DICT|INTERRES
   215  109  110 1    
   216  109  230 1    
   217  110  111 1    
   218  110  112 1    
   219  110  231 1    
   220  111  232 1    
   221  111  233 1    
   222  111  234 1    
   223  112  113 2    
   224  112  114 am   BACKBONE|DICT|INTERRES
   225  114  115 1    
   226  114  235 1    
   227  115  116 1    
   228  115  117 1    
   229  115  236 1    
   230  116  237 1    
   231  116  238 1    
   232  116  239 1    
   233  117  118 2    
   234  117  119 am   BACKBONE|DICT|INTERRES
   235  119  120 1    
   236  119  240 1    
   237  120  121 1    
   238  120  124 1    
   239  120  241 1    
   240  121  122 am   BACKBONE|DICT|INTERRES
   241  121  123 2    
   242  122  242 1    
   243  122  243 1    
   244  124  125 1    
   245  124  244 1    
   246  124  245 1    
   247  125  126 1    
   248  126  246 1    
   249  126  247 1    
@<TRIPOS>SUBSTRUCTURE
     1 UNK         1 GROUP             0       ****    0 ROOT    
