@<TRIPOS>MOLECULE
3R540
247   249    1
SMALL
USER_CHARGES


@<TRIPOS>ATOM
      1 CA         -0.7600  -11.4309  -50.8451 C.3       0 UNK        -0.1800 
      2 C           0.0990  -11.4096  -49.5892 C.2       0 UNK         0.5000 
      3 O           0.5916  -10.3512  -49.1992 O.2       0 UNK        -0.5000 
      4 N           0.2670  -12.5718  -48.9435 N.am      1 UNK        -0.5000 
      5 CA          1.0547  -12.7605  -47.7160 C.3       1 UNK         0.1400 
      6 C6          1.2244  -14.2608  -47.3629 C.3       23 UNK        -0.0398 
      7 S7         -0.3585  -15.1264  -47.0634 S.3       23 UNK        -0.2404 
      8 C8         -0.4992  -16.2073  -48.5179 C.3       23 UNK        -0.0205 
      9 C9         -1.8957  -16.8006  -48.5863 C.ar      23 UNK        -0.0193 
     10 C10        -2.8863  -16.1808  -49.3529 C.ar      23 UNK        -0.1150 
     11 C11        -4.1860  -16.6932  -49.3790 C.ar      23 UNK        -0.0193 
     12 C12        -4.4923  -17.8288  -48.6234 C.ar      23 UNK        -0.1150 
     13 C13        -3.5061  -18.4692  -47.8656 C.ar      23 UNK        -0.0193 
     14 C14        -2.2085  -17.9492  -47.8545 C.ar      23 UNK        -0.1150 
     15 C15        -3.8445  -19.6969  -47.0302 C.3       23 UNK        -0.0205 
     16 S16        -4.6309  -21.0122  -48.0151 S.3       23 UNK        -0.2404 
     17 C17        -4.7211  -22.3536  -46.7837 C.3       23 UNK        -0.0398 
     18 CA         -3.6530  -23.4375  -47.0524 C.3       11 UNK         0.1400 
     19 N          -2.2930  -22.9201  -46.9338 N.am      11 UNK        -0.5000 
     20 C          -1.2890  -23.1860  -47.7778 C.2       10 UNK         0.5000 
     21 O          -1.4048  -23.8710  -48.7936 O.2       10 UNK        -0.5000 
     22 CA          0.0918  -22.6117  -47.4055 C.3       10 UNK         0.1400 
     23 CB          0.3188  -21.2693  -48.1147 C.3       10 UNK        -0.1800 
     24 N           0.2692  -22.4437  -45.9622 N.am      10 UNK        -0.5000 
     25 C           0.2481  -23.4536  -45.0779 C.2       9 UNK         0.5000 
     26 O           0.1165  -24.6346  -45.4034 O.2       9 UNK        -0.5000 
     27 CA          0.3123  -23.0943  -43.5803 C.3       9 UNK         0.1400 
     28 CB          1.7565  -23.1980  -43.0709 C.3       9 UNK        -0.1800 
     29 N          -0.2163  -21.7659  -43.2598 N.am      9 UNK        -0.5000 
     30 C          -1.4526  -21.3210  -43.5311 C.2       8 UNK         0.5000 
     31 O          -2.3306  -22.0137  -44.0484 O.2       8 UNK        -0.5000 
     32 CA         -1.7288  -19.8301  -43.2500 C.3       8 UNK         0.1400 
     33 CB         -2.3370  -19.6509  -41.8522 C.3       8 UNK        -0.1800 
     34 N          -0.5531  -18.9589  -43.3817 N.am      8 UNK        -0.5000 
     35 C           0.2174  -18.8532  -44.4736 C.2       7 UNK         0.5000 
     36 O           0.0461  -19.5266  -45.4892 O.2       7 UNK        -0.5000 
     37 CA          1.3560  -17.8210  -44.4152 C.3       7 UNK         0.1400 
     38 CB          2.2667  -17.8758  -45.6555 C.3       7 UNK        -0.1800 
     39 N           0.8111  -16.4726  -44.2986 N.am      7 UNK        -0.5000 
     40 C           0.4968  -15.8591  -43.1547 C.2       6 UNK         0.5000 
     41 O           0.5982  -16.3853  -42.0438 O.2       6 UNK        -0.5000 
     42 CA         -0.0345  -14.4197  -43.2781 C.3       6 UNK         0.1400 
     43 CB         -1.5324  -14.3555  -42.9447 C.3       6 UNK        -0.1800 
     44 N           0.7010  -13.4980  -42.4141 N.am      6 UNK        -0.5000 
     45 C           1.9902  -13.1759  -42.5808 C.2       5 UNK         0.5000 
     46 O           2.7003  -13.6203  -43.4864 O.2       5 UNK        -0.5000 
     47 CA          2.5895  -12.1724  -41.5795 C.3       5 UNK         0.1400 
     48 CB          3.7600  -12.7944  -40.8012 C.3       5 UNK        -0.1800 
     49 N           3.0596  -10.9882  -42.2955 N.am      5 UNK        -0.5000 
     50 C           2.2499  -10.0439  -42.7906 C.2       4 UNK         0.5000 
     51 O           1.0414  -10.0021  -42.5468 O.2       4 UNK        -0.5000 
     52 CA          2.8734   -8.9737  -43.7088 C.3       4 UNK         0.1400 
     53 CB          4.2623   -9.3497  -44.2631 C.3       4 UNK        -0.1800 
     54 N           1.9598   -8.7623  -44.8252 N.am      4 UNK        -0.5000 
     55 C           1.4533   -7.5891  -45.2243 C.2       3 UNK         0.5000 
     56 O           1.8069   -6.5003  -44.7693 O.2       3 UNK        -0.5000 
     57 CA          0.3523   -7.6345  -46.3080 C.3       3 UNK         0.1400 
     58 CB          0.9424   -7.3065  -47.6877 C.3       3 UNK        -0.1800 
     59 N          -0.3263   -8.9315  -46.3759 N.am      3 UNK        -0.5000 
     60 C          -1.1299   -9.4196  -45.4181 C.2       2 UNK         0.5000 
     61 O          -1.5402   -8.7429  -44.4745 O.2       2 UNK        -0.5000 
     62 CA         -1.5270  -10.9102  -45.5000 C.3       2 UNK         0.1400 
     63 CB         -3.0335  -11.0638  -45.7607 C.3       2 UNK        -0.1800 
     64 N          -0.7999  -11.6869  -46.5069 N.am      2 UNK        -0.5000 
     65 C           0.5159  -11.9471  -46.5159 C.2       1 UNK         0.5000 
     66 O           1.2961  -11.5354  -45.6588 O.2       1 UNK        -0.5000 
     67 C          -3.8395  -24.6445  -46.1182 C.2       11 UNK         0.5000 
     68 O          -4.3611  -25.6699  -46.5550 O.2       11 UNK        -0.5000 
     69 N          -3.4186  -24.5038  -44.8534 N.am      12 UNK        -0.5000 
     70 CA         -3.6780  -25.4721  -43.7883 C.3       12 UNK         0.1400 
     71 CB         -3.4229  -24.8066  -42.4272 C.3       12 UNK        -0.1800 
     72 C          -2.8809  -26.7834  -43.9086 C.2       12 UNK         0.5000 
     73 O          -3.4222  -27.8375  -43.5722 O.2       12 UNK        -0.5000 
     74 N          -1.6233  -26.7051  -44.3643 N.am      13 UNK        -0.5000 
     75 CA         -0.7209  -27.8527  -44.4799 C.3       13 UNK         0.1400 
     76 CB          0.6078  -27.5429  -43.7699 C.3       13 UNK        -0.1800 
     77 C          -0.4835  -28.2270  -45.9494 C.2       13 UNK         0.5000 
     78 O          -0.5568  -29.4081  -46.2891 O.2       13 UNK        -0.5000 
     79 N          -0.2259  -27.2244  -46.8016 N.am      14 UNK        -0.5000 
     80 CA          0.0694  -27.4102  -48.2278 C.3       14 UNK         0.1400 
     81 CB          1.0900  -26.3557  -48.6782 C.3       14 UNK        -0.1800 
     82 C          -1.1855  -27.4266  -49.1277 C.2       14 UNK         0.5000 
     83 O          -1.0513  -27.3728  -50.3511 O.2       14 UNK        -0.5000 
     84 N          -2.3798  -27.5092  -48.5216 N.am      15 UNK        -0.5000 
     85 CA         -3.6844  -27.7558  -49.1532 C.3       15 UNK         0.1400 
     86 CB         -3.7356  -29.1951  -49.7073 C.3       15 UNK        -0.1800 
     87 C          -4.1053  -26.7068  -50.2062 C.2       15 UNK         0.5000 
     88 O          -4.8597  -27.0297  -51.1248 O.2       15 UNK        -0.5000 
     89 N          -3.6005  -25.4750  -50.0557 N.am      16 UNK        -0.5000 
     90 CA         -3.7974  -24.3041  -50.9163 C.3       16 UNK         0.1400 
     91 CB         -5.2884  -23.9458  -51.0764 C.3       16 UNK        -0.1800 
     92 C          -3.0481  -24.3821  -52.2603 C.2       16 UNK         0.5000 
     93 O          -3.2153  -23.4864  -53.0872 O.2       16 UNK        -0.5000 
     94 N          -2.1917  -25.3984  -52.4492 N.am      17 UNK        -0.5000 
     95 CA         -1.3305  -25.5304  -53.6257 C.3       17 UNK         0.1400 
     96 CB         -0.7634  -26.9558  -53.7005 C.3       17 UNK        -0.1800 
     97 C          -0.2007  -24.4871  -53.6083 C.2       17 UNK         0.5000 
     98 O           0.0648  -23.8526  -54.6294 O.2       17 UNK        -0.5000 
     99 N           0.4001  -24.2848  -52.4265 N.am      18 UNK        -0.5000 
    100 CA         1.4143  -23.2574  -52.1770 C.3       18 UNK         0.1400 
    101 CB         2.1314  -23.5717  -50.8569 C.3       18 UNK        -0.1800 
    102 C          0.8258  -21.8333  -52.1450 C.2       18 UNK         0.5000 
    103 O          1.5500  -20.8715  -52.4000 O.2       18 UNK        -0.5000 
    104 N         -0.4772  -21.7271  -51.8476 N.am      19 UNK        -0.5000 
    105 CA        -1.2389  -20.4763  -51.8345 C.3       19 UNK         0.1400 
    106 CB        -2.4449  -20.6423  -50.8985 C.3       19 UNK        -0.1800 
    107 C         -1.6750  -20.0212  -53.2456 C.2       19 UNK         0.5000 
    108 O         -2.2081  -18.9188  -53.3816 O.2       19 UNK        -0.5000 
    109 N         -1.4280  -20.8614  -54.2642 N.am      20 UNK        -0.5000 
    110 CA        -1.6165  -20.6261  -55.6964 C.3       20 UNK         0.1400 
    111 CB        -0.5537  -19.6298  -56.2111 C.3       20 UNK        -0.1800 
    112 C         -3.0659  -20.2311  -56.0409 C.2       20 UNK         0.5000 
    113 O         -3.9554  -21.0800  -55.9641 O.2       20 UNK        -0.5000 
    114 N         -3.2850  -18.9570  -56.3956 N.am      21 UNK        -0.5000 
    115 CA        -4.5803  -18.3767  -56.7607 C.3       21 UNK         0.1400 
    116 CB        -4.3668  -16.9174  -57.1911 C.3       21 UNK        -0.1800 
    117 C         -5.6505  -18.4609  -55.6537 C.2       21 UNK         0.5000 
    118 O         -6.8411  -18.4700  -55.9702 O.2       21 UNK        -0.5000 
    119 N         -5.2166  -18.5425  -54.3898 N.am      22 UNK        -0.5000 
    120 CA        -6.0858  -18.7895  -53.2296 C.3       22 UNK         0.1400 
    121 C         -6.5075  -20.2807  -53.0598 C.2       22 UNK         0.5000 
    122 N         -5.9767  -21.2286  -53.8243 N.am      22 UNK        -0.7600 
    123 O         -7.3508  -20.5840  -52.2207 O.2       22 UNK        -0.5000 
    124 C124       -5.4643  -18.2434  -51.9222 C.3       23 UNK        -0.0398 
    125 S125       -5.1306  -16.4496  -51.9765 S.3       23 UNK        -0.2404 
    126 C126       -5.2605  -16.0115  -50.2137 C.3       23 UNK        -0.0205 
    127 H127       -0.1763  -11.0989  -51.7036 H         1 UNK         0.0600 
    128 H128       -1.6101  -10.7587  -50.7287 H         1 UNK         0.0600 
    129 H129       -1.1423  -12.4295  -51.0585 H         1 UNK         0.0600 
    130 H130       -0.1798  -13.4023  -49.3026 H         1 UNK         0.3000 
    131 H131        2.0517  -12.3658  -47.9237 H         1 UNK         0.0600 
    132 H132        1.8514  -14.3695  -46.4755 H         1 UNK         0.0800 
    133 H133        1.7672  -14.7667  -48.1624 H         1 UNK         0.0800 
    134 H134        0.2452  -17.0028  -48.4604 H         1 UNK         0.0800 
    135 H135       -0.2850  -15.6440  -49.4269 H         1 UNK         0.0800 
    136 H136       -2.6507  -15.2935  -49.9233 H         1 UNK         0.1150 
    137 H137       -5.4989  -18.2224  -48.6288 H         1 UNK         0.1150 
    138 H138       -1.4430  -18.4210  -47.2567 H         1 UNK         0.1150 
    139 H139       -2.9432  -20.0965  -46.5624 H         1 UNK         0.0800 
    140 H140       -4.5134  -19.4015  -46.2211 H         1 UNK         0.0800 
    141 H141       -5.7226  -22.7836  -46.8430 H         1 UNK         0.0800 
    142 H142       -4.6238  -21.9436  -45.7767 H         1 UNK         0.0800 
    143 H143       -3.8218  -23.7941  -48.0657 H         1 UNK         0.0600 
    144 H144       -2.0930  -22.3795  -46.1017 H         1 UNK         0.3000 
    145 H145        0.8584  -23.3081  -47.7437 H         1 UNK         0.0600 
    146 H146        1.2711  -20.8224  -47.8290 H         1 UNK         0.0600 
    147 H147        0.3329  -21.3982  -49.1954 H         1 UNK         0.0600 
    148 H148       -0.4715  -20.5545  -47.8850 H         1 UNK         0.0600 
    149 H149        0.3288  -21.4863  -45.6286 H         1 UNK         0.3000 
    150 H150       -0.2893  -23.8293  -43.0445 H         1 UNK         0.0600 
    151 H151        2.1715  -24.1869  -43.2716 H         1 UNK         0.0600 
    152 H152        1.8078  -23.0390  -41.9936 H         1 UNK         0.0600 
    153 H153        2.4060  -22.4650  -43.5512 H         1 UNK         0.0600 
    154 H154        0.4338  -21.1142  -42.8464 H         1 UNK         0.3000 
    155 H155       -2.4624  -19.4962  -43.9865 H         1 UNK         0.0600 
    156 H156       -1.6329  -19.9326  -41.0683 H         1 UNK         0.0600 
    157 H157       -3.2285  -20.2682  -41.7313 H         1 UNK         0.0600 
    158 H158       -2.6342  -18.6161  -41.6811 H         1 UNK         0.0600 
    159 H159       -0.3472  -18.3493  -42.5996 H         1 UNK         0.3000 
    160 H160        1.9687  -18.0498  -43.5407 H         1 UNK         0.0600 
    161 H161        1.7168  -17.6576  -46.5714 H         1 UNK         0.0600 
    162 H162        2.7138  -18.8642  -45.7689 H         1 UNK         0.0600 
    163 H163        3.0826  -17.1572  -45.5765 H         1 UNK         0.0600 
    164 H164        0.6264  -15.9977  -45.1723 H         1 UNK         0.3000 
    165 H165        0.0956  -14.0778  -44.3061 H         1 UNK         0.0600 
    166 H166       -1.9248  -13.3472  -43.0775 H         1 UNK         0.0600 
    167 H167       -2.1042  -15.0140  -43.6001 H         1 UNK         0.0600 
    168 H168       -1.7305  -14.6615  -41.9166 H         1 UNK         0.0600 
    169 H169        0.1903  -13.1019  -41.6388 H         1 UNK         0.3000 
    170 H170        1.8242  -11.8754  -40.8589 H         1 UNK         0.0600 
    171 H171        3.4355  -13.6809  -40.2549 H         1 UNK         0.0600 
    172 H172        4.5725  -13.0962  -41.4636 H         1 UNK         0.0600 
    173 H173        4.1652  -12.0928  -40.0718 H         1 UNK         0.0600 
    174 H174        4.0307  -10.9867  -42.5707 H         1 UNK         0.3000 
    175 H175        2.9679   -8.0636  -43.1135 H         1 UNK         0.0600 
    176 H176        4.2362  -10.2938  -44.8096 H         1 UNK         0.0600 
    177 H177        4.6278   -8.5834  -44.9472 H         1 UNK         0.0600 
    178 H178        5.0000   -9.4396  -43.4650 H         1 UNK         0.0600 
    179 H179        1.5760   -9.6168  -45.2188 H         1 UNK         0.3000 
    180 H180       -0.3887   -6.8715  -46.0611 H         1 UNK         0.0600 
    181 H181        0.1690   -7.2954  -48.4561 H         1 UNK         0.0600 
    182 H182        1.6984   -8.0349  -47.9839 H         1 UNK         0.0600 
    183 H183        1.4153   -6.3236  -47.6872 H         1 UNK         0.0600 
    184 H184       -0.0552   -9.5398  -47.1385 H         1 UNK         0.3000 
    185 H185       -1.3018  -11.3472  -44.5250 H         1 UNK         0.0600 
    186 H186       -3.3345  -12.1112  -45.7281 H         1 UNK         0.0600 
    187 H187       -3.6188  -10.5368  -45.0060 H         1 UNK         0.0600 
    188 H188       -3.3148  -10.6618  -46.7347 H         1 UNK         0.0600 
    189 H189       -1.3519  -12.0580  -47.2664 H         1 UNK         0.3000 
    190 H190       -3.0065  -23.6195  -44.5643 H         1 UNK         0.3000 
    191 H191       -4.7375  -25.7340  -43.8324 H         1 UNK         0.0600 
    192 H192       -3.6597  -25.4875  -41.6087 H         1 UNK         0.0600 
    193 H193       -4.0424  -23.9185  -42.3001 H         1 UNK         0.0600 
    194 H194       -2.3823  -24.5061  -42.3120 H         1 UNK         0.0600 
    195 H195       -1.2491  -25.8087  -44.6561 H         1 UNK         0.3000 
    196 H196       -1.1500  -28.7283  -43.9883 H         1 UNK         0.0600 
    197 H197        1.1416  -26.7141  -44.2341 H         1 UNK         0.0600 
    198 H198        0.4434  -27.2891  -42.7227 H         1 UNK         0.0600 
    199 H199        1.2702  -28.4090  -43.7939 H         1 UNK         0.0600 
    200 H200       -0.1573  -26.2783  -46.4386 H         1 UNK         0.3000 
    201 H201        0.5466  -28.3830  -48.3630 H         1 UNK         0.0600 
    202 H202        0.6683  -25.3570  -48.6391 H         1 UNK         0.0600 
    203 H203        1.4151  -26.5347  -49.7037 H         1 UNK         0.0600 
    204 H204        1.9799  -26.3702  -48.0490 H         1 UNK         0.0600 
    205 H205       -2.3858  -27.4930  -47.5118 H         1 UNK         0.3000 
    206 H206       -4.4247  -27.6889  -48.3553 H         1 UNK         0.0600 
    207 H207       -3.4564  -29.9215  -48.9440 H         1 UNK         0.0600 
    208 H208       -4.7404  -29.4530  -50.0439 H         1 UNK         0.0600 
    209 H209       -3.0626  -29.3244  -50.5556 H         1 UNK         0.0600 
    210 H210       -2.9281  -25.3344  -49.3107 H         1 UNK         0.3000 
    211 H211       -3.3417  -23.4691  -50.3868 H         1 UNK         0.0600 
    212 H212       -5.4016  -22.9609  -51.5301 H         1 UNK         0.0600 
    213 H213       -5.7925  -23.9122  -50.1105 H         1 UNK         0.0600 
    214 H214       -5.8159  -24.6578  -51.7109 H         1 UNK         0.0600 
    215 H215       -2.0738  -26.0892  -51.7159 H         1 UNK         0.3000 
    216 H216       -1.9366  -25.3596  -54.5181 H         1 UNK         0.0600 
    217 H217       -0.1117  -27.1793  -52.8553 H         1 UNK         0.0600 
    218 H218       -0.1770  -27.0927  -54.6098 H         1 UNK         0.0600 
    219 H219       -1.5618  -27.6979  -53.7126 H         1 UNK         0.0600 
    220 H220        0.1153  -24.8485  -51.6380 H         1 UNK         0.3000 
    221 H221        2.1500  -23.2936  -52.9833 H         1 UNK         0.0600 
    222 H222        2.6139  -24.5485  -50.8913 H         1 UNK         0.0600 
    223 H223        1.4367  -23.5674  -50.0185 H         1 UNK         0.0600 
    224 H224        2.9062  -22.8336  -50.6454 H         1 UNK         0.0600 
    225 H225       -0.9946  -22.5726  -51.6614 H         1 UNK         0.3000 
    226 H226       -0.6022  -19.6922  -51.4192 H         1 UNK         0.0600 
    227 H227       -3.2560  -21.1986  -51.3695 H         1 UNK         0.0600 
    228 H228       -2.1725  -21.1558  -49.9768 H         1 UNK         0.0600 
    229 H229       -2.8343  -19.6683  -50.6057 H         1 UNK         0.0600 
    230 H230       -1.0456  -21.7677  -54.0319 H         1 UNK         0.3000 
    231 H231       -1.4369  -21.5822  -56.1903 H         1 UNK         0.0600 
    232 H232       -0.6179  -18.6609  -55.7146 H         1 UNK         0.0600 
    233 H233       -0.6545  -19.4645  -57.2846 H         1 UNK         0.0600 
    234 H234        0.4512  -20.0168  -56.0411 H         1 UNK         0.0600 
    235 H235       -2.4978  -18.3250  -56.3935 H         1 UNK         0.3000 
    236 H236       -4.9586  -18.9354  -57.6191 H         1 UNK         0.0600 
    237 H237       -3.6812  -16.8500  -58.0360 H         1 UNK         0.0600 
    238 H238       -5.3072  -16.4591  -57.5004 H         1 UNK         0.0600 
    239 H239       -3.9603  -16.3151  -56.3776 H         1 UNK         0.0600 
    240 H240       -4.2194  -18.5341  -54.2087 H         1 UNK         0.3000 
    241 H241       -7.0165  -18.2418  -53.3896 H         1 UNK         0.0600 
    242 H242       -6.2689  -22.1829  -53.6948 H         1 UNK         0.3800 
    243 H243       -5.2793  -21.0192  -54.5318 H         1 UNK         0.3800 
    244 H244       -4.5286  -18.7564  -51.7094 H         1 UNK         0.0800 
    245 H245       -6.1263  -18.4456  -51.0786 H         1 UNK         0.0800 
    246 H246       -6.2557  -16.2668  -49.8463 H         1 UNK         0.0800 
    247 H247       -5.1676  -14.9294  -50.1112 H         1 UNK         0.0800 
@<TRIPOS>BOND
     1    1    2 1    
     2    1  127 1    
     3    1  128 1    
     4    1  129 1    
     5    2    3 2    
     6    2    4 am   BACKBONE|DICT|INTERRES
     7    4    5 1    
     8    4  130 1    
     9    5    6 1    
    10    5   65 1    
    11    5  131 1    
    12    6    7 1    
    13    6  132 1    
    14    6  133 1    
    15    7    8 1    
    16    8    9 1    
    17    8  134 1    
    18    8  135 1    
    19    9   10 ar   
    20    9   14 ar   
    21   10   11 ar   
    22   10  136 1    
    23   11   12 ar   
    24   11  126 1    
    25   12   13 ar   
    26   12  137 1    
    27   13   14 ar   
    28   13   15 1    
    29   14  138 1    
    30   15   16 1    
    31   15  139 1    
    32   15  140 1    
    33   16   17 1    
    34   17   18 1    
    35   17  141 1    
    36   17  142 1    
    37   18   19 1    
    38   18   67 1    
    39   18  143 1    
    40   19   20 am   BACKBONE|DICT|INTERRES
    41   19  144 1    
    42   20   21 2    
    43   20   22 1    
    44   22   23 1    
    45   22   24 1    
    46   22  145 1    
    47   23  146 1    
    48   23  147 1    
    49   23  148 1    
    50   24   25 am   BACKBONE|DICT|INTERRES
    51   24  149 1    
    52   25   26 2    
    53   25   27 1    
    54   27   28 1    
    55   27   29 1    
    56   27  150 1    
    57   28  151 1    
    58   28  152 1    
    59   28  153 1    
    60   29   30 am   BACKBONE|DICT|INTERRES
    61   29  154 1    
    62   30   31 2    
    63   30   32 1    
    64   32   33 1    
    65   32   34 1    
    66   32  155 1    
    67   33  156 1    
    68   33  157 1    
    69   33  158 1    
    70   34   35 am   BACKBONE|DICT|INTERRES
    71   34  159 1    
    72   35   36 2    
    73   35   37 1    
    74   37   38 1    
    75   37   39 1    
    76   37  160 1    
    77   38  161 1    
    78   38  162 1    
    79   38  163 1    
    80   39   40 am   BACKBONE|DICT|INTERRES
    81   39  164 1    
    82   40   41 2    
    83   40   42 1    
    84   42   43 1    
    85   42   44 1    
    86   42  165 1    
    87   43  166 1    
    88   43  167 1    
    89   43  168 1    
    90   44   45 am   BACKBONE|DICT|INTERRES
    91   44  169 1    
    92   45   46 2    
    93   45   47 1    
    94   47   48 1    
    95   47   49 1    
    96   47  170 1    
    97   48  171 1    
    98   48  172 1    
    99   48  173 1    
   100   49   50 am   BACKBONE|DICT|INTERRES
   101   49  174 1    
   102   50   51 2    
   103   50   52 1    
   104   52   53 1    
   105   52   54 1    
   106   52  175 1    
   107   53  176 1    
   108   53  177 1    
   109   53  178 1    
   110   54   55 am   BACKBONE|DICT|INTERRES
   111   54  179 1    
   112   55   56 2    
   113   55   57 1    
   114   57   58 1    
   115   57   59 1    
   116   57  180 1    
   117   58  181 1    
   118   58  182 1    
   119   58  183 1    
   120   59   60 am   BACKBONE|DICT|INTERRES
   121   59  184 1    
   122   60   61 2    
   123   60   62 1    
   124   62   63 1    
   125   62   64 1    
   126   62  185 1    
   127   63  186 1    
   128   63  187 1    
   129   63  188 1    
   130   64   65 am   BACKBONE|DICT|INTERRES
   131   64  189 1    
   132   65   66 2    
   133   67   68 2    
   134   67   69 am   BACKBONE|DICT|INTERRES
   135   69   70 1    
   136   69  190 1    
   137   70   71 1    
   138   70   72 1    
   139   70  191 1    
   140   71  192 1    
   141   71  193 1    
   142   71  194 1    
   143   72   73 2    
   144   72   74 am   BACKBONE|DICT|INTERRES
   145   74   75 1    
   146   74  195 1    
   147   75   76 1    
   148   75   77 1    
   149   75  196 1    
   150   76  197 1    
   151   76  198 1    
   152   76  199 1    
   153   77   78 2    
   154   77   79 am   BACKBONE|DICT|INTERRES
   155   79   80 1    
   156   79  200 1    
   157   80   81 1    
   158   80   82 1    
   159   80  201 1    
   160   81  202 1    
   161   81  203 1    
   162   81  204 1    
   163   82   83 2    
   164   82   84 am   BACKBONE|DICT|INTERRES
   165   84   85 1    
   166   84  205 1    
   167   85   86 1    
   168   85   87 1    
   169   85  206 1    
   170   86  207 1    
   171   86  208 1    
   172   86  209 1    
   173   87   88 2    
   174   87   89 am   BACKBONE|DICT|INTERRES
   175   89   90 1    
   176   89  210 1    
   177   90   91 1    
   178   90   92 1    
   179   90  211 1    
   180   91  212 1    
   181   91  213 1    
   182   91  214 1    
   183   92   93 2    
   184   92   94 am   BACKBONE|DICT|INTERRES
   185   94   95 1    
   186   94  215 1    
   187   95   96 1    
   188   95   97 1    
   189   95  216 1    
   190   96  217 1    
   191   96  218 1    
   192   96  219 1    
   193   97   98 2    
   194   97   99 am   BACKBONE|DICT|INTERRES
   195   99  100 1    
   196   99  220 1    
   197  100  101 1    
   198  100  102 1    
   199  100  221 1    
   200  101  222 1    
   201  101  223 1    
   202  101  224 1    
   203  102  103 2    
   204  102  104 am   BACKBONE|DICT|INTERRES
   205  104  105 1    
   206  104  225 1    
   207  105  106 1    
   208  105  107 1    
   209  105  226 1    
   210  106  227 1    
   211  106  228 1    
   212  106  229 1    
   213  107  108 2    
   214  107  109 am   BACKBONE|DICT|INTERRES
   215  109  110 1    
   216  109  230 1    
   217  110  111 1    
   218  110  112 1    
   219  110  231 1    
   220  111  232 1    
   221  111  233 1    
   222  111  234 1    
   223  112  113 2    
   224  112  114 am   BACKBONE|DICT|INTERRES
   225  114  115 1    
   226  114  235 1    
   227  115  116 1    
   228  115  117 1    
   229  115  236 1    
   230  116  237 1    
   231  116  238 1    
   232  116  239 1    
   233  117  118 2    
   234  117  119 am   BACKBONE|DICT|INTERRES
   235  119  120 1    
   236  119  240 1    
   237  120  121 1    
   238  120  124 1    
   239  120  241 1    
   240  121  122 am   BACKBONE|DICT|INTERRES
   241  121  123 2    
   242  122  242 1    
   243  122  243 1    
   244  124  125 1    
   245  124  244 1    
   246  124  245 1    
   247  125  126 1    
   248  126  246 1    
   249  126  247 1    
@<TRIPOS>SUBSTRUCTURE
     1 UNK         1 GROUP             0       ****    0 ROOT    
