@<TRIPOS>MOLECULE
3R540
247   249    1
SMALL
USER_CHARGES


@<TRIPOS>ATOM
      1 CA          0.7582  -12.0177  -47.1832 C.3       0 UNK        -0.1800 
      2 C           0.4288  -13.2172  -48.0590 C.2       0 UNK         0.5000 
      3 O          -0.3997  -14.0444  -47.6810 O.2       0 UNK        -0.5000 
      4 N           1.0688  -13.3052  -49.2322 N.am      1 UNK        -0.5000 
      5 CA          0.9627  -14.4171  -50.1903 C.3       1 UNK         0.1400 
      6 C6          2.1137  -14.4002  -51.2298 C.3       23 UNK        -0.0398 
      7 S7          3.7671  -14.3955  -50.4483 S.3       23 UNK        -0.2404 
      8 C8          4.4512  -16.0155  -50.9491 C.3       23 UNK        -0.0205 
      9 C9          3.6229  -17.2266  -50.5224 C.ar      23 UNK        -0.0193 
     10 C10         3.5747  -18.3500  -51.3556 C.ar      23 UNK        -0.1150 
     11 C11         2.8215  -19.4747  -51.0043 C.ar      23 UNK        -0.0193 
     12 C12         2.1251  -19.4697  -49.7913 C.ar      23 UNK        -0.1150 
     13 C13         2.1178  -18.3384  -48.9768 C.ar      23 UNK        -0.0193 
     14 C14         2.9033  -17.2388  -49.3222 C.ar      23 UNK        -0.1150 
     15 C15         1.2064  -18.2962  -47.7644 C.3       23 UNK        -0.0205 
     16 S16         2.0238  -19.0156  -46.3185 S.3       23 UNK        -0.2404 
     17 C17         0.5861  -19.4341  -45.2839 C.3       23 UNK        -0.0398 
     18 CA         -0.1905  -20.6915  -45.7514 C.3       11 UNK         0.1400 
     19 N           0.6925  -21.7745  -46.1800 N.am      11 UNK        -0.5000 
     20 C           0.3116  -22.8810  -46.8268 C.2       10 UNK         0.5000 
     21 O          -0.8552  -23.1347  -47.1224 O.2       10 UNK        -0.5000 
     22 CA          1.4304  -23.8841  -47.1588 C.3       10 UNK         0.1400 
     23 CB          2.1151  -23.5011  -48.4800 C.3       10 UNK        -0.1800 
     24 N           2.4351  -23.9630  -46.0932 N.am      10 UNK        -0.5000 
     25 C           2.2022  -24.4855  -44.8802 C.2       9 UNK         0.5000 
     26 O           1.1368  -25.0118  -44.5576 O.2       9 UNK        -0.5000 
     27 CA          3.3330  -24.3601  -43.8389 C.3       9 UNK         0.1400 
     28 CB          4.3550  -25.4937  -44.0123 C.3       9 UNK        -0.1800 
     29 N           4.0318  -23.0678  -43.8551 N.am      9 UNK        -0.5000 
     30 C           3.4446  -21.8793  -43.6585 C.2       8 UNK         0.5000 
     31 O           2.2271  -21.7498  -43.5124 O.2       8 UNK        -0.5000 
     32 CA          4.3630  -20.6374  -43.6430 C.3       8 UNK         0.1400 
     33 CB          5.0865  -20.4582  -44.9890 C.3       8 UNK        -0.1800 
     34 N           3.5972  -19.4236  -43.3373 N.am      8 UNK        -0.5000 
     35 C           3.2133  -19.0714  -42.1025 C.2       7 UNK         0.5000 
     36 O           3.6281  -19.6355  -41.0877 O.2       7 UNK        -0.5000 
     37 CA          2.1600  -17.9462  -41.9649 C.3       7 UNK         0.1400 
     38 CB          2.2987  -17.1701  -40.6382 C.3       7 UNK        -0.1800 
     39 N           2.0555  -17.0047  -43.0875 N.am      7 UNK        -0.5000 
     40 C           3.0010  -16.1625  -43.5351 C.2       6 UNK         0.5000 
     41 O           4.1769  -16.1986  -43.1721 O.2       6 UNK        -0.5000 
     42 CA          2.5565  -15.0574  -44.5217 C.3       6 UNK         0.1400 
     43 CB          3.0385  -15.3451  -45.9489 C.3       6 UNK        -0.1800 
     44 N           1.1077  -14.8176  -44.5290 N.am      6 UNK        -0.5000 
     45 C           0.4536  -14.2008  -43.5340 C.2       5 UNK         0.5000 
     46 O           1.0161  -13.7306  -42.5442 O.2       5 UNK        -0.5000 
     47 CA         -1.0806  -14.0911  -43.6349 C.3       5 UNK         0.1400 
     48 CB         -1.4959  -12.6998  -44.1366 C.3       5 UNK        -0.1800 
     49 N          -1.7474  -15.1022  -44.4592 N.am      5 UNK        -0.5000 
     50 C          -1.7396  -16.4273  -44.2564 C.2       4 UNK         0.5000 
     51 O          -1.0003  -16.9849  -43.4442 O.2       4 UNK        -0.5000 
     52 CA         -2.7429  -17.2715  -45.0748 C.3       4 UNK         0.1400 
     53 CB         -3.7568  -17.9542  -44.1434 C.3       4 UNK        -0.1800 
     54 N          -3.4797  -16.4778  -46.0603 N.am      4 UNK        -0.5000 
     55 C          -3.0790  -16.2584  -47.3183 C.2       3 UNK         0.5000 
     56 O          -2.0650  -16.7635  -47.8026 O.2       3 UNK        -0.5000 
     57 CA         -3.9734  -15.3482  -48.1799 C.3       3 UNK         0.1400 
     58 CB         -4.7866  -14.3218  -47.3600 C.3       3 UNK        -0.1800 
     59 N          -3.1604  -14.6472  -49.1683 N.am      3 UNK        -0.5000 
     60 C          -3.5976  -14.2283  -50.3644 C.2       2 UNK         0.5000 
     61 O          -4.7459  -14.4174  -50.7678 O.2       2 UNK        -0.5000 
     62 CA         -2.6169  -13.4356  -51.2563 C.3       2 UNK         0.1400 
     63 CB         -3.0615  -11.9690  -51.3763 C.3       2 UNK        -0.1800 
     64 N          -1.2381  -13.4618  -50.7687 N.am      2 UNK        -0.5000 
     65 C          -0.4064  -14.5018  -50.8983 C.2       1 UNK         0.5000 
     66 O          -0.6948  -15.5152  -51.5334 O.2       1 UNK        -0.5000 
     67 C          -1.1572  -21.1759  -44.6553 C.2       11 UNK         0.5000 
     68 O          -2.3603  -20.9281  -44.7402 O.2       11 UNK        -0.5000 
     69 N          -0.6030  -21.9058  -43.6769 N.am      12 UNK        -0.5000 
     70 CA         -1.3144  -22.5437  -42.5708 C.3       12 UNK         0.1400 
     71 CB         -0.2877  -23.1368  -41.5947 C.3       12 UNK        -0.1800 
     72 C          -2.3183  -23.6201  -43.0244 C.2       12 UNK         0.5000 
     73 O          -3.3347  -23.8139  -42.3568 O.2       12 UNK        -0.5000 
     74 N          -2.0613  -24.2608  -44.1738 N.am      13 UNK        -0.5000 
     75 CA         -2.9515  -25.2147  -44.8417 C.3       13 UNK         0.1400 
     76 CB         -2.1118  -26.1319  -45.7491 C.3       13 UNK        -0.1800 
     77 C          -4.1003  -24.5111  -45.6019 C.2       13 UNK         0.5000 
     78 O          -4.3598  -24.8246  -46.7658 O.2       13 UNK        -0.5000 
     79 N          -4.7616  -23.5612  -44.9238 N.am      14 UNK        -0.5000 
     80 CA         -5.8854  -22.7393  -45.3811 C.3       14 UNK         0.1400 
     81 CB         -7.1623  -23.6001  -45.4789 C.3       14 UNK        -0.1800 
     82 C          -5.5796  -21.9755  -46.6851 C.2       14 UNK         0.5000 
     83 O          -6.3925  -21.9994  -47.6104 O.2       14 UNK        -0.5000 
     84 N          -4.3948  -21.3470  -46.7473 N.am      15 UNK        -0.5000 
     85 CA         -3.8323  -20.6646  -47.9188 C.3       15 UNK         0.1400 
     86 CB         -4.6319  -19.3823  -48.2314 C.3       15 UNK        -0.1800 
     87 C          -3.7234  -21.6139  -49.1288 C.2       15 UNK         0.5000 
     88 O          -4.2627  -21.3143  -50.1930 O.2       15 UNK        -0.5000 
     89 N          -3.0874  -22.7747  -48.9099 N.am      16 UNK        -0.5000 
     90 CA         -2.9223  -23.8893  -49.8476 C.3       16 UNK         0.1400 
     91 CB         -1.8673  -23.5322  -50.9111 C.3       16 UNK        -0.1800 
     92 C          -4.2610  -24.3664  -50.4514 C.2       16 UNK         0.5000 
     93 O          -4.3677  -24.5427  -51.6666 O.2       16 UNK        -0.5000 
     94 N          -5.2612  -24.5369  -49.5740 N.am      17 UNK        -0.5000 
     95 CA         -6.6650  -24.8309  -49.8748 C.3       17 UNK         0.1400 
     96 CB         -6.8165  -26.2506  -50.4601 C.3       17 UNK        -0.1800 
     97 C          -7.3230  -23.7343  -50.7429 C.2       17 UNK         0.5000 
     98 O          -7.8783  -24.0268  -51.8040 O.2       17 UNK        -0.5000 
     99 N          -7.2510  -22.4903  -50.2502 N.am      18 UNK        -0.5000 
    100 CA        -7.8224  -21.2628  -50.8105 C.3       18 UNK         0.1400 
    101 CB        -9.3639  -21.3103  -50.7546 C.3       18 UNK        -0.1800 
    102 C         -7.2748  -20.8971  -52.2070 C.2       18 UNK         0.5000 
    103 O         -8.0454  -20.5580  -53.1084 O.2       18 UNK        -0.5000 
    104 N         -5.9471  -20.9518  -52.3597 N.am      19 UNK        -0.5000 
    105 CA        -5.2243  -20.4623  -53.5305 C.3       19 UNK         0.1400 
    106 CB        -3.8121  -21.0642  -53.5341 C.3       19 UNK        -0.1800 
    107 C         -5.1478  -18.9245  -53.5166 C.2       19 UNK         0.5000 
    108 O         -4.9809  -18.3249  -52.4526 O.2       19 UNK        -0.5000 
    109 N         -5.2426  -18.3125  -54.7029 N.am      20 UNK        -0.5000 
    110 CA        -5.2372  -16.8570  -54.8811 C.3       20 UNK         0.1400 
    111 CB        -5.8501  -16.5265  -56.2513 C.3       20 UNK        -0.1800 
    112 C         -3.8414  -16.2147  -54.7520 C.2       20 UNK         0.5000 
    113 O         -3.7565  -15.0082  -54.5206 O.2       20 UNK        -0.5000 
    114 N         -2.7816  -17.0143  -54.9260 N.am      21 UNK        -0.5000 
    115 CA        -1.3856  -16.5721  -54.9175 C.3       21 UNK         0.1400 
    116 CB        -0.9192  -16.3283  -56.3652 C.3       21 UNK        -0.1800 
    117 C         -0.4843  -17.5610  -54.1559 C.2       21 UNK         0.5000 
    118 O          0.7006  -17.6818  -54.4714 O.2       21 UNK        -0.5000 
    119 N         -1.0567  -18.2488  -53.1626 N.am      22 UNK        -0.5000 
    120 CA        -0.3419  -19.1167  -52.2187 C.3       22 UNK         0.1400 
    121 C         -1.0271  -19.0939  -50.8216 C.2       22 UNK         0.5000 
    122 N         -1.4710  -17.9291  -50.3679 N.am      22 UNK        -0.7600 
    123 O         -1.1357  -20.1002  -50.1319 O.2       22 UNK        -0.5000 
    124 C124       -0.0194  -20.5138  -52.8285 C.3       23 UNK        -0.0398 
    125 S125        1.1577  -21.5772  -51.9122 S.3       23 UNK        -0.2404 
    126 C126        2.7398  -20.6589  -51.9675 C.3       23 UNK        -0.0205 
    127 H127        1.5438  -11.4009  -47.6201 H         1 UNK         0.0600 
    128 H128        1.0972  -12.3506  -46.2025 H         1 UNK         0.0600 
    129 H129       -0.1269  -11.3963  -47.0495 H         1 UNK         0.0600 
    130 H130        1.7426  -12.5935  -49.4774 H         1 UNK         0.3000 
    131 H131        1.0377  -15.3385  -49.6133 H         1 UNK         0.0600 
    132 H132        2.0380  -15.2593  -51.8995 H         1 UNK         0.0800 
    133 H133        2.0394  -13.5159  -51.8649 H         1 UNK         0.0800 
    134 H134        5.4503  -16.1161  -50.5238 H         1 UNK         0.0800 
    135 H135        4.5769  -16.0092  -52.0330 H         1 UNK         0.0800 
    136 H136        4.1163  -18.3441  -52.2913 H         1 UNK         0.1150 
    137 H137        1.5274  -20.3224  -49.5020 H         1 UNK         0.1150 
    138 H138        2.9216  -16.3765  -48.6732 H         1 UNK         0.1150 
    139 H139        0.8869  -17.2748  -47.5530 H         1 UNK         0.0800 
    140 H140        0.2939  -18.8493  -47.9888 H         1 UNK         0.0800 
    141 H141       -0.0686  -18.5692  -45.2653 H         1 UNK         0.0800 
    142 H142        0.9451  -19.5574  -44.2627 H         1 UNK         0.0800 
    143 H143       -0.7899  -20.4110  -46.6179 H         1 UNK         0.0600 
    144 H144        1.6665  -21.6644  -45.9417 H         1 UNK         0.3000 
    145 H145        0.9734  -24.8687  -47.2794 H         1 UNK         0.0600 
    146 H146        2.6035  -22.5276  -48.4165 H         1 UNK         0.0600 
    147 H147        2.8672  -24.2372  -48.7637 H         1 UNK         0.0600 
    148 H148        1.3897  -23.4487  -49.2931 H         1 UNK         0.0600 
    149 H149        3.3389  -23.5542  -46.2796 H         1 UNK         0.3000 
    150 H150        2.8751  -24.4675  -42.8533 H         1 UNK         0.0600 
    151 H151        3.8657  -26.4684  -43.9857 H         1 UNK         0.0600 
    152 H152        5.0962  -25.4827  -43.2129 H         1 UNK         0.0600 
    153 H153        4.8843  -25.4178  -44.9629 H         1 UNK         0.0600 
    154 H154        5.0335  -23.1032  -43.9767 H         1 UNK         0.3000 
    155 H155        5.1180  -20.7842  -42.8680 H         1 UNK         0.0600 
    156 H156        5.8281  -21.2428  -45.1413 H         1 UNK         0.0600 
    157 H157        5.6158  -19.5060  -45.0309 H         1 UNK         0.0600 
    158 H158        4.4007  -20.4979  -45.8342 H         1 UNK         0.0600 
    159 H159        3.2004  -18.9315  -44.1252 H         1 UNK         0.3000 
    160 H160        1.1982  -18.4600  -41.9327 H         1 UNK         0.0600 
    161 H161        1.5218  -16.4110  -40.5437 H         1 UNK         0.0600 
    162 H162        3.2654  -16.6713  -40.5628 H         1 UNK         0.0600 
    163 H163        2.2043  -17.8345  -39.7786 H         1 UNK         0.0600 
    164 H164        1.1135  -16.8772  -43.4407 H         1 UNK         0.3000 
    165 H165        3.0470  -14.1371  -44.1973 H         1 UNK         0.0600 
    166 H166        2.5421  -16.2162  -46.3633 H         1 UNK         0.0600 
    167 H167        2.8455  -14.5015  -46.6113 H         1 UNK         0.0600 
    168 H168        4.1120  -15.5370  -45.9724 H         1 UNK         0.0600 
    169 H169        0.5795  -15.1558  -45.3213 H         1 UNK         0.3000 
    170 H170       -1.4641  -14.2070  -42.6191 H         1 UNK         0.0600 
    171 H171       -1.2492  -12.5649  -45.1891 H         1 UNK         0.0600 
    172 H172       -2.5692  -12.5456  -44.0242 H         1 UNK         0.0600 
    173 H173       -0.9957  -11.9094  -43.5752 H         1 UNK         0.0600 
    174 H174       -2.3490  -14.7485  -45.1872 H         1 UNK         0.3000 
    175 H175       -2.1908  -18.0570  -45.5908 H         1 UNK         0.0600 
    176 H176       -4.3604  -17.2271  -43.5992 H         1 UNK         0.0600 
    177 H177       -4.4310  -18.6020  -44.7043 H         1 UNK         0.0600 
    178 H178       -3.2524  -18.5805  -43.4062 H         1 UNK         0.0600 
    179 H179       -4.3336  -16.0446  -45.7387 H         1 UNK         0.3000 
    180 H180       -4.6682  -16.0122  -48.6983 H         1 UNK         0.0600 
    181 H181       -4.1372  -13.6795  -46.7636 H         1 UNK         0.0600 
    182 H182       -5.4910  -14.8101  -46.6861 H         1 UNK         0.0600 
    183 H183       -5.3774  -13.6771  -48.0110 H         1 UNK         0.0600 
    184 H184       -2.1897  -14.5095  -48.9072 H         1 UNK         0.3000 
    185 H185       -2.6461  -13.8832  -52.2519 H         1 UNK         0.0600 
    186 H186       -2.4067  -11.4116  -52.0464 H         1 UNK         0.0600 
    187 H187       -4.0721  -11.8982  -51.7806 H         1 UNK         0.0600 
    188 H188       -3.0592  -11.4675  -50.4077 H         1 UNK         0.0600 
    189 H189       -0.9310  -12.6692  -50.2243 H         1 UNK         0.3000 
    190 H190        0.4089  -22.0204  -43.6825 H         1 UNK         0.3000 
    191 H191       -1.8776  -21.7674  -42.0490 H         1 UNK         0.0600 
    192 H192        0.3203  -23.9064  -42.0717 H         1 UNK         0.0600 
    193 H193        0.3856  -22.3678  -41.2151 H         1 UNK         0.0600 
    194 H194       -0.7813  -23.5918  -40.7351 H         1 UNK         0.0600 
    195 H195       -1.2079  -24.0310  -44.6651 H         1 UNK         0.3000 
    196 H196       -3.4161  -25.8451  -44.0810 H         1 UNK         0.0600 
    197 H197       -1.3161  -26.6217  -45.1873 H         1 UNK         0.0600 
    198 H198       -1.6509  -25.5801  -46.5679 H         1 UNK         0.0600 
    199 H199       -2.7280  -26.9165  -46.1896 H         1 UNK         0.0600 
    200 H200       -4.4559  -23.3945  -43.9708 H         1 UNK         0.3000 
    201 H201       -6.0510  -21.9821  -44.6136 H         1 UNK         0.0600 
    202 H202       -8.0312  -22.9870  -45.7212 H         1 UNK         0.0600 
    203 H203       -7.3734  -24.1005  -44.5339 H         1 UNK         0.0600 
    204 H204       -7.0758  -24.3656  -46.2509 H         1 UNK         0.0600 
    205 H205       -3.7838  -21.3809  -45.9348 H         1 UNK         0.3000 
    206 H206       -2.8170  -20.3659  -47.6610 H         1 UNK         0.0600 
    207 H207       -5.6415  -19.6037  -48.5778 H         1 UNK         0.0600 
    208 H208       -4.1404  -18.8018  -49.0133 H         1 UNK         0.0600 
    209 H209       -4.7162  -18.7485  -47.3501 H         1 UNK         0.0600 
    210 H210       -2.6346  -22.9115  -48.0122 H         1 UNK         0.3000 
    211 H211       -2.5335  -24.7242  -49.2628 H         1 UNK         0.0600 
    212 H212       -0.9262  -23.2462  -50.4420 H         1 UNK         0.0600 
    213 H213       -1.6621  -24.3787  -51.5668 H         1 UNK         0.0600 
    214 H214       -2.1929  -22.7002  -51.5348 H         1 UNK         0.0600 
    215 H215       -5.0437  -24.3963  -48.5908 H         1 UNK         0.3000 
    216 H216       -7.1875  -24.8164  -48.9171 H         1 UNK         0.0600 
    217 H217       -7.8688  -26.5105  -50.5801 H         1 UNK         0.0600 
    218 H218       -6.3451  -26.3418  -51.4389 H         1 UNK         0.0600 
    219 H219       -6.3710  -26.9968  -49.8024 H         1 UNK         0.0600 
    220 H220       -6.7709  -22.3611  -49.3605 H         1 UNK         0.3000 
    221 H221       -7.5000  -20.4592  -50.1470 H         1 UNK         0.0600 
    222 H222       -9.7707  -22.0720  -51.4204 H         1 UNK         0.0600 
    223 H223       -9.7145  -21.5247  -49.7450 H         1 UNK         0.0600 
    224 H224       -9.7955  -20.3533  -51.0500 H         1 UNK         0.0600 
    225 H225       -5.3705  -21.1792  -51.5481 H         1 UNK         0.3000 
    226 H226       -5.7471  -20.7925  -54.4306 H         1 UNK         0.0600 
    227 H227       -3.8466  -22.1540  -53.5264 H         1 UNK         0.0600 
    228 H228       -3.2538  -20.7588  -54.4197 H         1 UNK         0.0600 
    229 H229       -3.2467  -20.7425  -52.6589 H         1 UNK         0.0600 
    230 H230       -5.3741  -18.8674  -55.5368 H         1 UNK         0.3000 
    231 H231       -5.8714  -16.4116  -54.1112 H         1 UNK         0.0600 
    232 H232       -5.8961  -15.4482  -56.4096 H         1 UNK         0.0600 
    233 H233       -6.8683  -16.9079  -56.3309 H         1 UNK         0.0600 
    234 H234       -5.2654  -16.9529  -57.0674 H         1 UNK         0.0600 
    235 H235       -2.9409  -17.9937  -55.1135 H         1 UNK         0.3000 
    236 H236       -1.3019  -15.6292  -54.3728 H         1 UNK         0.0600 
    237 H237       -1.5541  -15.5969  -56.8655 H         1 UNK         0.0600 
    238 H238        0.0999  -15.9407  -56.3923 H         1 UNK         0.0600 
    239 H239       -0.9397  -17.2474  -56.9517 H         1 UNK         0.0600 
    240 H240       -2.0197  -18.0539  -52.9238 H         1 UNK         0.3000 
    241 H241        0.6100  -18.6217  -52.0393 H         1 UNK         0.0600 
    242 H242       -1.8439  -17.8497  -49.4301 H         1 UNK         0.3800 
    243 H243       -1.2880  -17.0772  -50.8935 H         1 UNK         0.3800 
    244 H244       -0.9414  -21.0793  -52.9545 H         1 UNK         0.0800 
    245 H245        0.3868  -20.3907  -53.8328 H         1 UNK         0.0800 
    246 H246        2.9140  -20.3283  -52.9927 H         1 UNK         0.0800 
    247 H247        3.5467  -21.3501  -51.7221 H         1 UNK         0.0800 
@<TRIPOS>BOND
     1    1    2 1    
     2    1  127 1    
     3    1  128 1    
     4    1  129 1    
     5    2    3 2    
     6    2    4 am   BACKBONE|DICT|INTERRES
     7    4    5 1    
     8    4  130 1    
     9    5    6 1    
    10    5   65 1    
    11    5  131 1    
    12    6    7 1    
    13    6  132 1    
    14    6  133 1    
    15    7    8 1    
    16    8    9 1    
    17    8  134 1    
    18    8  135 1    
    19    9   10 ar   
    20    9   14 ar   
    21   10   11 ar   
    22   10  136 1    
    23   11   12 ar   
    24   11  126 1    
    25   12   13 ar   
    26   12  137 1    
    27   13   14 ar   
    28   13   15 1    
    29   14  138 1    
    30   15   16 1    
    31   15  139 1    
    32   15  140 1    
    33   16   17 1    
    34   17   18 1    
    35   17  141 1    
    36   17  142 1    
    37   18   19 1    
    38   18   67 1    
    39   18  143 1    
    40   19   20 am   BACKBONE|DICT|INTERRES
    41   19  144 1    
    42   20   21 2    
    43   20   22 1    
    44   22   23 1    
    45   22   24 1    
    46   22  145 1    
    47   23  146 1    
    48   23  147 1    
    49   23  148 1    
    50   24   25 am   BACKBONE|DICT|INTERRES
    51   24  149 1    
    52   25   26 2    
    53   25   27 1    
    54   27   28 1    
    55   27   29 1    
    56   27  150 1    
    57   28  151 1    
    58   28  152 1    
    59   28  153 1    
    60   29   30 am   BACKBONE|DICT|INTERRES
    61   29  154 1    
    62   30   31 2    
    63   30   32 1    
    64   32   33 1    
    65   32   34 1    
    66   32  155 1    
    67   33  156 1    
    68   33  157 1    
    69   33  158 1    
    70   34   35 am   BACKBONE|DICT|INTERRES
    71   34  159 1    
    72   35   36 2    
    73   35   37 1    
    74   37   38 1    
    75   37   39 1    
    76   37  160 1    
    77   38  161 1    
    78   38  162 1    
    79   38  163 1    
    80   39   40 am   BACKBONE|DICT|INTERRES
    81   39  164 1    
    82   40   41 2    
    83   40   42 1    
    84   42   43 1    
    85   42   44 1    
    86   42  165 1    
    87   43  166 1    
    88   43  167 1    
    89   43  168 1    
    90   44   45 am   BACKBONE|DICT|INTERRES
    91   44  169 1    
    92   45   46 2    
    93   45   47 1    
    94   47   48 1    
    95   47   49 1    
    96   47  170 1    
    97   48  171 1    
    98   48  172 1    
    99   48  173 1    
   100   49   50 am   BACKBONE|DICT|INTERRES
   101   49  174 1    
   102   50   51 2    
   103   50   52 1    
   104   52   53 1    
   105   52   54 1    
   106   52  175 1    
   107   53  176 1    
   108   53  177 1    
   109   53  178 1    
   110   54   55 am   BACKBONE|DICT|INTERRES
   111   54  179 1    
   112   55   56 2    
   113   55   57 1    
   114   57   58 1    
   115   57   59 1    
   116   57  180 1    
   117   58  181 1    
   118   58  182 1    
   119   58  183 1    
   120   59   60 am   BACKBONE|DICT|INTERRES
   121   59  184 1    
   122   60   61 2    
   123   60   62 1    
   124   62   63 1    
   125   62   64 1    
   126   62  185 1    
   127   63  186 1    
   128   63  187 1    
   129   63  188 1    
   130   64   65 am   BACKBONE|DICT|INTERRES
   131   64  189 1    
   132   65   66 2    
   133   67   68 2    
   134   67   69 am   BACKBONE|DICT|INTERRES
   135   69   70 1    
   136   69  190 1    
   137   70   71 1    
   138   70   72 1    
   139   70  191 1    
   140   71  192 1    
   141   71  193 1    
   142   71  194 1    
   143   72   73 2    
   144   72   74 am   BACKBONE|DICT|INTERRES
   145   74   75 1    
   146   74  195 1    
   147   75   76 1    
   148   75   77 1    
   149   75  196 1    
   150   76  197 1    
   151   76  198 1    
   152   76  199 1    
   153   77   78 2    
   154   77   79 am   BACKBONE|DICT|INTERRES
   155   79   80 1    
   156   79  200 1    
   157   80   81 1    
   158   80   82 1    
   159   80  201 1    
   160   81  202 1    
   161   81  203 1    
   162   81  204 1    
   163   82   83 2    
   164   82   84 am   BACKBONE|DICT|INTERRES
   165   84   85 1    
   166   84  205 1    
   167   85   86 1    
   168   85   87 1    
   169   85  206 1    
   170   86  207 1    
   171   86  208 1    
   172   86  209 1    
   173   87   88 2    
   174   87   89 am   BACKBONE|DICT|INTERRES
   175   89   90 1    
   176   89  210 1    
   177   90   91 1    
   178   90   92 1    
   179   90  211 1    
   180   91  212 1    
   181   91  213 1    
   182   91  214 1    
   183   92   93 2    
   184   92   94 am   BACKBONE|DICT|INTERRES
   185   94   95 1    
   186   94  215 1    
   187   95   96 1    
   188   95   97 1    
   189   95  216 1    
   190   96  217 1    
   191   96  218 1    
   192   96  219 1    
   193   97   98 2    
   194   97   99 am   BACKBONE|DICT|INTERRES
   195   99  100 1    
   196   99  220 1    
   197  100  101 1    
   198  100  102 1    
   199  100  221 1    
   200  101  222 1    
   201  101  223 1    
   202  101  224 1    
   203  102  103 2    
   204  102  104 am   BACKBONE|DICT|INTERRES
   205  104  105 1    
   206  104  225 1    
   207  105  106 1    
   208  105  107 1    
   209  105  226 1    
   210  106  227 1    
   211  106  228 1    
   212  106  229 1    
   213  107  108 2    
   214  107  109 am   BACKBONE|DICT|INTERRES
   215  109  110 1    
   216  109  230 1    
   217  110  111 1    
   218  110  112 1    
   219  110  231 1    
   220  111  232 1    
   221  111  233 1    
   222  111  234 1    
   223  112  113 2    
   224  112  114 am   BACKBONE|DICT|INTERRES
   225  114  115 1    
   226  114  235 1    
   227  115  116 1    
   228  115  117 1    
   229  115  236 1    
   230  116  237 1    
   231  116  238 1    
   232  116  239 1    
   233  117  118 2    
   234  117  119 am   BACKBONE|DICT|INTERRES
   235  119  120 1    
   236  119  240 1    
   237  120  121 1    
   238  120  124 1    
   239  120  241 1    
   240  121  122 am   BACKBONE|DICT|INTERRES
   241  121  123 2    
   242  122  242 1    
   243  122  243 1    
   244  124  125 1    
   245  124  244 1    
   246  124  245 1    
   247  125  126 1    
   248  126  246 1    
   249  126  247 1    
@<TRIPOS>SUBSTRUCTURE
     1 UNK         1 GROUP             0       ****    0 ROOT    
