@<TRIPOS>MOLECULE
3R540
247   249    1
SMALL
USER_CHARGES


@<TRIPOS>ATOM
      1 CA         -5.1067  -14.2920  -47.5307 C.3       0 UNK        -0.1800 
      2 C          -3.8853  -13.3903  -47.6104 C.2       0 UNK         0.5000 
      3 O          -4.0063  -12.1734  -47.4645 O.2       0 UNK        -0.5000 
      4 N          -2.7015  -13.9794  -47.8160 N.am      1 UNK        -0.5000 
      5 CA         -1.4020  -13.3013  -47.9062 C.3       1 UNK         0.1400 
      6 C6         -0.3925  -14.1226  -48.7545 C.3       23 UNK        -0.0398 
      7 S7         -0.0075  -15.7805  -48.0842 S.3       23 UNK        -0.2404 
      8 C8         -0.5679  -16.9030  -49.3999 C.3       23 UNK        -0.0205 
      9 C9         -2.0831  -16.9873  -49.4723 C.ar      23 UNK        -0.0193 
     10 C10        -2.7614  -16.5774  -50.6235 C.ar      23 UNK        -0.1150 
     11 C11        -4.1519  -16.6963  -50.7093 C.ar      23 UNK        -0.0193 
     12 C12        -4.8612  -17.2136  -49.6201 C.ar      23 UNK        -0.1150 
     13 C13        -4.1936  -17.6337  -48.4667 C.ar      23 UNK        -0.0193 
     14 C14        -2.8040  -17.5116  -48.3964 C.ar      23 UNK        -0.1150 
     15 C15        -4.9780  -18.2312  -47.3102 C.3       23 UNK        -0.0205 
     16 S16        -4.9034  -20.0502  -47.3287 S.3       23 UNK        -0.2404 
     17 C17        -3.6163  -20.3483  -46.0723 C.3       23 UNK        -0.0398 
     18 CA         -2.9783  -21.7547  -46.1489 C.3       11 UNK         0.1400 
     19 N          -1.6611  -21.7568  -45.5024 N.am      11 UNK        -0.5000 
     20 C          -0.8288  -22.7995  -45.3826 C.2       10 UNK         0.5000 
     21 O          -1.0200  -23.8864  -45.9265 O.2       10 UNK        -0.5000 
     22 CA          0.3742  -22.6402  -44.4299 C.3       10 UNK         0.1400 
     23 CB          1.6886  -22.5564  -45.2157 C.3       10 UNK        -0.1800 
     24 N           0.2746  -21.5024  -43.5060 N.am      10 UNK        -0.5000 
     25 C          -0.6563  -21.3663  -42.5482 C.2       9 UNK         0.5000 
     26 O          -1.5492  -22.1912  -42.3489 O.2       9 UNK        -0.5000 
     27 CA         -0.6156  -20.0731  -41.7120 C.3       9 UNK         0.1400 
     28 CB          0.4885  -20.1407  -40.6463 C.3       9 UNK        -0.1800 
     29 N          -0.4288  -18.8829  -42.5431 N.am      9 UNK        -0.5000 
     30 C          -1.3547  -18.3869  -43.3772 C.2       8 UNK         0.5000 
     31 O          -2.4998  -18.8280  -43.4601 O.2       8 UNK        -0.5000 
     32 CA         -0.9193  -17.2418  -44.3137 C.3       8 UNK         0.1400 
     33 CB         -1.0592  -15.8765  -43.6279 C.3       8 UNK        -0.1800 
     34 N           0.4497  -17.4088  -44.7992 N.am      8 UNK        -0.5000 
     35 C           0.8577  -18.4238  -45.5725 C.2       7 UNK         0.5000 
     36 O           0.1001  -19.2904  -46.0057 O.2       7 UNK        -0.5000 
     37 CA          2.3688  -18.5250  -45.8479 C.3       7 UNK         0.1400 
     38 CB          2.7827  -17.6960  -47.0706 C.3       7 UNK        -0.1800 
     39 N           3.1585  -18.1165  -44.6865 N.am      7 UNK        -0.5000 
     40 C           3.3074  -18.8572  -43.5805 C.2       6 UNK         0.5000 
     41 O           2.8182  -19.9779  -43.4413 O.2       6 UNK        -0.5000 
     42 CA          4.1040  -18.2253  -42.4233 C.3       6 UNK         0.1400 
     43 CB          5.6139  -18.3924  -42.6498 C.3       6 UNK        -0.1800 
     44 N           3.7955  -16.8071  -42.2307 N.am      6 UNK        -0.5000 
     45 C           2.6113  -16.3457  -41.8052 C.2       5 UNK         0.5000 
     46 O           1.6699  -17.0749  -41.4947 O.2       5 UNK        -0.5000 
     47 CA          2.4304  -14.8147  -41.7558 C.3       5 UNK         0.1400 
     48 CB          2.8898  -14.2637  -40.3981 C.3       5 UNK        -0.1800 
     49 N           3.1012  -14.0713  -42.8290 N.am      5 UNK        -0.5000 
     50 C           2.9621  -14.3008  -44.1416 C.2       4 UNK         0.5000 
     51 O           2.3247  -15.2467  -44.6039 O.2       4 UNK        -0.5000 
     52 CA          3.6094  -13.2735  -45.0802 C.3       4 UNK         0.1400 
     53 CB          3.8183  -13.8284  -46.5009 C.3       4 UNK        -0.1800 
     54 N           2.7132  -12.1273  -45.1517 N.am      4 UNK        -0.5000 
     55 C           2.9182  -10.9327  -44.5840 C.2       3 UNK         0.5000 
     56 O           3.9481  -10.6341  -43.9780 O.2       3 UNK        -0.5000 
     57 CA          1.7803   -9.8949  -44.6973 C.3       3 UNK         0.1400 
     58 CB          2.0341   -8.9489  -45.8809 C.3       3 UNK        -0.1800 
     59 N           0.4529  -10.4966  -44.8474 N.am      3 UNK        -0.5000 
     60 C          -0.1764  -11.2059  -43.9005 C.2       2 UNK         0.5000 
     61 O           0.2570  -11.3452  -42.7561 O.2       2 UNK        -0.5000 
     62 CA         -1.5026  -11.8936  -44.2898 C.3       2 UNK         0.1400 
     63 CB         -2.6980  -11.0552  -43.8125 C.3       2 UNK        -0.1800 
     64 N          -1.6893  -12.2061  -45.7138 N.am      2 UNK        -0.5000 
     65 C          -0.8584  -12.8914  -46.5124 C.2       1 UNK         0.5000 
     66 O           0.2843  -13.1981  -46.1791 O.2       1 UNK        -0.5000 
     67 C          -3.9354  -22.8370  -45.5851 C.2       11 UNK         0.5000 
     68 O          -4.8019  -23.3254  -46.3110 O.2       11 UNK        -0.5000 
     69 N          -3.7545  -23.2125  -44.3090 N.am      12 UNK        -0.5000 
     70 CA         -4.4902  -24.2980  -43.6609 C.3       12 UNK         0.1400 
     71 CB         -4.4115  -24.1107  -42.1381 C.3       12 UNK        -0.1800 
     72 C          -3.9797  -25.6997  -44.0551 C.2       12 UNK         0.5000 
     73 O          -4.7349  -26.6647  -43.9305 O.2       12 UNK        -0.5000 
     74 N          -2.7186  -25.8015  -44.4996 N.am      13 UNK        -0.5000 
     75 CA         -2.0751  -27.0587  -44.8841 C.3       13 UNK         0.1400 
     76 CB         -0.5740  -26.9867  -44.5596 C.3       13 UNK        -0.1800 
     77 C          -2.2961  -27.3835  -46.3708 C.2       13 UNK         0.5000 
     78 O          -2.5130  -28.5479  -46.7090 O.2       13 UNK        -0.5000 
     79 N          -2.2538  -26.3576  -47.2273 N.am      14 UNK        -0.5000 
     80 CA         -2.5139  -26.4422  -48.6605 C.3       14 UNK         0.1400 
     81 CB         -1.2003  -26.7135  -49.4132 C.3       14 UNK        -0.1800 
     82 C          -3.1339  -25.1173  -49.1112 C.2       14 UNK         0.5000 
     83 O          -2.7633  -24.0729  -48.5744 O.2       14 UNK        -0.5000 
     84 N          -4.0391  -25.1702  -50.0980 N.am      15 UNK        -0.5000 
     85 CA         -4.7656  -24.0182  -50.6412 C.3       15 UNK         0.1400 
     86 CB         -5.6960  -24.4904  -51.7702 C.3       15 UNK        -0.1800 
     87 C          -3.8147  -22.9166  -51.1420 C.2       15 UNK         0.5000 
     88 O          -3.0506  -23.1560  -52.0793 O.2       15 UNK        -0.5000 
     89 N          -3.8443  -21.7581  -50.4692 N.am      16 UNK        -0.5000 
     90 CA         -2.9692  -20.5983  -50.6796 C.3       16 UNK         0.1400 
     91 CB         -3.1851  -20.0141  -52.0893 C.3       16 UNK        -0.1800 
     92 C          -1.4794  -20.8901  -50.4004 C.2       16 UNK         0.5000 
     93 O          -0.6166  -20.2493  -50.9968 O.2       16 UNK        -0.5000 
     94 N          -1.1932  -21.8906  -49.5527 N.am      17 UNK        -0.5000 
     95 CA          0.1308  -22.4804  -49.3168 C.3       17 UNK         0.1400 
     96 CB          1.0933  -21.4619  -48.6746 C.3       17 UNK        -0.1800 
     97 C           0.7054  -23.1365  -50.5919 C.2       17 UNK         0.5000 
     98 O           1.9166  -23.1094  -50.8131 O.2       17 UNK        -0.5000 
     99 N          -0.1982  -23.6961  -51.4113 N.am      18 UNK        -0.5000 
    100 CA         0.0131  -24.3098  -52.7239 C.3       18 UNK         0.1400 
    101 CB         1.0518  -25.4495  -52.6694 C.3       18 UNK        -0.1800 
    102 C          0.2900  -23.2968  -53.8554 C.2       18 UNK         0.5000 
    103 O          0.6502  -23.7173  -54.9571 O.2       18 UNK        -0.5000 
    104 N          0.0723  -21.9930  -53.6164 N.am      19 UNK        -0.5000 
    105 CA         0.1939  -20.9246  -54.6151 C.3       19 UNK         0.1400 
    106 CB         0.4707  -19.5844  -53.9112 C.3       19 UNK        -0.1800 
    107 C         -1.0430  -20.8631  -55.5374 C.2       19 UNK         0.5000 
    108 O         -1.7554  -19.8567  -55.5638 O.2       19 UNK        -0.5000 
    109 N         -1.2868  -21.9684  -56.2571 N.am      20 UNK        -0.5000 
    110 CA        -2.3133  -22.1699  -57.2880 C.3       20 UNK         0.1400 
    111 CB        -1.9435  -21.3665  -58.5525 C.3       20 UNK        -0.1800 
    112 C         -3.7586  -21.8884  -56.8196 C.2       20 UNK         0.5000 
    113 O         -4.5917  -21.4777  -57.6301 O.2       20 UNK        -0.5000 
    114 N         -4.0242  -22.0763  -55.5162 N.am      21 UNK        -0.5000 
    115 CA        -5.2895  -21.7878  -54.8272 C.3       21 UNK         0.1400 
    116 CB        -6.3531  -22.8404  -55.2008 C.3       21 UNK        -0.1800 
    117 C         -5.7773  -20.3334  -55.0314 C.2       21 UNK         0.5000 
    118 O         -6.9764  -20.0998  -55.1925 O.2       21 UNK        -0.5000 
    119 N         -4.8212  -19.3938  -55.0441 N.am      22 UNK        -0.5000 
    120 CA        -4.9899  -17.9528  -55.3076 C.3       22 UNK         0.1400 
    121 C         -5.1842  -17.5954  -56.8130 C.2       22 UNK         0.5000 
    122 N         -5.0987  -18.5335  -57.7499 N.am      22 UNK        -0.7600 
    123 O         -5.3895  -16.4315  -57.1476 O.2       22 UNK        -0.5000 
    124 C124       -6.0412  -17.2340  -54.4054 C.3       23 UNK        -0.0398 
    125 S125       -5.9104  -17.6406  -52.6313 S.3       23 UNK        -0.2404 
    126 C126       -4.8795  -16.2854  -51.9845 C.3       23 UNK        -0.0205 
    127 H127       -5.8962  -13.8174  -46.9478 H         1 UNK         0.0600 
    128 H128       -5.4926  -14.4942  -48.5299 H         1 UNK         0.0600 
    129 H129       -4.8616  -15.2388  -47.0514 H         1 UNK         0.0600 
    130 H130       -2.6601  -14.9846  -47.9169 H         1 UNK         0.3000 
    131 H131       -1.5578  -12.3638  -48.4440 H         1 UNK         0.0600 
    132 H132       -0.7780  -14.2284  -49.7692 H         1 UNK         0.0800 
    133 H133        0.5457  -13.5750  -48.8578 H         1 UNK         0.0800 
    134 H134       -0.1739  -17.9007  -49.1990 H         1 UNK         0.0800 
    135 H135       -0.1397  -16.5926  -50.3541 H         1 UNK         0.0800 
    136 H136       -2.2033  -16.1845  -51.4616 H         1 UNK         0.1150 
    137 H137       -5.9358  -17.3116  -49.6825 H         1 UNK         0.1150 
    138 H138       -2.2733  -17.8368  -47.5134 H         1 UNK         0.1150 
    139 H139       -4.6065  -17.8408  -46.3614 H         1 UNK         0.0800 
    140 H140       -6.0239  -17.9264  -47.3707 H         1 UNK         0.0800 
    141 H141       -4.0428  -20.1647  -45.0848 H         1 UNK         0.0800 
    142 H142       -2.8414  -19.5942  -46.2087 H         1 UNK         0.0800 
    143 H143       -2.7992  -21.9823  -47.1980 H         1 UNK         0.0600 
    144 H144       -1.3752  -20.8887  -45.0694 H         1 UNK         0.3000 
    145 H145        0.4096  -23.5472  -43.8229 H         1 UNK         0.0600 
    146 H146        2.5498  -22.5753  -44.5478 H         1 UNK         0.0600 
    147 H147        1.7913  -23.3965  -45.9039 H         1 UNK         0.0600 
    148 H148        1.7406  -21.6422  -45.8024 H         1 UNK         0.0600 
    149 H149        1.0037  -20.7995  -43.5811 H         1 UNK         0.3000 
    150 H150       -1.5737  -19.9808  -41.1963 H         1 UNK         0.0600 
    151 H151        0.3592  -21.0132  -40.0048 H         1 UNK         0.0600 
    152 H152        0.4692  -19.2594  -40.0049 H         1 UNK         0.0600 
    153 H153        1.4809  -20.2049  -41.0928 H         1 UNK         0.0600 
    154 H154        0.4679  -18.4138  -42.4752 H         1 UNK         0.3000 
    155 H155       -1.5786  -17.2507  -45.1840 H         1 UNK         0.0600 
    156 H156       -0.4874  -15.8312  -42.7019 H         1 UNK         0.0600 
    157 H157       -2.1011  -15.6696  -43.3814 H         1 UNK         0.0600 
    158 H158       -0.7089  -15.0752  -44.2782 H         1 UNK         0.0600 
    159 H159        1.1239  -16.6885  -44.5518 H         1 UNK         0.3000 
    160 H160        2.5997  -19.5673  -46.0704 H         1 UNK         0.0600 
    161 H161        3.8399  -17.8299  -47.2987 H         1 UNK         0.0600 
    162 H162        2.6065  -16.6322  -46.9141 H         1 UNK         0.0600 
    163 H163        2.2180  -17.9983  -47.9534 H         1 UNK         0.0600 
    164 H164        3.4962  -17.1638  -44.6861 H         1 UNK         0.3000 
    165 H165        3.8367  -18.7580  -41.5081 H         1 UNK         0.0600 
    166 H166        6.1836  -18.0210  -41.7978 H         1 UNK         0.0600 
    167 H167        5.8743  -19.4436  -42.7803 H         1 UNK         0.0600 
    168 H168        5.9511  -17.8577  -43.5387 H         1 UNK         0.0600 
    169 H169        4.5151  -16.1413  -42.4705 H         1 UNK         0.3000 
    170 H170        1.3625  -14.6129  -41.8539 H         1 UNK         0.0600 
    171 H171        2.3909  -14.7804  -39.5769 H         1 UNK         0.0600 
    172 H172        3.9647  -14.3842  -40.2578 H         1 UNK         0.0600 
    173 H173        2.6542  -13.2035  -40.3027 H         1 UNK         0.0600 
    174 H174        3.6259  -13.2570  -42.5429 H         1 UNK         0.3000 
    175 H175        4.5835  -12.9951  -44.6735 H         1 UNK         0.0600 
    176 H176        2.8729  -14.1019  -46.9724 H         1 UNK         0.0600 
    177 H177        4.3072  -13.0936  -47.1402 H         1 UNK         0.0600 
    178 H178        4.4482  -14.7184  -46.4844 H         1 UNK         0.0600 
    179 H179        1.8032  -12.3297  -45.5623 H         1 UNK         0.3000 
    180 H180        1.7826   -9.3030  -43.7797 H         1 UNK         0.0600 
    181 H181        2.0252   -9.4835  -46.8316 H         1 UNK         0.0600 
    182 H182        3.0045   -8.4593  -45.7886 H         1 UNK         0.0600 
    183 H183        1.2790   -8.1642  -45.9283 H         1 UNK         0.0600 
    184 H184        0.0273  -10.4407  -45.7607 H         1 UNK         0.3000 
    185 H185       -1.5270  -12.8440  -43.7546 H         1 UNK         0.0600 
    186 H186       -2.6202  -10.8284  -42.7482 H         1 UNK         0.0600 
    187 H187       -2.7601  -10.1067  -44.3475 H         1 UNK         0.0600 
    188 H188       -3.6381  -11.5869  -43.9615 H         1 UNK         0.0600 
    189 H189       -2.6009  -11.9843  -46.1025 H         1 UNK         0.3000 
    190 H190       -3.0249  -22.7707  -43.7595 H         1 UNK         0.3000 
    191 H191       -5.5403  -24.2338  -43.9542 H         1 UNK         0.0600 
    192 H192       -3.3853  -24.1860  -41.7762 H         1 UNK         0.0600 
    193 H193       -4.9983  -24.8703  -41.6200 H         1 UNK         0.0600 
    194 H194       -4.8021  -23.1380  -41.8386 H         1 UNK         0.0600 
    195 H195       -2.1829  -24.9574  -44.6612 H         1 UNK         0.3000 
    196 H196       -2.4990  -27.8762  -44.2968 H         1 UNK         0.0600 
    197 H197       -0.0847  -27.9364  -44.7788 H         1 UNK         0.0600 
    198 H198       -0.4087  -26.7721  -43.5037 H         1 UNK         0.0600 
    199 H199       -0.0657  -26.2178  -45.1416 H         1 UNK         0.0600 
    200 H200       -2.0723  -25.4184  -46.8827 H         1 UNK         0.3000 
    201 H201       -3.2255  -27.2457  -48.8621 H         1 UNK         0.0600 
    202 H202       -0.7663  -27.6687  -49.1176 H         1 UNK         0.0600 
    203 H203       -0.4598  -25.9362  -49.2202 H         1 UNK         0.0600 
    204 H204       -1.3658  -26.7502  -50.4907 H         1 UNK         0.0600 
    205 H205       -4.2587  -26.0655  -50.5101 H         1 UNK         0.3000 
    206 H206       -5.3850  -23.6130  -49.8378 H         1 UNK         0.0600 
    207 H207       -6.4092  -25.2326  -51.4113 H         1 UNK         0.0600 
    208 H208       -6.2728  -23.6572  -52.1736 H         1 UNK         0.0600 
    209 H209       -5.1368  -24.9331  -52.5960 H         1 UNK         0.0600 
    210 H210       -4.4839  -21.6732  -49.6907 H         1 UNK         0.3000 
    211 H211       -3.2782  -19.8469  -49.9555 H         1 UNK         0.0600 
    212 H212       -2.7540  -20.6459  -52.8656 H         1 UNK         0.0600 
    213 H213       -2.7292  -19.0284  -52.1827 H         1 UNK         0.0600 
    214 H214       -4.2463  -19.9055  -52.2993 H         1 UNK         0.0600 
    215 H215       -1.9621  -22.4137  -49.1416 H         1 UNK         0.3000 
    216 H216       -0.0212  -23.2873  -48.5982 H         1 UNK         0.0600 
    217 H217        1.3837  -20.6729  -49.3688 H         1 UNK         0.0600 
    218 H218        2.0072  -21.9491  -48.3341 H         1 UNK         0.0600 
    219 H219        0.6308  -20.9914  -47.8102 H         1 UNK         0.0600 
    220 H220       -1.1756  -23.5920  -51.1657 H         1 UNK         0.3000 
    221 H221       -0.9438  -24.7679  -52.9783 H         1 UNK         0.0600 
    222 H222        2.0657  -25.0716  -52.5363 H         1 UNK         0.0600 
    223 H223        0.8393  -26.1411  -51.8540 H         1 UNK         0.0600 
    224 H224        1.0430  -26.0281  -53.5940 H         1 UNK         0.0600 
    225 H225       -0.2293  -21.7068  -52.6933 H         1 UNK         0.3000 
    226 H226        1.0581  -21.1375  -55.2481 H         1 UNK         0.0600 
    227 H227        1.3130  -19.6618  -53.2235 H         1 UNK         0.0600 
    228 H228        0.7132  -18.8089  -54.6387 H         1 UNK         0.0600 
    229 H229       -0.3938  -19.2358  -53.3463 H         1 UNK         0.0600 
    230 H230       -0.6562  -22.7506  -56.1072 H         1 UNK         0.3000 
    231 H231       -2.2828  -23.2292  -57.5470 H         1 UNK         0.0600 
    232 H232       -0.9288  -21.5922  -58.8811 H         1 UNK         0.0600 
    233 H233       -2.0085  -20.2915  -58.3787 H         1 UNK         0.0600 
    234 H234       -2.6101  -21.6061  -59.3820 H         1 UNK         0.0600 
    235 H235       -3.2699  -22.3988  -54.9261 H         1 UNK         0.3000 
    236 H236       -5.0880  -21.8892  -53.7606 H         1 UNK         0.0600 
    237 H237       -7.2583  -22.7115  -54.6061 H         1 UNK         0.0600 
    238 H238       -6.6375  -22.7717  -56.2513 H         1 UNK         0.0600 
    239 H239       -5.9879  -23.8510  -55.0174 H         1 UNK         0.0600 
    240 H240       -3.8562  -19.6953  -54.9727 H         1 UNK         0.3000 
    241 H241       -4.0201  -17.5237  -55.0536 H         1 UNK         0.0600 
    242 H242       -4.9396  -19.5071  -57.5139 H         1 UNK         0.3800 
    243 H243       -5.2177  -18.2734  -58.7159 H         1 UNK         0.3800 
    244 H244       -5.9652  -16.1515  -54.5206 H         1 UNK         0.0800 
    245 H245       -7.0509  -17.4926  -54.7270 H         1 UNK         0.0800 
    246 H246       -5.5062  -15.4160  -51.7823 H         1 UNK         0.0800 
    247 H247       -4.1614  -15.9862  -52.7495 H         1 UNK         0.0800 
@<TRIPOS>BOND
     1    1    2 1    
     2    1  127 1    
     3    1  128 1    
     4    1  129 1    
     5    2    3 2    
     6    2    4 am   BACKBONE|DICT|INTERRES
     7    4    5 1    
     8    4  130 1    
     9    5    6 1    
    10    5   65 1    
    11    5  131 1    
    12    6    7 1    
    13    6  132 1    
    14    6  133 1    
    15    7    8 1    
    16    8    9 1    
    17    8  134 1    
    18    8  135 1    
    19    9   10 ar   
    20    9   14 ar   
    21   10   11 ar   
    22   10  136 1    
    23   11   12 ar   
    24   11  126 1    
    25   12   13 ar   
    26   12  137 1    
    27   13   14 ar   
    28   13   15 1    
    29   14  138 1    
    30   15   16 1    
    31   15  139 1    
    32   15  140 1    
    33   16   17 1    
    34   17   18 1    
    35   17  141 1    
    36   17  142 1    
    37   18   19 1    
    38   18   67 1    
    39   18  143 1    
    40   19   20 am   BACKBONE|DICT|INTERRES
    41   19  144 1    
    42   20   21 2    
    43   20   22 1    
    44   22   23 1    
    45   22   24 1    
    46   22  145 1    
    47   23  146 1    
    48   23  147 1    
    49   23  148 1    
    50   24   25 am   BACKBONE|DICT|INTERRES
    51   24  149 1    
    52   25   26 2    
    53   25   27 1    
    54   27   28 1    
    55   27   29 1    
    56   27  150 1    
    57   28  151 1    
    58   28  152 1    
    59   28  153 1    
    60   29   30 am   BACKBONE|DICT|INTERRES
    61   29  154 1    
    62   30   31 2    
    63   30   32 1    
    64   32   33 1    
    65   32   34 1    
    66   32  155 1    
    67   33  156 1    
    68   33  157 1    
    69   33  158 1    
    70   34   35 am   BACKBONE|DICT|INTERRES
    71   34  159 1    
    72   35   36 2    
    73   35   37 1    
    74   37   38 1    
    75   37   39 1    
    76   37  160 1    
    77   38  161 1    
    78   38  162 1    
    79   38  163 1    
    80   39   40 am   BACKBONE|DICT|INTERRES
    81   39  164 1    
    82   40   41 2    
    83   40   42 1    
    84   42   43 1    
    85   42   44 1    
    86   42  165 1    
    87   43  166 1    
    88   43  167 1    
    89   43  168 1    
    90   44   45 am   BACKBONE|DICT|INTERRES
    91   44  169 1    
    92   45   46 2    
    93   45   47 1    
    94   47   48 1    
    95   47   49 1    
    96   47  170 1    
    97   48  171 1    
    98   48  172 1    
    99   48  173 1    
   100   49   50 am   BACKBONE|DICT|INTERRES
   101   49  174 1    
   102   50   51 2    
   103   50   52 1    
   104   52   53 1    
   105   52   54 1    
   106   52  175 1    
   107   53  176 1    
   108   53  177 1    
   109   53  178 1    
   110   54   55 am   BACKBONE|DICT|INTERRES
   111   54  179 1    
   112   55   56 2    
   113   55   57 1    
   114   57   58 1    
   115   57   59 1    
   116   57  180 1    
   117   58  181 1    
   118   58  182 1    
   119   58  183 1    
   120   59   60 am   BACKBONE|DICT|INTERRES
   121   59  184 1    
   122   60   61 2    
   123   60   62 1    
   124   62   63 1    
   125   62   64 1    
   126   62  185 1    
   127   63  186 1    
   128   63  187 1    
   129   63  188 1    
   130   64   65 am   BACKBONE|DICT|INTERRES
   131   64  189 1    
   132   65   66 2    
   133   67   68 2    
   134   67   69 am   BACKBONE|DICT|INTERRES
   135   69   70 1    
   136   69  190 1    
   137   70   71 1    
   138   70   72 1    
   139   70  191 1    
   140   71  192 1    
   141   71  193 1    
   142   71  194 1    
   143   72   73 2    
   144   72   74 am   BACKBONE|DICT|INTERRES
   145   74   75 1    
   146   74  195 1    
   147   75   76 1    
   148   75   77 1    
   149   75  196 1    
   150   76  197 1    
   151   76  198 1    
   152   76  199 1    
   153   77   78 2    
   154   77   79 am   BACKBONE|DICT|INTERRES
   155   79   80 1    
   156   79  200 1    
   157   80   81 1    
   158   80   82 1    
   159   80  201 1    
   160   81  202 1    
   161   81  203 1    
   162   81  204 1    
   163   82   83 2    
   164   82   84 am   BACKBONE|DICT|INTERRES
   165   84   85 1    
   166   84  205 1    
   167   85   86 1    
   168   85   87 1    
   169   85  206 1    
   170   86  207 1    
   171   86  208 1    
   172   86  209 1    
   173   87   88 2    
   174   87   89 am   BACKBONE|DICT|INTERRES
   175   89   90 1    
   176   89  210 1    
   177   90   91 1    
   178   90   92 1    
   179   90  211 1    
   180   91  212 1    
   181   91  213 1    
   182   91  214 1    
   183   92   93 2    
   184   92   94 am   BACKBONE|DICT|INTERRES
   185   94   95 1    
   186   94  215 1    
   187   95   96 1    
   188   95   97 1    
   189   95  216 1    
   190   96  217 1    
   191   96  218 1    
   192   96  219 1    
   193   97   98 2    
   194   97   99 am   BACKBONE|DICT|INTERRES
   195   99  100 1    
   196   99  220 1    
   197  100  101 1    
   198  100  102 1    
   199  100  221 1    
   200  101  222 1    
   201  101  223 1    
   202  101  224 1    
   203  102  103 2    
   204  102  104 am   BACKBONE|DICT|INTERRES
   205  104  105 1    
   206  104  225 1    
   207  105  106 1    
   208  105  107 1    
   209  105  226 1    
   210  106  227 1    
   211  106  228 1    
   212  106  229 1    
   213  107  108 2    
   214  107  109 am   BACKBONE|DICT|INTERRES
   215  109  110 1    
   216  109  230 1    
   217  110  111 1    
   218  110  112 1    
   219  110  231 1    
   220  111  232 1    
   221  111  233 1    
   222  111  234 1    
   223  112  113 2    
   224  112  114 am   BACKBONE|DICT|INTERRES
   225  114  115 1    
   226  114  235 1    
   227  115  116 1    
   228  115  117 1    
   229  115  236 1    
   230  116  237 1    
   231  116  238 1    
   232  116  239 1    
   233  117  118 2    
   234  117  119 am   BACKBONE|DICT|INTERRES
   235  119  120 1    
   236  119  240 1    
   237  120  121 1    
   238  120  124 1    
   239  120  241 1    
   240  121  122 am   BACKBONE|DICT|INTERRES
   241  121  123 2    
   242  122  242 1    
   243  122  243 1    
   244  124  125 1    
   245  124  244 1    
   246  124  245 1    
   247  125  126 1    
   248  126  246 1    
   249  126  247 1    
@<TRIPOS>SUBSTRUCTURE
     1 UNK         1 GROUP             0       ****    0 ROOT    
