@<TRIPOS>MOLECULE
3R540
247   249    1
SMALL
USER_CHARGES


@<TRIPOS>ATOM
      1 CA         -1.8028  -13.3486  -50.3916 C.3       0 UNK        -0.1800 
      2 C          -1.3347  -13.4507  -48.9475 C.2       0 UNK         0.5000 
      3 O          -0.6801  -12.5312  -48.4560 O.2       0 UNK        -0.5000 
      4 N          -1.6541  -14.5620  -48.2708 N.am      1 UNK        -0.5000 
      5 CA         -1.2966  -14.8773  -46.8809 C.3       1 UNK         0.1400 
      6 C6         -2.0469  -13.9982  -45.8425 C.3       23 UNK        -0.0398 
      7 S7         -3.8594  -14.1704  -45.9378 S.3       23 UNK        -0.2404 
      8 C8         -4.2689  -14.9378  -44.3283 C.3       23 UNK        -0.0205 
      9 C9         -4.3251  -16.4671  -44.3068 C.ar      23 UNK        -0.0193 
     10 C10        -4.5389  -17.2286  -45.4631 C.ar      23 UNK        -0.1150 
     11 C11        -4.7224  -18.6121  -45.3830 C.ar      23 UNK        -0.0193 
     12 C12        -4.6893  -19.2398  -44.1375 C.ar      23 UNK        -0.1150 
     13 C13        -4.4332  -18.5061  -42.9768 C.ar      23 UNK        -0.0193 
     14 C14        -4.2543  -17.1215  -43.0715 C.ar      23 UNK        -0.1150 
     15 C15        -4.4045  -19.1936  -41.6164 C.3       23 UNK        -0.0205 
     16 S16        -2.9779  -20.3134  -41.4118 S.3       23 UNK        -0.2404 
     17 C17        -3.6041  -21.8821  -42.1070 C.3       23 UNK        -0.0398 
     18 CA         -2.8455  -22.3257  -43.3820 C.3       11 UNK         0.1400 
     19 N          -1.4252  -22.5787  -43.1126 N.am      11 UNK        -0.5000 
     20 C          -0.4936  -22.8871  -44.0231 C.2       10 UNK         0.5000 
     21 O          -0.7452  -23.0974  -45.2116 O.2       10 UNK        -0.5000 
     22 CA          0.9568  -22.9615  -43.5097 C.3       10 UNK         0.1400 
     23 CB          1.9649  -23.2975  -44.6231 C.3       10 UNK        -0.1800 
     24 N           1.3511  -21.6976  -42.8945 N.am      10 UNK        -0.5000 
     25 C           1.1102  -21.3311  -41.6296 C.2       9 UNK         0.5000 
     26 O           0.5100  -22.0387  -40.8199 O.2       9 UNK        -0.5000 
     27 CA          1.5855  -19.9304  -41.2192 C.3       9 UNK         0.1400 
     28 CB          3.1196  -19.8745  -41.1321 C.3       9 UNK        -0.1800 
     29 N           1.1207  -18.9415  -42.1892 N.am      9 UNK        -0.5000 
     30 C           0.1527  -18.0426  -41.9650 C.2       8 UNK         0.5000 
     31 O          -0.4041  -17.8938  -40.8769 O.2       8 UNK        -0.5000 
     32 CA         -0.2444  -17.1219  -43.1387 C.3       8 UNK         0.1400 
     33 CB          0.4378  -15.7546  -42.9701 C.3       8 UNK        -0.1800 
     34 N           0.0921  -17.6601  -44.4594 N.am      8 UNK        -0.5000 
     35 C          -0.4543  -18.7550  -45.0090 C.2       7 UNK         0.5000 
     36 O          -1.3795  -19.3834  -44.5055 O.2       7 UNK        -0.5000 
     37 CA          0.1736  -19.2704  -46.3191 C.3       7 UNK         0.1400 
     38 CB         -0.6863  -18.8630  -47.5258 C.3       7 UNK        -0.1800 
     39 N           1.5661  -18.8426  -46.5185 N.am      7 UNK        -0.5000 
     40 C           2.5828  -19.1860  -45.7116 C.2       6 UNK         0.5000 
     41 O           2.4335  -19.8910  -44.7127 O.2       6 UNK        -0.5000 
     42 CA          3.9745  -18.6015  -46.0225 C.3       6 UNK         0.1400 
     43 CB          5.1144  -19.3885  -45.3423 C.3       6 UNK        -0.1800 
     44 N           4.2477  -18.4270  -47.4497 N.am      6 UNK        -0.5000 
     45 C           4.3352  -19.3635  -48.4031 C.2       5 UNK         0.5000 
     46 O           4.1034  -20.5595  -48.2210 O.2       5 UNK        -0.5000 
     47 CA          4.7493  -18.8471  -49.8006 C.3       5 UNK         0.1400 
     48 CB          5.0713  -19.9835  -50.7884 C.3       5 UNK        -0.1800 
     49 N           3.7433  -17.9536  -50.3876 N.am      5 UNK        -0.5000 
     50 C           3.5070  -16.6975  -49.9843 C.2       4 UNK         0.5000 
     51 O           4.1506  -16.1549  -49.0815 O.2       4 UNK        -0.5000 
     52 CA          2.3586  -15.9396  -50.6826 C.3       4 UNK         0.1400 
     53 CB          1.0239  -16.6929  -50.5568 C.3       4 UNK        -0.1800 
     54 N           2.1944  -14.6147  -50.0894 N.am      4 UNK        -0.5000 
     55 C           2.9000  -13.5272  -50.4279 C.2       3 UNK         0.5000 
     56 O           3.6497  -13.4748  -51.4041 O.2       3 UNK        -0.5000 
     57 CA          2.7554  -12.2911  -49.5180 C.3       3 UNK         0.1400 
     58 CB          1.8587  -11.2335  -50.1807 C.3       3 UNK        -0.1800 
     59 N           2.2170  -12.6319  -48.1970 N.am      3 UNK        -0.5000 
     60 C           2.9510  -13.1366  -47.1924 C.2       2 UNK         0.5000 
     61 O           4.1739  -13.2681  -47.2465 O.2       2 UNK        -0.5000 
     62 CA          2.2125  -13.5700  -45.9095 C.3       2 UNK         0.1400 
     63 CB          2.4036  -12.5297  -44.7954 C.3       2 UNK        -0.1800 
     64 N           0.7795  -13.7839  -46.1100 N.am      2 UNK        -0.5000 
     65 C           0.2403  -14.8621  -46.6945 C.2       1 UNK         0.5000 
     66 O           0.9101  -15.8150  -47.0946 O.2       1 UNK        -0.5000 
     67 C          -3.5668  -23.5235  -44.0332 C.2       11 UNK         0.5000 
     68 O          -4.4560  -23.3175  -44.8590 O.2       11 UNK        -0.5000 
     69 N          -3.1644  -24.7466  -43.6598 N.am      12 UNK        -0.5000 
     70 CA         -3.7023  -25.9954  -44.2008 C.3       12 UNK         0.1400 
     71 CB         -3.3118  -27.1530  -43.2691 C.3       12 UNK        -0.1800 
     72 C          -3.2338  -26.2817  -45.6403 C.2       12 UNK         0.5000 
     73 O          -3.9693  -26.9160  -46.3976 O.2       12 UNK        -0.5000 
     74 N          -2.0248  -25.8205  -45.9894 N.am      13 UNK        -0.5000 
     75 CA         -1.4422  -25.9717  -47.3224 C.3       13 UNK         0.1400 
     76 CB          0.0885  -26.0289  -47.2068 C.3       13 UNK        -0.1800 
     77 C          -1.8543  -24.8269  -48.2600 C.2       13 UNK         0.5000 
     78 O          -1.9835  -25.0547  -49.4631 O.2       13 UNK        -0.5000 
     79 N          -2.0123  -23.6155  -47.7010 N.am      14 UNK        -0.5000 
     80 CA         -2.3318  -22.3577  -48.3842 C.3       14 UNK         0.1400 
     81 CB         -3.7945  -22.3594  -48.8683 C.3       14 UNK        -0.1800 
     82 C          -1.3232  -22.0506  -49.5085 C.2       14 UNK         0.5000 
     83 O          -1.7137  -21.8231  -50.6557 O.2       14 UNK        -0.5000 
     84 N          -0.0277  -22.1533  -49.1663 N.am      15 UNK        -0.5000 
     85 CA          1.1445  -21.9946  -50.0428 C.3       15 UNK         0.1400 
     86 CB          1.2411  -20.5347  -50.5405 C.3       15 UNK        -0.1800 
     87 C           1.2208  -23.0064  -51.2123 C.2       15 UNK         0.5000 
     88 O           2.0323  -22.8186  -52.1191 O.2       15 UNK        -0.5000 
     89 N           0.3545  -24.0338  -51.1951 N.am      16 UNK        -0.5000 
     90 CA          0.0250  -24.9451  -52.2984 C.3       16 UNK         0.1400 
     91 CB          1.2387  -25.8109  -52.6952 C.3       16 UNK        -0.1800 
     92 C          -0.6227  -24.2241  -53.5055 C.2       16 UNK         0.5000 
     93 O          -0.6418  -24.7745  -54.6077 O.2       16 UNK        -0.5000 
     94 N          -1.1431  -23.0107  -53.2761 N.am      17 UNK        -0.5000 
     95 CA         -1.7384  -22.1276  -54.2769 C.3       17 UNK         0.1400 
     96 CB         -1.0582  -20.7564  -54.1590 C.3       17 UNK        -0.1800 
     97 C          -3.2609  -21.9928  -54.0934 C.2       17 UNK         0.5000 
     98 O          -3.9338  -21.5188  -55.0103 O.2       17 UNK        -0.5000 
     99 N          -3.7793  -22.4136  -52.9287 N.am      18 UNK        -0.5000 
    100 CA        -5.1906  -22.4066  -52.5382 C.3       18 UNK         0.1400 
    101 CB        -5.9942  -23.4227  -53.3811 C.3       18 UNK        -0.1800 
    102 C         -5.7660  -20.9768  -52.5382 C.2       18 UNK         0.5000 
    103 O         -5.1968  -20.1036  -51.8811 O.2       18 UNK        -0.5000 
    104 N         -6.8609  -20.7449  -53.2746 N.am      19 UNK        -0.5000 
    105 CA        -7.5820  -19.4713  -53.3640 C.3       19 UNK         0.1400 
    106 CB        -8.8052  -19.6537  -54.2744 C.3       19 UNK        -0.1800 
    107 C         -6.7323  -18.2754  -53.8389 C.2       19 UNK         0.5000 
    108 O         -7.0454  -17.1404  -53.4810 O.2       19 UNK        -0.5000 
    109 N         -5.6545  -18.5373  -54.5913 N.am      20 UNK        -0.5000 
    110 CA        -4.6933  -17.5205  -55.0230 C.3       20 UNK         0.1400 
    111 CB        -3.7918  -18.1094  -56.1171 C.3       20 UNK        -0.1800 
    112 C         -3.8521  -16.9381  -53.8668 C.2       20 UNK         0.5000 
    113 O         -3.3803  -15.8067  -53.9859 O.2       20 UNK        -0.5000 
    114 N         -3.6910  -17.7005  -52.7760 N.am      21 UNK        -0.5000 
    115 CA        -2.9984  -17.2760  -51.5585 C.3       21 UNK         0.1400 
    116 CB        -1.9883  -18.3567  -51.1574 C.3       21 UNK        -0.1800 
    117 C         -3.9681  -17.0169  -50.3944 C.2       21 UNK         0.5000 
    118 O         -3.6439  -16.2114  -49.5219 O.2       21 UNK        -0.5000 
    119 N         -5.1099  -17.7150  -50.3787 N.am      22 UNK        -0.5000 
    120 CA        -6.1125  -17.6643  -49.3046 C.3       22 UNK         0.1400 
    121 C         -7.3109  -16.7093  -49.5716 C.2       22 UNK         0.5000 
    122 N         -7.4945  -16.1766  -50.7724 N.am      22 UNK        -0.7600 
    123 O         -8.0863  -16.4256  -48.6635 O.2       22 UNK        -0.5000 
    124 C124       -6.5726  -19.0994  -48.9215 C.3       23 UNK        -0.0398 
    125 S125       -6.7348  -19.3250  -47.1215 S.3       23 UNK        -0.2404 
    126 C126       -4.9815  -19.4260  -46.6388 C.3       23 UNK        -0.0205 
    127 H127       -2.6098  -14.0470  -50.6081 H         1 UNK         0.0600 
    128 H128       -0.9745  -13.5587  -51.0682 H         1 UNK         0.0600 
    129 H129       -2.1669  -12.3423  -50.5985 H         1 UNK         0.0600 
    130 H130       -2.2556  -15.2472  -48.7237 H         1 UNK         0.3000 
    131 H131       -1.6112  -15.9078  -46.7119 H         1 UNK         0.0600 
    132 H132       -1.7247  -14.2449  -44.8316 H         1 UNK         0.0800 
    133 H133       -1.8180  -12.9413  -45.9857 H         1 UNK         0.0800 
    134 H134       -5.2562  -14.5762  -44.0387 H         1 UNK         0.0800 
    135 H135       -3.5846  -14.5741  -43.5607 H         1 UNK         0.0800 
    136 H136       -4.6032  -16.7486  -46.4278 H         1 UNK         0.1150 
    137 H137       -4.8650  -20.3024  -44.0779 H         1 UNK         0.1150 
    138 H138       -4.0941  -16.5433  -42.1722 H         1 UNK         0.1150 
    139 H139       -5.3387  -19.7326  -41.4550 H         1 UNK         0.0800 
    140 H140       -4.3546  -18.4460  -40.8235 H         1 UNK         0.0800 
    141 H141       -4.6726  -21.7851  -42.3053 H         1 UNK         0.0800 
    142 H142       -3.5188  -22.6469  -41.3331 H         1 UNK         0.0800 
    143 H143       -2.8834  -21.5128  -44.1082 H         1 UNK         0.0600 
    144 H144       -1.1111  -22.3894  -42.1678 H         1 UNK         0.3000 
    145 H145        1.0040  -23.7575  -42.7639 H         1 UNK         0.0600 
    146 H146        2.9857  -23.3057  -44.2407 H         1 UNK         0.0600 
    147 H147        1.7702  -24.2854  -45.0394 H         1 UNK         0.0600 
    148 H148        1.9222  -22.5762  -45.4405 H         1 UNK         0.0600 
    149 H149        1.8155  -21.0387  -43.5172 H         1 UNK         0.3000 
    150 H150        1.1837  -19.7196  -40.2260 H         1 UNK         0.0600 
    151 H151        3.5908  -20.0693  -42.0963 H         1 UNK         0.0600 
    152 H152        3.4973  -20.6147  -40.4256 H         1 UNK         0.0600 
    153 H153        3.4563  -18.8962  -40.7892 H         1 UNK         0.0600 
    154 H154        1.5034  -19.0207  -43.1238 H         1 UNK         0.3000 
    155 H155       -1.3261  -16.9813  -43.0956 H         1 UNK         0.0600 
    156 H156        1.5225  -15.8324  -43.0538 H         1 UNK         0.0600 
    157 H157        0.2152  -15.3234  -41.9930 H         1 UNK         0.0600 
    158 H158        0.0962  -15.0413  -43.7150 H         1 UNK         0.0600 
    159 H159        0.8389  -17.2048  -44.9640 H         1 UNK         0.3000 
    160 H160        0.1707  -20.3612  -46.2605 H         1 UNK         0.0600 
    161 H161       -0.6546  -17.7915  -47.7087 H         1 UNK         0.0600 
    162 H162       -1.7318  -19.1335  -47.3733 H         1 UNK         0.0600 
    163 H163       -0.3553  -19.3624  -48.4325 H         1 UNK         0.0600 
    164 H164        1.7429  -18.2003  -47.2780 H         1 UNK         0.3000 
    165 H165        3.9733  -17.5976  -45.5958 H         1 UNK         0.0600 
    166 H166        6.0860  -18.9469  -45.5635 H         1 UNK         0.0600 
    167 H167        5.1362  -20.4293  -45.6672 H         1 UNK         0.0600 
    168 H168        5.0002  -19.3878  -44.2577 H         1 UNK         0.0600 
    169 H169        4.3813  -17.4659  -47.7575 H         1 UNK         0.3000 
    170 H170        5.6708  -18.2762  -49.6664 H         1 UNK         0.0600 
    171 H171        5.8969  -20.5921  -50.4174 H         1 UNK         0.0600 
    172 H172        4.2261  -20.6522  -50.9422 H         1 UNK         0.0600 
    173 H173        5.3720  -19.5909  -51.7598 H         1 UNK         0.0600 
    174 H174        3.1786  -18.3445  -51.1267 H         1 UNK         0.3000 
    175 H175        2.6066  -15.8398  -51.7412 H         1 UNK         0.0600 
    176 H176        0.7859  -16.9251  -49.5192 H         1 UNK         0.0600 
    177 H177        0.2002  -16.1061  -50.9639 H         1 UNK         0.0600 
    178 H178        1.0486  -17.6324  -51.1081 H         1 UNK         0.0600 
    179 H179        1.6749  -14.5833  -49.2244 H         1 UNK         0.3000 
    180 H180        3.7488  -11.8551  -49.3928 H         1 UNK         0.0600 
    181 H181        0.8707  -11.6286  -50.4163 H         1 UNK         0.0600 
    182 H182        2.2986  -10.8834  -51.1152 H         1 UNK         0.0600 
    183 H183        1.7290  -10.3638  -49.5365 H         1 UNK         0.0600 
    184 H184        1.2098  -12.5456  -48.0872 H         1 UNK         0.3000 
    185 H185        2.6608  -14.5088  -45.5767 H         1 UNK         0.0600 
    186 H186        1.9423  -12.8598  -43.8643 H         1 UNK         0.0600 
    187 H187        3.4625  -12.3652  -44.5911 H         1 UNK         0.0600 
    188 H188        1.9678  -11.5668  -45.0648 H         1 UNK         0.0600 
    189 H189        0.1780  -13.0117  -45.8629 H         1 UNK         0.3000 
    190 H190       -2.4307  -24.8250  -42.9707 H         1 UNK         0.3000 
    191 H191       -4.7921  -25.9238  -44.2155 H         1 UNK         0.0600 
    192 H192       -3.7190  -28.0986  -43.6297 H         1 UNK         0.0600 
    193 H193       -3.6994  -26.9971  -42.2621 H         1 UNK         0.0600 
    194 H194       -2.2293  -27.2673  -43.1993 H         1 UNK         0.0600 
    195 H195       -1.5050  -25.2635  -45.3260 H         1 UNK         0.3000 
    196 H196       -1.7814  -26.9105  -47.7656 H         1 UNK         0.0600 
    197 H197        0.4980  -25.0945  -46.8239 H         1 UNK         0.0600 
    198 H198        0.4061  -26.8339  -46.5439 H         1 UNK         0.0600 
    199 H199        0.5453  -26.2098  -48.1808 H         1 UNK         0.0600 
    200 H200       -1.7894  -23.5230  -46.7132 H         1 UNK         0.3000 
    201 H201       -2.2269  -21.5630  -47.6446 H         1 UNK         0.0600 
    202 H202       -3.9803  -23.1661  -49.5765 H         1 UNK         0.0600 
    203 H203       -4.0449  -21.4204  -49.3632 H         1 UNK         0.0600 
    204 H204       -4.4839  -22.4845  -48.0333 H         1 UNK         0.0600 
    205 H205        0.1823  -22.4044  -48.2103 H         1 UNK         0.3000 
    206 H206        2.0235  -22.1922  -49.4276 H         1 UNK         0.0600 
    207 H207        1.4574  -19.8576  -49.7156 H         1 UNK         0.0600 
    208 H208        2.0353  -20.4041  -51.2729 H         1 UNK         0.0600 
    209 H209        0.3221  -20.2026  -51.0208 H         1 UNK         0.0600 
    210 H210       -0.2815  -24.0947  -50.4091 H         1 UNK         0.3000 
    211 H211       -0.7408  -25.6175  -51.9097 H         1 UNK         0.0600 
    212 H212        0.9436  -26.6027  -53.3844 H         1 UNK         0.0600 
    213 H213        1.6827  -26.2907  -51.8231 H         1 UNK         0.0600 
    214 H214        2.0141  -25.2249  -53.1887 H         1 UNK         0.0600 
    215 H215       -1.1111  -22.6414  -52.3303 H         1 UNK         0.3000 
    216 H216       -1.5614  -22.5140  -55.2825 H         1 UNK         0.0600 
    217 H217       -1.2529  -20.3047  -53.1878 H         1 UNK         0.0600 
    218 H218       -1.4140  -20.0690  -54.9251 H         1 UNK         0.0600 
    219 H219        0.0224  -20.8407  -54.2765 H         1 UNK         0.0600 
    220 H220       -3.1299  -22.6890  -52.2039 H         1 UNK         0.3000 
    221 H221       -5.2284  -22.7422  -51.5025 H         1 UNK         0.0600 
    222 H222       -5.5539  -24.4174  -53.3094 H         1 UNK         0.0600 
    223 H223       -6.0246  -23.1543  -54.4377 H         1 UNK         0.0600 
    224 H224       -7.0223  -23.5057  -53.0262 H         1 UNK         0.0600 
    225 H225       -7.2447  -21.5121  -53.8070 H         1 UNK         0.3000 
    226 H226       -7.9376  -19.2301  -52.3601 H         1 UNK         0.0600 
    227 H227       -8.5134  -19.9336  -55.2874 H         1 UNK         0.0600 
    228 H228       -9.4725  -20.4256  -53.8905 H         1 UNK         0.0600 
    229 H229       -9.3840  -18.7314  -54.3422 H         1 UNK         0.0600 
    230 H230       -5.4431  -19.4981  -54.8273 H         1 UNK         0.3000 
    231 H231       -5.2534  -16.6921  -55.4622 H         1 UNK         0.0600 
    232 H232       -3.2419  -18.9772  -55.7576 H         1 UNK         0.0600 
    233 H233       -3.0622  -17.3759  -56.4628 H         1 UNK         0.0600 
    234 H234       -4.3759  -18.4202  -56.9834 H         1 UNK         0.0600 
    235 H235       -4.1303  -18.6138  -52.7466 H         1 UNK         0.3000 
    236 H236       -2.4457  -16.3503  -51.7305 H         1 UNK         0.0600 
    237 H237       -1.1942  -18.4350  -51.8980 H         1 UNK         0.0600 
    238 H238       -1.5175  -18.1206  -50.2037 H         1 UNK         0.0600 
    239 H239       -2.4636  -19.3327  -51.0583 H         1 UNK         0.0600 
    240 H240       -5.2541  -18.4282  -51.0867 H         1 UNK         0.3000 
    241 H241       -5.6242  -17.2293  -48.4327 H         1 UNK         0.0600 
    242 H242       -8.2725  -15.5524  -50.9130 H         1 UNK         0.3800 
    243 H243       -6.9254  -16.4365  -51.5684 H         1 UNK         0.3800 
    244 H244       -5.8588  -19.8462  -49.2701 H         1 UNK         0.0800 
    245 H245       -7.5164  -19.3618  -49.4027 H         1 UNK         0.0800 
    246 H246       -4.3348  -19.0639  -47.4394 H         1 UNK         0.0800 
    247 H247       -4.7128  -20.4718  -46.4808 H         1 UNK         0.0800 
@<TRIPOS>BOND
     1    1    2 1    
     2    1  127 1    
     3    1  128 1    
     4    1  129 1    
     5    2    3 2    
     6    2    4 am   BACKBONE|DICT|INTERRES
     7    4    5 1    
     8    4  130 1    
     9    5    6 1    
    10    5   65 1    
    11    5  131 1    
    12    6    7 1    
    13    6  132 1    
    14    6  133 1    
    15    7    8 1    
    16    8    9 1    
    17    8  134 1    
    18    8  135 1    
    19    9   10 ar   
    20    9   14 ar   
    21   10   11 ar   
    22   10  136 1    
    23   11   12 ar   
    24   11  126 1    
    25   12   13 ar   
    26   12  137 1    
    27   13   14 ar   
    28   13   15 1    
    29   14  138 1    
    30   15   16 1    
    31   15  139 1    
    32   15  140 1    
    33   16   17 1    
    34   17   18 1    
    35   17  141 1    
    36   17  142 1    
    37   18   19 1    
    38   18   67 1    
    39   18  143 1    
    40   19   20 am   BACKBONE|DICT|INTERRES
    41   19  144 1    
    42   20   21 2    
    43   20   22 1    
    44   22   23 1    
    45   22   24 1    
    46   22  145 1    
    47   23  146 1    
    48   23  147 1    
    49   23  148 1    
    50   24   25 am   BACKBONE|DICT|INTERRES
    51   24  149 1    
    52   25   26 2    
    53   25   27 1    
    54   27   28 1    
    55   27   29 1    
    56   27  150 1    
    57   28  151 1    
    58   28  152 1    
    59   28  153 1    
    60   29   30 am   BACKBONE|DICT|INTERRES
    61   29  154 1    
    62   30   31 2    
    63   30   32 1    
    64   32   33 1    
    65   32   34 1    
    66   32  155 1    
    67   33  156 1    
    68   33  157 1    
    69   33  158 1    
    70   34   35 am   BACKBONE|DICT|INTERRES
    71   34  159 1    
    72   35   36 2    
    73   35   37 1    
    74   37   38 1    
    75   37   39 1    
    76   37  160 1    
    77   38  161 1    
    78   38  162 1    
    79   38  163 1    
    80   39   40 am   BACKBONE|DICT|INTERRES
    81   39  164 1    
    82   40   41 2    
    83   40   42 1    
    84   42   43 1    
    85   42   44 1    
    86   42  165 1    
    87   43  166 1    
    88   43  167 1    
    89   43  168 1    
    90   44   45 am   BACKBONE|DICT|INTERRES
    91   44  169 1    
    92   45   46 2    
    93   45   47 1    
    94   47   48 1    
    95   47   49 1    
    96   47  170 1    
    97   48  171 1    
    98   48  172 1    
    99   48  173 1    
   100   49   50 am   BACKBONE|DICT|INTERRES
   101   49  174 1    
   102   50   51 2    
   103   50   52 1    
   104   52   53 1    
   105   52   54 1    
   106   52  175 1    
   107   53  176 1    
   108   53  177 1    
   109   53  178 1    
   110   54   55 am   BACKBONE|DICT|INTERRES
   111   54  179 1    
   112   55   56 2    
   113   55   57 1    
   114   57   58 1    
   115   57   59 1    
   116   57  180 1    
   117   58  181 1    
   118   58  182 1    
   119   58  183 1    
   120   59   60 am   BACKBONE|DICT|INTERRES
   121   59  184 1    
   122   60   61 2    
   123   60   62 1    
   124   62   63 1    
   125   62   64 1    
   126   62  185 1    
   127   63  186 1    
   128   63  187 1    
   129   63  188 1    
   130   64   65 am   BACKBONE|DICT|INTERRES
   131   64  189 1    
   132   65   66 2    
   133   67   68 2    
   134   67   69 am   BACKBONE|DICT|INTERRES
   135   69   70 1    
   136   69  190 1    
   137   70   71 1    
   138   70   72 1    
   139   70  191 1    
   140   71  192 1    
   141   71  193 1    
   142   71  194 1    
   143   72   73 2    
   144   72   74 am   BACKBONE|DICT|INTERRES
   145   74   75 1    
   146   74  195 1    
   147   75   76 1    
   148   75   77 1    
   149   75  196 1    
   150   76  197 1    
   151   76  198 1    
   152   76  199 1    
   153   77   78 2    
   154   77   79 am   BACKBONE|DICT|INTERRES
   155   79   80 1    
   156   79  200 1    
   157   80   81 1    
   158   80   82 1    
   159   80  201 1    
   160   81  202 1    
   161   81  203 1    
   162   81  204 1    
   163   82   83 2    
   164   82   84 am   BACKBONE|DICT|INTERRES
   165   84   85 1    
   166   84  205 1    
   167   85   86 1    
   168   85   87 1    
   169   85  206 1    
   170   86  207 1    
   171   86  208 1    
   172   86  209 1    
   173   87   88 2    
   174   87   89 am   BACKBONE|DICT|INTERRES
   175   89   90 1    
   176   89  210 1    
   177   90   91 1    
   178   90   92 1    
   179   90  211 1    
   180   91  212 1    
   181   91  213 1    
   182   91  214 1    
   183   92   93 2    
   184   92   94 am   BACKBONE|DICT|INTERRES
   185   94   95 1    
   186   94  215 1    
   187   95   96 1    
   188   95   97 1    
   189   95  216 1    
   190   96  217 1    
   191   96  218 1    
   192   96  219 1    
   193   97   98 2    
   194   97   99 am   BACKBONE|DICT|INTERRES
   195   99  100 1    
   196   99  220 1    
   197  100  101 1    
   198  100  102 1    
   199  100  221 1    
   200  101  222 1    
   201  101  223 1    
   202  101  224 1    
   203  102  103 2    
   204  102  104 am   BACKBONE|DICT|INTERRES
   205  104  105 1    
   206  104  225 1    
   207  105  106 1    
   208  105  107 1    
   209  105  226 1    
   210  106  227 1    
   211  106  228 1    
   212  106  229 1    
   213  107  108 2    
   214  107  109 am   BACKBONE|DICT|INTERRES
   215  109  110 1    
   216  109  230 1    
   217  110  111 1    
   218  110  112 1    
   219  110  231 1    
   220  111  232 1    
   221  111  233 1    
   222  111  234 1    
   223  112  113 2    
   224  112  114 am   BACKBONE|DICT|INTERRES
   225  114  115 1    
   226  114  235 1    
   227  115  116 1    
   228  115  117 1    
   229  115  236 1    
   230  116  237 1    
   231  116  238 1    
   232  116  239 1    
   233  117  118 2    
   234  117  119 am   BACKBONE|DICT|INTERRES
   235  119  120 1    
   236  119  240 1    
   237  120  121 1    
   238  120  124 1    
   239  120  241 1    
   240  121  122 am   BACKBONE|DICT|INTERRES
   241  121  123 2    
   242  122  242 1    
   243  122  243 1    
   244  124  125 1    
   245  124  244 1    
   246  124  245 1    
   247  125  126 1    
   248  126  246 1    
   249  126  247 1    
@<TRIPOS>SUBSTRUCTURE
     1 UNK         1 GROUP             0       ****    0 ROOT    
