@<TRIPOS>MOLECULE
3R540
247   249    1
SMALL
USER_CHARGES


@<TRIPOS>ATOM
      1 CA         -0.2638  -12.8364  -48.4517 C.3       0 UNK        -0.1800 
      2 C           1.2584  -12.8573  -48.4378 C.2       0 UNK         0.5000 
      3 O           1.8837  -11.8065  -48.2943 O.2       0 UNK        -0.5000 
      4 N           1.8503  -14.0452  -48.5952 N.am      1 UNK        -0.5000 
      5 CA          3.2994  -14.2630  -48.6147 C.3       1 UNK         0.1400 
      6 C6          3.6889  -15.3997  -49.5910 C.3       23 UNK        -0.0398 
      7 S7          3.1812  -15.0095  -51.3016 S.3       23 UNK        -0.2404 
      8 C8          2.8759  -16.6642  -52.0032 C.3       23 UNK        -0.0205 
      9 C9          1.7781  -17.4597  -51.3015 C.ar      23 UNK        -0.0193 
     10 C10         0.5649  -16.8669  -50.9289 C.ar      23 UNK        -0.1150 
     11 C11        -0.4392  -17.6269  -50.3200 C.ar      23 UNK        -0.0193 
     12 C12        -0.2275  -18.9868  -50.0875 C.ar      23 UNK        -0.1150 
     13 C13         0.9697  -19.5945  -50.4726 C.ar      23 UNK        -0.0193 
     14 C14         1.9698  -18.8251  -51.0701 C.ar      23 UNK        -0.1150 
     15 C15         1.1569  -21.0935  -50.3041 C.3       23 UNK        -0.0205 
     16 S16         2.1773  -21.5224  -48.8600 S.3       23 UNK        -0.2404 
     17 C17         1.1387  -20.9597  -47.4738 C.3       23 UNK        -0.0398 
     18 CA          0.2516  -22.0600  -46.8425 C.3       11 UNK         0.1400 
     19 N          -0.1553  -21.6724  -45.4898 N.am      11 UNK        -0.5000 
     20 C          -0.7921  -22.4556  -44.6103 C.2       10 UNK         0.5000 
     21 O          -1.0833  -23.6307  -44.8267 O.2       10 UNK        -0.5000 
     22 CA         -1.2158  -21.7982  -43.2831 C.3       10 UNK         0.1400 
     23 CB         -0.0313  -21.7137  -42.3093 C.3       10 UNK        -0.1800 
     24 N          -1.7968  -20.4670  -43.4731 N.am      10 UNK        -0.5000 
     25 C          -2.9314  -20.2312  -44.1483 C.2       9 UNK         0.5000 
     26 O          -3.6254  -21.1155  -44.6452 O.2       9 UNK        -0.5000 
     27 CA         -3.3417  -18.7637  -44.3478 C.3       9 UNK         0.1400 
     28 CB         -4.0261  -18.2118  -43.0885 C.3       9 UNK        -0.1800 
     29 N          -2.2129  -17.9111  -44.7112 N.am      9 UNK        -0.5000 
     30 C          -1.4831  -18.0371  -45.8283 C.2       8 UNK         0.5000 
     31 O          -1.7023  -18.8747  -46.7032 O.2       8 UNK        -0.5000 
     32 CA         -0.2638  -17.1078  -45.9547 C.3       8 UNK         0.1400 
     33 CB         -0.6881  -15.6807  -46.3305 C.3       8 UNK        -0.1800 
     34 N           0.5218  -17.0690  -44.7227 N.am      8 UNK        -0.5000 
     35 C           1.1626  -18.1192  -44.1933 C.2       7 UNK         0.5000 
     36 O           1.1765  -19.2408  -44.6966 O.2       7 UNK        -0.5000 
     37 CA          1.8728  -17.8870  -42.8512 C.3       7 UNK         0.1400 
     38 CB          3.2774  -17.3185  -43.0832 C.3       7 UNK        -0.1800 
     39 N           1.1138  -17.0067  -41.9599 N.am      7 UNK        -0.5000 
     40 C          -0.0531  -17.3534  -41.3991 C.2       6 UNK         0.5000 
     41 O          -0.6065  -18.4379  -41.5881 O.2       6 UNK        -0.5000 
     42 CA         -0.7333  -16.3024  -40.5039 C.3       6 UNK         0.1400 
     43 CB          0.0328  -16.1282  -39.1833 C.3       6 UNK        -0.1800 
     44 N          -0.9114  -14.9941  -41.1399 N.am      6 UNK        -0.5000 
     45 C          -1.5712  -14.7686  -42.2848 C.2       5 UNK         0.5000 
     46 O          -2.0114  -15.6604  -43.0060 O.2       5 UNK        -0.5000 
     47 CA         -1.7814  -13.3042  -42.7142 C.3       5 UNK         0.1400 
     48 CB         -3.2444  -12.8968  -42.4843 C.3       5 UNK        -0.1800 
     49 N          -0.9165  -12.3551  -42.0068 N.am      5 UNK        -0.5000 
     50 C           0.3714  -12.0801  -42.2568 C.2       4 UNK         0.5000 
     51 O           0.9864  -11.2553  -41.5794 O.2       4 UNK        -0.5000 
     52 CA          1.0920  -12.7719  -43.4383 C.3       4 UNK         0.1400 
     53 CB          0.9250  -11.9587  -44.7294 C.3       4 UNK        -0.1800 
     54 N           2.5187  -12.9338  -43.1839 N.am      4 UNK        -0.5000 
     55 C           3.0579  -13.7211  -42.2490 C.2       3 UNK         0.5000 
     56 O           2.3965  -14.4699  -41.5259 O.2       3 UNK        -0.5000 
     57 CA          4.5981  -13.6989  -42.1644 C.3       3 UNK         0.1400 
     58 CB          5.1368  -14.4388  -40.9272 C.3       3 UNK        -0.1800 
     59 N           5.2013  -14.2754  -43.3685 N.am      3 UNK        -0.5000 
     60 C           5.2875  -13.6710  -44.5617 C.2       2 UNK         0.5000 
     61 O           4.9321  -12.5052  -44.7541 O.2       2 UNK        -0.5000 
     62 CA          5.8725  -14.4829  -45.7386 C.3       2 UNK         0.1400 
     63 CB          6.0509  -15.9914  -45.4523 C.3       2 UNK        -0.1800 
     64 N           5.1150  -14.2820  -46.9794 N.am      2 UNK        -0.5000 
     65 C           3.8199  -14.5613  -47.1942 C.2       1 UNK         0.5000 
     66 O           3.0683  -15.0600  -46.3518 O.2       1 UNK        -0.5000 
     67 C          -0.9665  -22.4150  -47.7263 C.2       11 UNK         0.5000 
     68 O          -0.9483  -23.4346  -48.4202 O.2       11 UNK        -0.5000 
     69 N          -2.0218  -21.5908  -47.6572 N.am      12 UNK        -0.5000 
     70 CA         -3.2948  -21.8217  -48.3379 C.3       12 UNK         0.1400 
     71 CB         -4.1646  -20.5598  -48.2501 C.3       12 UNK        -0.1800 
     72 C          -4.0412  -23.0571  -47.7984 C.2       12 UNK         0.5000 
     73 O          -4.5369  -23.8521  -48.5949 O.2       12 UNK        -0.5000 
     74 N          -4.0697  -23.2317  -46.4686 N.am      13 UNK        -0.5000 
     75 CA         -4.6655  -24.3862  -45.7858 C.3       13 UNK         0.1400 
     76 CB         -4.7017  -24.1320  -44.2716 C.3       13 UNK        -0.1800 
     77 C          -3.9478  -25.7146  -46.0930 C.2       13 UNK         0.5000 
     78 O          -4.6026  -26.7543  -46.1722 O.2       13 UNK        -0.5000 
     79 N          -2.6266  -25.6509  -46.3078 N.am      14 UNK        -0.5000 
     80 CA         -1.7900  -26.7580  -46.7784 C.3       14 UNK         0.1400 
     81 CB         -0.3168  -26.4217  -46.4942 C.3       14 UNK        -0.1800 
     82 C          -1.9945  -27.0964  -48.2722 C.2       14 UNK         0.5000 
     83 O          -1.4248  -28.0804  -48.7453 O.2       14 UNK        -0.5000 
     84 N          -2.7877  -26.2816  -48.9846 N.am      15 UNK        -0.5000 
     85 CA         -3.1469  -26.3760  -50.4014 C.3       15 UNK         0.1400 
     86 CB         -3.8974  -27.6878  -50.7095 C.3       15 UNK        -0.1800 
     87 C          -1.9689  -26.1168  -51.3598 C.2       15 UNK         0.5000 
     88 O          -2.0353  -26.5016  -52.5286 O.2       15 UNK        -0.5000 
     89 N          -0.9253  -25.4266  -50.8772 N.am      16 UNK        -0.5000 
     90 CA          0.2476  -25.0481  -51.6697 C.3       16 UNK         0.1400 
     91 CB          1.4064  -24.7103  -50.7231 C.3       16 UNK        -0.1800 
     92 C          -0.0401  -23.9003  -52.6604 C.2       16 UNK         0.5000 
     93 O           0.7035  -23.7372  -53.6276 O.2       16 UNK        -0.5000 
     94 N          -1.1345  -23.1633  -52.4278 N.am      17 UNK        -0.5000 
     95 CA         -1.7236  -22.1909  -53.3497 C.3       17 UNK         0.1400 
     96 CB         -1.8034  -20.8147  -52.6649 C.3       17 UNK        -0.1800 
     97 C          -3.1003  -22.6828  -53.8371 C.2       17 UNK         0.5000 
     98 O          -4.0022  -21.8693  -54.0394 O.2       17 UNK        -0.5000 
     99 N          -3.2523  -24.0077  -53.9947 N.am      18 UNK        -0.5000 
    100 CA        -4.4760  -24.7092  -54.3976 C.3       18 UNK         0.1400 
    101 CB        -4.7847  -24.4337  -55.8869 C.3       18 UNK        -0.1800 
    102 C         -5.6471  -24.3973  -53.4404 C.2       18 UNK         0.5000 
    103 O         -5.4462  -24.3972  -52.2249 O.2       18 UNK        -0.5000 
    104 N         -6.8332  -24.0941  -53.9808 N.am      19 UNK        -0.5000 
    105 CA        -8.0215  -23.6714  -53.2354 C.3       19 UNK         0.1400 
    106 CB        -9.2706  -24.0258  -54.0632 C.3       19 UNK        -0.1800 
    107 C         -7.9612  -22.1742  -52.8526 C.2       19 UNK         0.5000 
    108 O         -8.9062  -21.4313  -53.1242 O.2       19 UNK        -0.5000 
    109 N         -6.8391  -21.7620  -52.2434 N.am      20 UNK        -0.5000 
    110 CA        -6.4944  -20.4006  -51.8183 C.3       20 UNK         0.1400 
    111 CB        -7.3781  -19.9640  -50.6318 C.3       20 UNK        -0.1800 
    112 C         -6.5096  -19.3909  -52.9863 C.2       20 UNK         0.5000 
    113 O         -7.0962  -18.3114  -52.8764 O.2       20 UNK        -0.5000 
    114 N         -5.8470  -19.7601  -54.0919 N.am      21 UNK        -0.5000 
    115 CA        -5.7532  -18.9843  -55.3340 C.3       21 UNK         0.1400 
    116 CB        -5.0715  -19.8445  -56.4092 C.3       21 UNK        -0.1800 
    117 C         -5.0250  -17.6337  -55.1777 C.2       21 UNK         0.5000 
    118 O         -5.2028  -16.7469  -56.0138 O.2       21 UNK        -0.5000 
    119 N         -4.2438  -17.4954  -54.1004 N.am      22 UNK        -0.5000 
    120 CA        -3.6483  -16.2389  -53.6297 C.3       22 UNK         0.1400 
    121 C         -4.6684  -15.1863  -53.0952 C.2       22 UNK         0.5000 
    122 N         -5.9208  -15.5392  -52.8235 N.am      22 UNK        -0.7600 
    123 O         -4.3161  -14.0207  -52.9366 O.2       22 UNK        -0.5000 
    124 C124       -2.5171  -16.5129  -52.6066 C.3       23 UNK        -0.0398 
    125 S125       -3.0737  -17.4375  -51.1289 S.3       23 UNK        -0.2404 
    126 C126       -1.7699  -16.9990  -49.9389 C.3       23 UNK        -0.0205 
    127 H127       -0.6479  -12.6633  -47.4466 H         1 UNK         0.0600 
    128 H128       -0.6765  -13.7749  -48.8215 H         1 UNK         0.0600 
    129 H129       -0.6232  -12.0354  -49.0977 H         1 UNK         0.0600 
    130 H130        1.2894  -14.8799  -48.6704 H         1 UNK         0.3000 
    131 H131        3.7907  -13.3500  -48.9589 H         1 UNK         0.0600 
    132 H132        4.7686  -15.5590  -49.5931 H         1 UNK         0.0800 
    133 H133        3.2404  -16.3428  -49.2742 H         1 UNK         0.0800 
    134 H134        3.8166  -17.2170  -51.9915 H         1 UNK         0.0800 
    135 H135        2.5998  -16.5508  -53.0521 H         1 UNK         0.0800 
    136 H136        0.3971  -15.8178  -51.1267 H         1 UNK         0.1150 
    137 H137       -1.0126  -19.5767  -49.6350 H         1 UNK         0.1150 
    138 H138        2.8920  -19.3000  -51.3748 H         1 UNK         0.1150 
    139 H139        1.6342  -21.4966  -51.1985 H         1 UNK         0.0800 
    140 H140        0.1900  -21.5920  -50.2360 H         1 UNK         0.0800 
    141 H141        0.5544  -20.0816  -47.7449 H         1 UNK         0.0800 
    142 H142        1.8511  -20.6066  -46.7286 H         1 UNK         0.0800 
    143 H143        0.8529  -22.9658  -46.7406 H         1 UNK         0.0600 
    144 H144        0.0858  -20.7262  -45.2063 H         1 UNK         0.3000 
    145 H145       -1.9802  -22.4320  -42.8291 H         1 UNK         0.0600 
    146 H146        0.3984  -22.7003  -42.1312 H         1 UNK         0.0600 
    147 H147       -0.3431  -21.3151  -41.3438 H         1 UNK         0.0600 
    148 H148        0.7631  -21.0739  -42.6935 H         1 UNK         0.0600 
    149 H149       -1.3012  -19.6857  -43.0558 H         1 UNK         0.3000 
    150 H150       -4.0609  -18.7285  -45.1684 H         1 UNK         0.0600 
    151 H151       -3.3418  -18.1781  -42.2400 H         1 UNK         0.0600 
    152 H152       -4.8772  -18.8308  -42.8022 H         1 UNK         0.0600 
    153 H153       -4.3997  -17.2014  -43.2553 H         1 UNK         0.0600 
    154 H154       -1.9811  -17.1708  -44.0522 H         1 UNK         0.3000 
    155 H155        0.3764  -17.4961  -46.7500 H         1 UNK         0.0600 
    156 H156        0.1789  -15.0269  -46.4190 H         1 UNK         0.0600 
    157 H157       -1.3579  -15.2446  -45.5896 H         1 UNK         0.0600 
    158 H158       -1.2099  -15.6692  -47.2870 H         1 UNK         0.0600 
    159 H159        0.5465  -16.1946  -44.2227 H         1 UNK         0.3000 
    160 H160        1.9794  -18.8553  -42.3577 H         1 UNK         0.0600 
    161 H161        3.2378  -16.3617  -43.6038 H         1 UNK         0.0600 
    162 H162        3.8747  -17.9989  -43.6912 H         1 UNK         0.0600 
    163 H163        3.8046  -17.1774  -42.1409 H         1 UNK         0.0600 
    164 H164        1.5138  -16.0935  -41.7534 H         1 UNK         0.3000 
    165 H165       -1.7294  -16.6808  -40.2652 H         1 UNK         0.0600 
    166 H166       -0.5133  -15.4854  -38.4927 H         1 UNK         0.0600 
    167 H167        0.1784  -17.0880  -38.6857 H         1 UNK         0.0600 
    168 H168        1.0180  -15.6878  -39.3427 H         1 UNK         0.0600 
    169 H169       -0.5536  -14.1982  -40.6322 H         1 UNK         0.3000 
    170 H170       -1.5935  -13.2442  -43.7870 H         1 UNK         0.0600 
    171 H171       -3.4334  -11.8850  -42.8435 H         1 UNK         0.0600 
    172 H172       -3.5128  -12.9342  -41.4277 H         1 UNK         0.0600 
    173 H173       -3.9251  -13.5610  -43.0189 H         1 UNK         0.0600 
    174 H174       -1.3574  -11.8667  -41.2412 H         1 UNK         0.3000 
    175 H175        0.6915  -13.7718  -43.6010 H         1 UNK         0.0600 
    176 H176       -0.1243  -11.8505  -45.0037 H         1 UNK         0.0600 
    177 H177        1.3427  -10.9560  -44.6299 H         1 UNK         0.0600 
    178 H178        1.4313  -12.4485  -45.5603 H         1 UNK         0.0600 
    179 H179        3.1519  -12.4000  -43.7692 H         1 UNK         0.3000 
    180 H180        4.9049  -12.6541  -42.0808 H         1 UNK         0.0600 
    181 H181        4.8923  -15.5004  -40.9460 H         1 UNK         0.0600 
    182 H182        4.7153  -14.0226  -40.0113 H         1 UNK         0.0600 
    183 H183        6.2206  -14.3468  -40.8552 H         1 UNK         0.0600 
    184 H184        5.5006  -15.2366  -43.2987 H         1 UNK         0.3000 
    185 H185        6.8648  -14.0669  -45.9181 H         1 UNK         0.0600 
    186 H186        6.7161  -16.1636  -44.6055 H         1 UNK         0.0600 
    187 H187        5.1017  -16.4827  -45.2411 H         1 UNK         0.0600 
    188 H188        6.4956  -16.4973  -46.3093 H         1 UNK         0.0600 
    189 H189        5.6363  -13.8422  -47.7248 H         1 UNK         0.3000 
    190 H190       -1.9516  -20.7426  -47.1008 H         1 UNK         0.3000 
    191 H191       -3.0787  -22.0038  -49.3929 H         1 UNK         0.0600 
    192 H192       -3.6719  -19.7087  -48.7212 H         1 UNK         0.0600 
    193 H193       -5.1175  -20.7070  -48.7581 H         1 UNK         0.0600 
    194 H194       -4.3806  -20.2903  -47.2161 H         1 UNK         0.0600 
    195 H195       -3.6905  -22.5020  -45.8688 H         1 UNK         0.3000 
    196 H196       -5.6948  -24.4822  -46.1370 H         1 UNK         0.0600 
    197 H197       -5.1532  -24.9729  -43.7437 H         1 UNK         0.0600 
    198 H198       -5.2915  -23.2465  -44.0347 H         1 UNK         0.0600 
    199 H199       -3.7007  -23.9874  -43.8648 H         1 UNK         0.0600 
    200 H200       -2.1528  -24.7692  -46.1396 H         1 UNK         0.3000 
    201 H201       -2.0503  -27.6511  -46.2070 H         1 UNK         0.0600 
    202 H202        0.3383  -27.2431  -46.7868 H         1 UNK         0.0600 
    203 H203       -0.1520  -26.2400  -45.4320 H         1 UNK         0.0600 
    204 H204        0.0068  -25.5348  -47.0390 H         1 UNK         0.0600 
    205 H205       -3.2022  -25.4919  -48.5034 H         1 UNK         0.3000 
    206 H206       -3.8458  -25.5589  -50.5729 H         1 UNK         0.0600 
    207 H207       -4.7248  -27.8399  -50.0165 H         1 UNK         0.0600 
    208 H208       -4.3191  -27.6676  -51.7151 H         1 UNK         0.0600 
    209 H209       -3.2415  -28.5564  -50.6486 H         1 UNK         0.0600 
    210 H210       -0.9532  -25.0994  -49.9181 H         1 UNK         0.3000 
    211 H211        0.5517  -25.9104  -52.2670 H         1 UNK         0.0600 
    212 H212        1.1203  -23.9502  -50.0001 H         1 UNK         0.0600 
    213 H213        2.2742  -24.3401  -51.2705 H         1 UNK         0.0600 
    214 H214        1.7241  -25.5911  -50.1650 H         1 UNK         0.0600 
    215 H215       -1.6828  -23.3873  -51.6099 H         1 UNK         0.3000 
    216 H216       -1.1056  -22.0836  -54.2431 H         1 UNK         0.0600 
    217 H217       -2.2766  -20.0722  -53.3087 H         1 UNK         0.0600 
    218 H218       -0.8056  -20.4418  -52.4443 H         1 UNK         0.0600 
    219 H219       -2.3684  -20.8536  -51.7330 H         1 UNK         0.0600 
    220 H220       -2.4769  -24.6099  -53.7510 H         1 UNK         0.3000 
    221 H221       -4.2706  -25.7750  -54.2897 H         1 UNK         0.0600 
    222 H222       -5.0480  -23.3904  -56.0660 H         1 UNK         0.0600 
    223 H223       -3.9214  -24.6652  -56.5108 H         1 UNK         0.0600 
    224 H224       -5.6074  -25.0543  -56.2439 H         1 UNK         0.0600 
    225 H225       -6.9079  -24.0703  -54.9873 H         1 UNK         0.3000 
    226 H226       -8.0748  -24.2365  -52.3024 H         1 UNK         0.0600 
    227 H227       -9.3066  -25.0926  -54.2850 H         1 UNK         0.0600 
    228 H228       -9.2929  -23.4851  -55.0102 H         1 UNK         0.0600 
    229 H229      -10.1841  -23.7791  -53.5206 H         1 UNK         0.0600 
    230 H230       -6.1247  -22.4663  -52.0908 H         1 UNK         0.3000 
    231 H231       -5.4631  -20.4421  -51.4640 H         1 UNK         0.0600 
    232 H232       -8.4200  -19.8380  -50.9275 H         1 UNK         0.0600 
    233 H233       -7.0364  -19.0128  -50.2218 H         1 UNK         0.0600 
    234 H234       -7.3469  -20.6960  -49.8250 H         1 UNK         0.0600 
    235 H235       -5.3302  -20.6386  -54.0790 H         1 UNK         0.3000 
    236 H236       -6.7712  -18.7676  -55.6634 H         1 UNK         0.0600 
    237 H237       -4.0424  -20.0835  -56.1381 H         1 UNK         0.0600 
    238 H238       -5.6044  -20.7834  -56.5610 H         1 UNK         0.0600 
    239 H239       -5.0463  -19.3255  -57.3681 H         1 UNK         0.0600 
    240 H240       -4.1667  -18.2774  -53.4677 H         1 UNK         0.3000 
    241 H241       -3.1811  -15.7717  -54.4987 H         1 UNK         0.0600 
    242 H242       -6.5656  -14.8433  -52.4846 H         1 UNK         0.3800 
    243 H243       -6.2328  -16.4993  -52.9260 H         1 UNK         0.3800 
    244 H244       -2.0528  -15.5752  -52.2964 H         1 UNK         0.0800 
    245 H245       -1.7243  -17.0907  -53.0841 H         1 UNK         0.0800 
    246 H246       -1.6856  -15.9140  -49.8657 H         1 UNK         0.0800 
    247 H247       -2.0676  -17.3529  -48.9514 H         1 UNK         0.0800 
@<TRIPOS>BOND
     1    1    2 1    
     2    1  127 1    
     3    1  128 1    
     4    1  129 1    
     5    2    3 2    
     6    2    4 am   BACKBONE|DICT|INTERRES
     7    4    5 1    
     8    4  130 1    
     9    5    6 1    
    10    5   65 1    
    11    5  131 1    
    12    6    7 1    
    13    6  132 1    
    14    6  133 1    
    15    7    8 1    
    16    8    9 1    
    17    8  134 1    
    18    8  135 1    
    19    9   10 ar   
    20    9   14 ar   
    21   10   11 ar   
    22   10  136 1    
    23   11   12 ar   
    24   11  126 1    
    25   12   13 ar   
    26   12  137 1    
    27   13   14 ar   
    28   13   15 1    
    29   14  138 1    
    30   15   16 1    
    31   15  139 1    
    32   15  140 1    
    33   16   17 1    
    34   17   18 1    
    35   17  141 1    
    36   17  142 1    
    37   18   19 1    
    38   18   67 1    
    39   18  143 1    
    40   19   20 am   BACKBONE|DICT|INTERRES
    41   19  144 1    
    42   20   21 2    
    43   20   22 1    
    44   22   23 1    
    45   22   24 1    
    46   22  145 1    
    47   23  146 1    
    48   23  147 1    
    49   23  148 1    
    50   24   25 am   BACKBONE|DICT|INTERRES
    51   24  149 1    
    52   25   26 2    
    53   25   27 1    
    54   27   28 1    
    55   27   29 1    
    56   27  150 1    
    57   28  151 1    
    58   28  152 1    
    59   28  153 1    
    60   29   30 am   BACKBONE|DICT|INTERRES
    61   29  154 1    
    62   30   31 2    
    63   30   32 1    
    64   32   33 1    
    65   32   34 1    
    66   32  155 1    
    67   33  156 1    
    68   33  157 1    
    69   33  158 1    
    70   34   35 am   BACKBONE|DICT|INTERRES
    71   34  159 1    
    72   35   36 2    
    73   35   37 1    
    74   37   38 1    
    75   37   39 1    
    76   37  160 1    
    77   38  161 1    
    78   38  162 1    
    79   38  163 1    
    80   39   40 am   BACKBONE|DICT|INTERRES
    81   39  164 1    
    82   40   41 2    
    83   40   42 1    
    84   42   43 1    
    85   42   44 1    
    86   42  165 1    
    87   43  166 1    
    88   43  167 1    
    89   43  168 1    
    90   44   45 am   BACKBONE|DICT|INTERRES
    91   44  169 1    
    92   45   46 2    
    93   45   47 1    
    94   47   48 1    
    95   47   49 1    
    96   47  170 1    
    97   48  171 1    
    98   48  172 1    
    99   48  173 1    
   100   49   50 am   BACKBONE|DICT|INTERRES
   101   49  174 1    
   102   50   51 2    
   103   50   52 1    
   104   52   53 1    
   105   52   54 1    
   106   52  175 1    
   107   53  176 1    
   108   53  177 1    
   109   53  178 1    
   110   54   55 am   BACKBONE|DICT|INTERRES
   111   54  179 1    
   112   55   56 2    
   113   55   57 1    
   114   57   58 1    
   115   57   59 1    
   116   57  180 1    
   117   58  181 1    
   118   58  182 1    
   119   58  183 1    
   120   59   60 am   BACKBONE|DICT|INTERRES
   121   59  184 1    
   122   60   61 2    
   123   60   62 1    
   124   62   63 1    
   125   62   64 1    
   126   62  185 1    
   127   63  186 1    
   128   63  187 1    
   129   63  188 1    
   130   64   65 am   BACKBONE|DICT|INTERRES
   131   64  189 1    
   132   65   66 2    
   133   67   68 2    
   134   67   69 am   BACKBONE|DICT|INTERRES
   135   69   70 1    
   136   69  190 1    
   137   70   71 1    
   138   70   72 1    
   139   70  191 1    
   140   71  192 1    
   141   71  193 1    
   142   71  194 1    
   143   72   73 2    
   144   72   74 am   BACKBONE|DICT|INTERRES
   145   74   75 1    
   146   74  195 1    
   147   75   76 1    
   148   75   77 1    
   149   75  196 1    
   150   76  197 1    
   151   76  198 1    
   152   76  199 1    
   153   77   78 2    
   154   77   79 am   BACKBONE|DICT|INTERRES
   155   79   80 1    
   156   79  200 1    
   157   80   81 1    
   158   80   82 1    
   159   80  201 1    
   160   81  202 1    
   161   81  203 1    
   162   81  204 1    
   163   82   83 2    
   164   82   84 am   BACKBONE|DICT|INTERRES
   165   84   85 1    
   166   84  205 1    
   167   85   86 1    
   168   85   87 1    
   169   85  206 1    
   170   86  207 1    
   171   86  208 1    
   172   86  209 1    
   173   87   88 2    
   174   87   89 am   BACKBONE|DICT|INTERRES
   175   89   90 1    
   176   89  210 1    
   177   90   91 1    
   178   90   92 1    
   179   90  211 1    
   180   91  212 1    
   181   91  213 1    
   182   91  214 1    
   183   92   93 2    
   184   92   94 am   BACKBONE|DICT|INTERRES
   185   94   95 1    
   186   94  215 1    
   187   95   96 1    
   188   95   97 1    
   189   95  216 1    
   190   96  217 1    
   191   96  218 1    
   192   96  219 1    
   193   97   98 2    
   194   97   99 am   BACKBONE|DICT|INTERRES
   195   99  100 1    
   196   99  220 1    
   197  100  101 1    
   198  100  102 1    
   199  100  221 1    
   200  101  222 1    
   201  101  223 1    
   202  101  224 1    
   203  102  103 2    
   204  102  104 am   BACKBONE|DICT|INTERRES
   205  104  105 1    
   206  104  225 1    
   207  105  106 1    
   208  105  107 1    
   209  105  226 1    
   210  106  227 1    
   211  106  228 1    
   212  106  229 1    
   213  107  108 2    
   214  107  109 am   BACKBONE|DICT|INTERRES
   215  109  110 1    
   216  109  230 1    
   217  110  111 1    
   218  110  112 1    
   219  110  231 1    
   220  111  232 1    
   221  111  233 1    
   222  111  234 1    
   223  112  113 2    
   224  112  114 am   BACKBONE|DICT|INTERRES
   225  114  115 1    
   226  114  235 1    
   227  115  116 1    
   228  115  117 1    
   229  115  236 1    
   230  116  237 1    
   231  116  238 1    
   232  116  239 1    
   233  117  118 2    
   234  117  119 am   BACKBONE|DICT|INTERRES
   235  119  120 1    
   236  119  240 1    
   237  120  121 1    
   238  120  124 1    
   239  120  241 1    
   240  121  122 am   BACKBONE|DICT|INTERRES
   241  121  123 2    
   242  122  242 1    
   243  122  243 1    
   244  124  125 1    
   245  124  244 1    
   246  124  245 1    
   247  125  126 1    
   248  126  246 1    
   249  126  247 1    
@<TRIPOS>SUBSTRUCTURE
     1 UNK         1 GROUP             0       ****    0 ROOT    
