@<TRIPOS>MOLECULE
3R540
247   249    1
SMALL
USER_CHARGES


@<TRIPOS>ATOM
      1 CA          3.4675  -15.0678  -53.6337 C.3       0 UNK        -0.1800 
      2 C           3.5001  -13.9712  -52.5778 C.2       0 UNK         0.5000 
      3 O           3.6211  -12.7937  -52.9178 O.2       0 UNK        -0.5000 
      4 N           3.4007  -14.3575  -51.3013 N.am      1 UNK        -0.5000 
      5 CA          3.2933  -13.4595  -50.1487 C.3       1 UNK         0.1400 
      6 C6          3.8301  -14.1436  -48.8600 C.3       23 UNK        -0.0398 
      7 S7          2.8077  -15.5141  -48.2178 S.3       23 UNK        -0.2404 
      8 C8          3.5348  -16.9878  -48.9988 C.3       23 UNK        -0.0205 
      9 C9          2.4383  -17.9555  -49.4176 C.ar      23 UNK        -0.0193 
     10 C10         1.6618  -17.6740  -50.5434 C.ar      23 UNK        -0.1150 
     11 C11         0.6104  -18.5146  -50.9122 C.ar      23 UNK        -0.0193 
     12 C12         0.3663  -19.6734  -50.1700 C.ar      23 UNK        -0.1150 
     13 C13         1.1473  -19.9871  -49.0529 C.ar      23 UNK        -0.0193 
     14 C14         2.1754  -19.1111  -48.6746 C.ar      23 UNK        -0.1150 
     15 C15         0.8303  -21.2564  -48.2626 C.3       23 UNK        -0.0205 
     16 S16         2.3045  -22.0759  -47.5631 S.3       23 UNK        -0.2404 
     17 C17         1.8868  -23.8474  -47.7133 C.3       23 UNK        -0.0398 
     18 CA          1.1228  -24.4532  -46.5081 C.3       11 UNK         0.1400 
     19 N           1.7107  -24.0732  -45.2214 N.am      11 UNK        -0.5000 
     20 C           1.4172  -24.6197  -44.0346 C.2       10 UNK         0.5000 
     21 O           0.6434  -25.5673  -43.8946 O.2       10 UNK        -0.5000 
     22 CA          2.0556  -23.9651  -42.7934 C.3       10 UNK         0.1400 
     23 CB          3.3177  -24.7332  -42.3735 C.3       10 UNK        -0.1800 
     24 N           2.3920  -22.5447  -42.9597 N.am      10 UNK        -0.5000 
     25 C           1.5135  -21.5692  -43.2323 C.2       9 UNK         0.5000 
     26 O           0.3212  -21.7740  -43.4663 O.2       9 UNK        -0.5000 
     27 CA          2.0795  -20.1374  -43.2930 C.3       9 UNK         0.1400 
     28 CB          2.4946  -19.7841  -44.7290 C.3       9 UNK        -0.1800 
     29 N           1.1282  -19.1333  -42.8199 N.am      9 UNK        -0.5000 
     30 C           0.6298  -19.0525  -41.5794 C.2       8 UNK         0.5000 
     31 O           0.9539  -19.8053  -40.6592 O.2       8 UNK        -0.5000 
     32 CA         -0.3891  -17.9295  -41.3103 C.3       8 UNK         0.1400 
     33 CB          0.3237  -16.6570  -40.8272 C.3       8 UNK        -0.1800 
     34 N          -1.2104  -17.6083  -42.4785 N.am      8 UNK        -0.5000 
     35 C          -2.2328  -18.3578  -42.9138 C.2       7 UNK         0.5000 
     36 O          -2.6047  -19.3927  -42.3607 O.2       7 UNK        -0.5000 
     37 CA         -2.9902  -17.8514  -44.1562 C.3       7 UNK         0.1400 
     38 CB         -4.0860  -16.8611  -43.7296 C.3       7 UNK        -0.1800 
     39 N          -2.1138  -17.2089  -45.1351 N.am      7 UNK        -0.5000 
     40 C          -1.2132  -17.8514  -45.8931 C.2       6 UNK         0.5000 
     41 O          -1.0898  -19.0731  -45.9224 O.2       6 UNK        -0.5000 
     42 CA         -0.2610  -16.9827  -46.7315 C.3       6 UNK         0.1400 
     43 CB         -0.8759  -16.6509  -48.0968 C.3       6 UNK        -0.1800 
     44 N           0.1151  -15.7420  -46.0591 N.am      6 UNK        -0.5000 
     45 C           0.8159  -15.6610  -44.9217 C.2       5 UNK         0.5000 
     46 O           1.2367  -16.6375  -44.3046 O.2       5 UNK        -0.5000 
     47 CA          1.0261  -14.2515  -44.3449 C.3       5 UNK         0.1400 
     48 CB          2.2128  -13.5426  -45.0161 C.3       5 UNK        -0.1800 
     49 N          -0.1800  -13.4353  -44.4798 N.am      5 UNK        -0.5000 
     50 C          -1.2930  -13.6132  -43.7551 C.2       4 UNK         0.5000 
     51 O          -1.3950  -14.4473  -42.8558 O.2       4 UNK        -0.5000 
     52 CA         -2.5041  -12.7339  -44.1181 C.3       4 UNK         0.1400 
     53 CB         -2.4130  -11.3707  -43.4163 C.3       4 UNK        -0.1800 
     54 N          -2.6430  -12.5274  -45.5608 N.am      4 UNK        -0.5000 
     55 C          -2.9799  -13.4890  -46.4318 C.2       3 UNK         0.5000 
     56 O          -3.2325  -14.6477  -46.1044 O.2       3 UNK        -0.5000 
     57 CA         -2.9996  -13.0975  -47.9229 C.3       3 UNK         0.1400 
     58 CB         -4.3577  -12.4802  -48.2891 C.3       3 UNK        -0.1800 
     59 N          -1.9235  -12.1822  -48.3278 N.am      3 UNK        -0.5000 
     60 C          -0.6135  -12.4095  -48.1560 C.2       2 UNK         0.5000 
     61 O          -0.1664  -13.3654  -47.5233 O.2       2 UNK        -0.5000 
     62 CA          0.3609  -11.3680  -48.7402 C.3       2 UNK         0.1400 
     63 CB          0.5810  -10.2299  -47.7314 C.3       2 UNK        -0.1800 
     64 N           1.6631  -11.9519  -49.0800 N.am      2 UNK        -0.5000 
     65 C           1.8539  -12.8982  -50.0107 C.2       1 UNK         0.5000 
     66 O           0.9510  -13.3119  -50.7438 O.2       1 UNK        -0.5000 
     67 C          -0.3999  -24.2045  -46.6014 C.2       11 UNK         0.5000 
     68 O          -1.0400  -24.8143  -47.4566 O.2       11 UNK        -0.5000 
     69 N          -0.9732  -23.3803  -45.7079 N.am      12 UNK        -0.5000 
     70 CA         -2.4173  -23.1454  -45.6020 C.3       12 UNK         0.1400 
     71 CB         -2.6819  -22.0009  -44.6150 C.3       12 UNK        -0.1800 
     72 C          -3.2311  -24.3875  -45.1861 C.2       12 UNK         0.5000 
     73 O          -4.4428  -24.4128  -45.4025 O.2       12 UNK        -0.5000 
     74 N          -2.5632  -25.3959  -44.6063 N.am      13 UNK        -0.5000 
     75 CA         -3.1446  -26.6990  -44.2795 C.3       13 UNK         0.1400 
     76 CB         -2.2197  -27.4146  -43.2828 C.3       13 UNK        -0.1800 
     77 C          -3.3905  -27.5851  -45.5200 C.2       13 UNK         0.5000 
     78 O          -4.1089  -28.5801  -45.4120 O.2       13 UNK        -0.5000 
     79 N          -2.7911  -27.2242  -46.6611 N.am      14 UNK        -0.5000 
     80 CA         -2.9259  -27.8939  -47.9493 C.3       14 UNK         0.1400 
     81 CB         -1.5156  -28.2808  -48.4316 C.3       14 UNK        -0.1800 
     82 C          -3.6118  -26.9583  -48.9607 C.2       14 UNK         0.5000 
     83 O          -3.8730  -25.7909  -48.6647 O.2       14 UNK        -0.5000 
     84 N          -3.8596  -27.4846  -50.1662 N.am      15 UNK        -0.5000 
     85 CA         -4.3729  -26.7354  -51.3186 C.3       15 UNK         0.1400 
     86 CB         -5.0849  -27.7186  -52.2624 C.3       15 UNK        -0.1800 
     87 C          -3.2750  -25.9488  -52.0708 C.2       15 UNK         0.5000 
     88 O          -3.5757  -25.3188  -53.0862 O.2       15 UNK        -0.5000 
     89 N          -2.0279  -26.0178  -51.5803 N.am      16 UNK        -0.5000 
     90 CA         -0.8200  -25.3852  -52.1105 C.3       16 UNK         0.1400 
     91 CB          0.3323  -25.6330  -51.1251 C.3       16 UNK        -0.1800 
     92 C          -1.0024  -23.8801  -52.3785 C.2       16 UNK         0.5000 
     93 O          -1.2227  -23.1114  -51.4395 O.2       16 UNK        -0.5000 
     94 N          -0.9655  -23.5127  -53.6680 N.am      17 UNK        -0.5000 
     95 CA         -1.1810  -22.1675  -54.2177 C.3       17 UNK         0.1400 
     96 CB          0.0074  -21.2523  -53.8617 C.3       17 UNK        -0.1800 
     97 C          -2.5522  -21.5501  -53.8531 C.2       17 UNK         0.5000 
     98 O          -2.6871  -20.3266  -53.8354 O.2       17 UNK        -0.5000 
     99 N          -3.5396  -22.4147  -53.5690 N.am      18 UNK        -0.5000 
    100 CA        -4.8868  -22.1094  -53.0793 C.3       18 UNK         0.1400 
    101 CB        -5.6882  -21.2977  -54.1182 C.3       18 UNK        -0.1800 
    102 C         -4.9054  -21.4820  -51.6671 C.2       18 UNK         0.5000 
    103 O         -5.8754  -20.8081  -51.3149 O.2       18 UNK        -0.5000 
    104 N         -3.8544  -21.7348  -50.8695 N.am      19 UNK        -0.5000 
    105 CA        -3.6542  -21.2405  -49.5051 C.3       19 UNK         0.1400 
    106 CB        -4.6466  -21.9220  -48.5340 C.3       19 UNK        -0.1800 
    107 C         -3.6731  -19.6974  -49.4545 C.2       19 UNK         0.5000 
    108 O         -2.9094  -19.0659  -50.1806 O.2       19 UNK        -0.5000 
    109 N         -4.5455  -19.1133  -48.6234 N.am      20 UNK        -0.5000 
    110 CA        -4.6807  -17.6686  -48.4255 C.3       20 UNK         0.1400 
    111 CB        -5.5750  -17.4300  -47.2014 C.3       20 UNK        -0.1800 
    112 C         -5.2352  -16.9010  -49.6434 C.2       20 UNK         0.5000 
    113 O         -5.0869  -15.6786  -49.7000 O.2       20 UNK        -0.5000 
    114 N         -5.8725  -17.6103  -50.5886 N.am      21 UNK        -0.5000 
    115 CA        -6.5710  -17.0367  -51.7437 C.3       21 UNK         0.1400 
    116 CB        -7.3797  -18.1345  -52.4490 C.3       21 UNK        -0.1800 
    117 C         -5.6677  -16.2964  -52.7503 C.2       21 UNK         0.5000 
    118 O         -6.1909  -15.5427  -53.5727 O.2       21 UNK        -0.5000 
    119 N         -4.3446  -16.4915  -52.6665 N.am      22 UNK        -0.5000 
    120 CA        -3.3497  -15.6905  -53.3955 C.3       22 UNK         0.1400 
    121 C         -3.2288  -14.2099  -52.9171 C.2       22 UNK         0.5000 
    122 N         -3.7601  -13.8347  -51.7577 N.am      22 UNK        -0.7600 
    123 O         -2.6623  -13.3821  -53.6256 O.2       22 UNK        -0.5000 
    124 C124       -1.9720  -16.3962  -53.4623 C.3       23 UNK        -0.0398 
    125 S125       -1.1651  -16.6027  -51.8380 S.3       23 UNK        -0.2404 
    126 C126       -0.2622  -18.1585  -52.1057 C.3       23 UNK        -0.0205 
    127 H127        4.3816  -15.0461  -54.2269 H         1 UNK         0.0600 
    128 H128        2.6207  -14.9174  -54.3033 H         1 UNK         0.0600 
    129 H129        3.3749  -16.0586  -53.1879 H         1 UNK         0.0600 
    130 H130        3.2579  -15.3327  -51.0918 H         1 UNK         0.3000 
    131 H131        3.9390  -12.5997  -50.3402 H         1 UNK         0.0600 
    132 H132        4.8465  -14.5038  -49.0250 H         1 UNK         0.0800 
    133 H133        3.9186  -13.4057  -48.0617 H         1 UNK         0.0800 
    134 H134        4.1286  -16.7137  -49.8708 H         1 UNK         0.0800 
    135 H135        4.2222  -17.4608  -48.2959 H         1 UNK         0.0800 
    136 H136        1.8403  -16.7736  -51.1120 H         1 UNK         0.1150 
    137 H137       -0.4471  -20.3261  -50.4564 H         1 UNK         0.1150 
    138 H138        2.7675  -19.3201  -47.7955 H         1 UNK         0.1150 
    139 H139        0.1482  -21.0043  -47.4496 H         1 UNK         0.0800 
    140 H140        0.2979  -21.9599  -48.9051 H         1 UNK         0.0800 
    141 H141        1.3632  -24.0239  -48.6531 H         1 UNK         0.0800 
    142 H142        2.8343  -24.3771  -47.8193 H         1 UNK         0.0800 
    143 H143        1.2344  -25.5372  -46.5840 H         1 UNK         0.0600 
    144 H144        2.3375  -23.2818  -45.2436 H         1 UNK         0.3000 
    145 H145        1.3271  -24.0360  -41.9832 H         1 UNK         0.0600 
    146 H146        3.7242  -24.3453  -41.4392 H         1 UNK         0.0600 
    147 H147        3.0981  -25.7901  -42.2157 H         1 UNK         0.0600 
    148 H148        4.0982  -24.6700  -43.1328 H         1 UNK         0.0600 
    149 H149        3.3580  -22.2972  -42.7999 H         1 UNK         0.3000 
    150 H150        2.9614  -20.0829  -42.6519 H         1 UNK         0.0600 
    151 H151        3.2361  -20.4877  -45.1080 H         1 UNK         0.0600 
    152 H152        2.9381  -18.7896  -44.7809 H         1 UNK         0.0600 
    153 H153        1.6408  -19.8038  -45.4080 H         1 UNK         0.0600 
    154 H154        0.8511  -18.4258  -43.4921 H         1 UNK         0.3000 
    155 H155       -1.0489  -18.2680  -40.5086 H         1 UNK         0.0600 
    156 H156        0.9156  -16.8567  -39.9332 H         1 UNK         0.0600 
    157 H157       -0.3929  -15.8751  -40.5750 H         1 UNK         0.0600 
    158 H158        0.9988  -16.2602  -41.5856 H         1 UNK         0.0600 
    159 H159       -0.9888  -16.7519  -42.9692 H         1 UNK         0.3000 
    160 H160       -3.4653  -18.7099  -44.6354 H         1 UNK         0.0600 
    161 H161       -3.6673  -15.9958  -43.2148 H         1 UNK         0.0600 
    162 H162       -4.7961  -17.3346  -43.0507 H         1 UNK         0.0600 
    163 H163       -4.6504  -16.4911  -44.5840 H         1 UNK         0.0600 
    164 H164       -2.2089  -16.2047  -45.2421 H         1 UNK         0.3000 
    165 H165        0.6511  -17.5582  -46.8959 H         1 UNK         0.0600 
    166 H166       -1.7603  -16.0249  -47.9976 H         1 UNK         0.0600 
    167 H167       -0.1665  -16.1196  -48.7313 H         1 UNK         0.0600 
    168 H168       -1.1663  -17.5585  -48.6266 H         1 UNK         0.0600 
    169 H169       -0.1255  -14.8764  -46.5388 H         1 UNK         0.3000 
    170 H170        1.2554  -14.3562  -43.2824 H         1 UNK         0.0600 
    171 H171        3.1226  -14.1372  -44.9248 H         1 UNK         0.0600 
    172 H172        2.0391  -13.3756  -46.0789 H         1 UNK         0.0600 
    173 H173        2.4069  -12.5753  -44.5530 H         1 UNK         0.0600 
    174 H174       -0.2052  -12.7943  -45.2598 H         1 UNK         0.3000 
    175 H175       -3.4017  -13.2425  -43.7593 H         1 UNK         0.0600 
    176 H176       -1.5463  -10.8002  -43.7527 H         1 UNK         0.0600 
    177 H177       -3.3038  -10.7708  -43.6033 H         1 UNK         0.0600 
    178 H178       -2.3261  -11.4937  -42.3359 H         1 UNK         0.0600 
    179 H179       -2.4465  -11.6030  -45.9149 H         1 UNK         0.3000 
    180 H180       -2.8800  -14.0134  -48.5047 H         1 UNK         0.0600 
    181 H181       -4.5343  -11.5462  -47.7544 H         1 UNK         0.0600 
    182 H182       -5.1729  -13.1616  -48.0411 H         1 UNK         0.0600 
    183 H183       -4.4264  -12.2739  -49.3566 H         1 UNK         0.0600 
    184 H184       -2.2098  -11.3561  -48.8325 H         1 UNK         0.3000 
    185 H185       -0.0750  -10.9554  -49.6524 H         1 UNK         0.0600 
    186 H186        1.0272  -10.5945  -46.8050 H         1 UNK         0.0600 
    187 H187        1.2369   -9.4610  -48.1402 H         1 UNK         0.0600 
    188 H188       -0.3615   -9.7454  -47.4729 H         1 UNK         0.0600 
    189 H189        2.4398  -11.6661  -48.5033 H         1 UNK         0.3000 
    190 H190       -0.3942  -22.9082  -45.0197 H         1 UNK         0.3000 
    191 H191       -2.7651  -22.8404  -46.5888 H         1 UNK         0.0600 
    192 H192       -2.3989  -22.2735  -43.5975 H         1 UNK         0.0600 
    193 H193       -3.7376  -21.7280  -44.6008 H         1 UNK         0.0600 
    194 H194       -2.1206  -21.1093  -44.8829 H         1 UNK         0.0600 
    195 H195       -1.5681  -25.2945  -44.4485 H         1 UNK         0.3000 
    196 H196       -4.1093  -26.5365  -43.7944 H         1 UNK         0.0600 
    197 H197       -2.6474  -28.3665  -42.9655 H         1 UNK         0.0600 
    198 H198       -2.0633  -26.8141  -42.3864 H         1 UNK         0.0600 
    199 H199       -1.2430  -27.6237  -43.7210 H         1 UNK         0.0600 
    200 H200       -2.2911  -26.3424  -46.6940 H         1 UNK         0.3000 
    201 H201       -3.5325  -28.7970  -47.8588 H         1 UNK         0.0600 
    202 H202       -1.0145  -28.9177  -47.7023 H         1 UNK         0.0600 
    203 H203       -0.8883  -27.4024  -48.5898 H         1 UNK         0.0600 
    204 H204       -1.5497  -28.8361  -49.3694 H         1 UNK         0.0600 
    205 H205       -3.6244  -28.4523  -50.3360 H         1 UNK         0.3000 
    206 H206       -5.1088  -26.0069  -50.9719 H         1 UNK         0.0600 
    207 H207       -5.8874  -28.2478  -51.7481 H         1 UNK         0.0600 
    208 H208       -5.5347  -27.1970  -53.1083 H         1 UNK         0.0600 
    209 H209       -4.3951  -28.4617  -52.6642 H         1 UNK         0.0600 
    210 H210       -1.9059  -26.5385  -50.7263 H         1 UNK         0.3000 
    211 H211       -0.5747  -25.8837  -53.0501 H         1 UNK         0.0600 
    212 H212        1.2448  -25.1307  -51.4491 H         1 UNK         0.0600 
    213 H213        0.5578  -26.6961  -51.0396 H         1 UNK         0.0600 
    214 H214        0.0853  -25.2636  -50.1296 H         1 UNK         0.0600 
    215 H215       -0.8203  -24.2354  -54.3595 H         1 UNK         0.3000 
    216 H216       -1.1910  -22.2807  -55.3025 H         1 UNK         0.0600 
    217 H217       -0.0852  -20.2782  -54.3428 H         1 UNK         0.0600 
    218 H218        0.9502  -21.6859  -54.1945 H         1 UNK         0.0600 
    219 H219        0.0797  -21.0875  -52.7872 H         1 UNK         0.0600 
    220 H220       -3.3225  -23.4070  -53.5971 H         1 UNK         0.3000 
    221 H221       -5.3846  -23.0741  -52.9734 H         1 UNK         0.0600 
    222 H222       -6.7340  -21.2081  -53.8224 H         1 UNK         0.0600 
    223 H223       -5.6707  -21.7820  -55.0944 H         1 UNK         0.0600 
    224 H224       -5.2940  -20.2886  -54.2379 H         1 UNK         0.0600 
    225 H225       -3.0713  -22.2537  -51.2538 H         1 UNK         0.3000 
    226 H226       -2.6463  -21.5404  -49.2136 H         1 UNK         0.0600 
    227 H227       -4.5155  -23.0045  -48.5453 H         1 UNK         0.0600 
    228 H228       -4.4905  -21.5934  -47.5063 H         1 UNK         0.0600 
    229 H229       -5.6859  -21.7158  -48.7909 H         1 UNK         0.0600 
    230 H230       -5.1659  -19.7014  -48.0870 H         1 UNK         0.3000 
    231 H231       -3.6916  -17.2670  -48.2066 H         1 UNK         0.0600 
    232 H232       -5.6039  -16.3706  -46.9420 H         1 UNK         0.0600 
    233 H233       -5.2030  -17.9698  -46.3316 H         1 UNK         0.0600 
    234 H234       -6.6006  -17.7542  -47.3822 H         1 UNK         0.0600 
    235 H235       -5.9062  -18.6184  -50.4992 H         1 UNK         0.3000 
    236 H236       -7.2780  -16.3008  -51.3554 H         1 UNK         0.0600 
    237 H237       -8.0314  -18.6619  -51.7523 H         1 UNK         0.0600 
    238 H238       -8.0118  -17.7130  -53.2314 H         1 UNK         0.0600 
    239 H239       -6.7252  -18.8660  -52.9195 H         1 UNK         0.0600 
    240 H240       -3.9832  -17.1199  -51.9616 H         1 UNK         0.3000 
    241 H241       -3.7038  -15.6257  -54.4262 H         1 UNK         0.0600 
    242 H242       -3.6837  -12.8723  -51.4756 H         1 UNK         0.3800 
    243 H243       -4.2185  -14.5062  -51.1516 H         1 UNK         0.3800 
    244 H244       -2.0960  -17.3767  -53.9249 H         1 UNK         0.0800 
    245 H245       -1.2929  -15.8446  -54.1145 H         1 UNK         0.0800 
    246 H246       -0.9899  -18.9479  -52.2952 H         1 UNK         0.0800 
    247 H247        0.3611  -18.0747  -52.9967 H         1 UNK         0.0800 
@<TRIPOS>BOND
     1    1    2 1    
     2    1  127 1    
     3    1  128 1    
     4    1  129 1    
     5    2    3 2    
     6    2    4 am   BACKBONE|DICT|INTERRES
     7    4    5 1    
     8    4  130 1    
     9    5    6 1    
    10    5   65 1    
    11    5  131 1    
    12    6    7 1    
    13    6  132 1    
    14    6  133 1    
    15    7    8 1    
    16    8    9 1    
    17    8  134 1    
    18    8  135 1    
    19    9   10 ar   
    20    9   14 ar   
    21   10   11 ar   
    22   10  136 1    
    23   11   12 ar   
    24   11  126 1    
    25   12   13 ar   
    26   12  137 1    
    27   13   14 ar   
    28   13   15 1    
    29   14  138 1    
    30   15   16 1    
    31   15  139 1    
    32   15  140 1    
    33   16   17 1    
    34   17   18 1    
    35   17  141 1    
    36   17  142 1    
    37   18   19 1    
    38   18   67 1    
    39   18  143 1    
    40   19   20 am   BACKBONE|DICT|INTERRES
    41   19  144 1    
    42   20   21 2    
    43   20   22 1    
    44   22   23 1    
    45   22   24 1    
    46   22  145 1    
    47   23  146 1    
    48   23  147 1    
    49   23  148 1    
    50   24   25 am   BACKBONE|DICT|INTERRES
    51   24  149 1    
    52   25   26 2    
    53   25   27 1    
    54   27   28 1    
    55   27   29 1    
    56   27  150 1    
    57   28  151 1    
    58   28  152 1    
    59   28  153 1    
    60   29   30 am   BACKBONE|DICT|INTERRES
    61   29  154 1    
    62   30   31 2    
    63   30   32 1    
    64   32   33 1    
    65   32   34 1    
    66   32  155 1    
    67   33  156 1    
    68   33  157 1    
    69   33  158 1    
    70   34   35 am   BACKBONE|DICT|INTERRES
    71   34  159 1    
    72   35   36 2    
    73   35   37 1    
    74   37   38 1    
    75   37   39 1    
    76   37  160 1    
    77   38  161 1    
    78   38  162 1    
    79   38  163 1    
    80   39   40 am   BACKBONE|DICT|INTERRES
    81   39  164 1    
    82   40   41 2    
    83   40   42 1    
    84   42   43 1    
    85   42   44 1    
    86   42  165 1    
    87   43  166 1    
    88   43  167 1    
    89   43  168 1    
    90   44   45 am   BACKBONE|DICT|INTERRES
    91   44  169 1    
    92   45   46 2    
    93   45   47 1    
    94   47   48 1    
    95   47   49 1    
    96   47  170 1    
    97   48  171 1    
    98   48  172 1    
    99   48  173 1    
   100   49   50 am   BACKBONE|DICT|INTERRES
   101   49  174 1    
   102   50   51 2    
   103   50   52 1    
   104   52   53 1    
   105   52   54 1    
   106   52  175 1    
   107   53  176 1    
   108   53  177 1    
   109   53  178 1    
   110   54   55 am   BACKBONE|DICT|INTERRES
   111   54  179 1    
   112   55   56 2    
   113   55   57 1    
   114   57   58 1    
   115   57   59 1    
   116   57  180 1    
   117   58  181 1    
   118   58  182 1    
   119   58  183 1    
   120   59   60 am   BACKBONE|DICT|INTERRES
   121   59  184 1    
   122   60   61 2    
   123   60   62 1    
   124   62   63 1    
   125   62   64 1    
   126   62  185 1    
   127   63  186 1    
   128   63  187 1    
   129   63  188 1    
   130   64   65 am   BACKBONE|DICT|INTERRES
   131   64  189 1    
   132   65   66 2    
   133   67   68 2    
   134   67   69 am   BACKBONE|DICT|INTERRES
   135   69   70 1    
   136   69  190 1    
   137   70   71 1    
   138   70   72 1    
   139   70  191 1    
   140   71  192 1    
   141   71  193 1    
   142   71  194 1    
   143   72   73 2    
   144   72   74 am   BACKBONE|DICT|INTERRES
   145   74   75 1    
   146   74  195 1    
   147   75   76 1    
   148   75   77 1    
   149   75  196 1    
   150   76  197 1    
   151   76  198 1    
   152   76  199 1    
   153   77   78 2    
   154   77   79 am   BACKBONE|DICT|INTERRES
   155   79   80 1    
   156   79  200 1    
   157   80   81 1    
   158   80   82 1    
   159   80  201 1    
   160   81  202 1    
   161   81  203 1    
   162   81  204 1    
   163   82   83 2    
   164   82   84 am   BACKBONE|DICT|INTERRES
   165   84   85 1    
   166   84  205 1    
   167   85   86 1    
   168   85   87 1    
   169   85  206 1    
   170   86  207 1    
   171   86  208 1    
   172   86  209 1    
   173   87   88 2    
   174   87   89 am   BACKBONE|DICT|INTERRES
   175   89   90 1    
   176   89  210 1    
   177   90   91 1    
   178   90   92 1    
   179   90  211 1    
   180   91  212 1    
   181   91  213 1    
   182   91  214 1    
   183   92   93 2    
   184   92   94 am   BACKBONE|DICT|INTERRES
   185   94   95 1    
   186   94  215 1    
   187   95   96 1    
   188   95   97 1    
   189   95  216 1    
   190   96  217 1    
   191   96  218 1    
   192   96  219 1    
   193   97   98 2    
   194   97   99 am   BACKBONE|DICT|INTERRES
   195   99  100 1    
   196   99  220 1    
   197  100  101 1    
   198  100  102 1    
   199  100  221 1    
   200  101  222 1    
   201  101  223 1    
   202  101  224 1    
   203  102  103 2    
   204  102  104 am   BACKBONE|DICT|INTERRES
   205  104  105 1    
   206  104  225 1    
   207  105  106 1    
   208  105  107 1    
   209  105  226 1    
   210  106  227 1    
   211  106  228 1    
   212  106  229 1    
   213  107  108 2    
   214  107  109 am   BACKBONE|DICT|INTERRES
   215  109  110 1    
   216  109  230 1    
   217  110  111 1    
   218  110  112 1    
   219  110  231 1    
   220  111  232 1    
   221  111  233 1    
   222  111  234 1    
   223  112  113 2    
   224  112  114 am   BACKBONE|DICT|INTERRES
   225  114  115 1    
   226  114  235 1    
   227  115  116 1    
   228  115  117 1    
   229  115  236 1    
   230  116  237 1    
   231  116  238 1    
   232  116  239 1    
   233  117  118 2    
   234  117  119 am   BACKBONE|DICT|INTERRES
   235  119  120 1    
   236  119  240 1    
   237  120  121 1    
   238  120  124 1    
   239  120  241 1    
   240  121  122 am   BACKBONE|DICT|INTERRES
   241  121  123 2    
   242  122  242 1    
   243  122  243 1    
   244  124  125 1    
   245  124  244 1    
   246  124  245 1    
   247  125  126 1    
   248  126  246 1    
   249  126  247 1    
@<TRIPOS>SUBSTRUCTURE
     1 UNK         1 GROUP             0       ****    0 ROOT    
