@<TRIPOS>MOLECULE
3R540
247   249    1
SMALL
USER_CHARGES


@<TRIPOS>ATOM
      1 CA         -3.2457  -12.4467  -48.0457 C.3       0 UNK        -0.1800 
      2 C          -1.9662  -12.9562  -48.6937 C.2       0 UNK         0.5000 
      3 O          -1.9662  -13.2808  -49.8813 O.2       0 UNK        -0.5000 
      4 N          -0.8820  -13.0350  -47.9157 N.am      1 UNK        -0.5000 
      5 CA          0.4510  -13.4434  -48.3665 C.3       1 UNK         0.1400 
      6 C6          1.2953  -14.0572  -47.2114 C.3       23 UNK        -0.0398 
      7 S7          0.4382  -15.3390  -46.2333 S.3       23 UNK        -0.2404 
      8 C8          0.3175  -16.7212  -47.4119 C.3       23 UNK        -0.0205 
      9 C9         -1.0220  -17.4305  -47.2850 C.ar      23 UNK        -0.0193 
     10 C10        -2.2027  -16.7485  -47.5913 C.ar      23 UNK        -0.1150 
     11 C11        -3.4430  -17.3825  -47.4841 C.ar      23 UNK        -0.0193 
     12 C12        -3.4964  -18.7171  -47.0734 C.ar      23 UNK        -0.1150 
     13 C13        -2.3243  -19.4101  -46.7612 C.ar      23 UNK        -0.0193 
     14 C14        -1.0892  -18.7637  -46.8715 C.ar      23 UNK        -0.1150 
     15 C15        -2.3934  -20.8551  -46.3023 C.3       23 UNK        -0.0205 
     16 S16        -2.6125  -20.9613  -44.4979 S.3       23 UNK        -0.2404 
     17 C17        -2.6870  -22.7503  -44.1012 C.3       23 UNK        -0.0398 
     18 CA         -2.1228  -23.7342  -45.1554 C.3       11 UNK         0.1400 
     19 N          -0.6944  -23.5213  -45.4233 N.am      11 UNK        -0.5000 
     20 C          -0.0142  -24.0926  -46.4302 C.2       10 UNK         0.5000 
     21 O          -0.5378  -24.8576  -47.2411 O.2       10 UNK        -0.5000 
     22 CA          1.4877  -23.7783  -46.5687 C.3       10 UNK         0.1400 
     23 CB          1.6937  -22.7171  -47.6602 C.3       10 UNK        -0.1800 
     24 N           2.1217  -23.3111  -45.3362 N.am      10 UNK        -0.5000 
     25 C           2.1944  -23.9820  -44.1772 C.2       9 UNK         0.5000 
     26 O           1.7909  -25.1356  -44.0286 O.2       9 UNK        -0.5000 
     27 CA          2.7515  -23.2033  -42.9655 C.3       9 UNK         0.1400 
     28 CB          4.2366  -23.5323  -42.7533 C.3       9 UNK        -0.1800 
     29 N           2.5909  -21.7447  -43.0666 N.am      9 UNK        -0.5000 
     30 C           1.4189  -21.1093  -43.2072 C.2       8 UNK         0.5000 
     31 O           0.3347  -21.6955  -43.2527 O.2       8 UNK        -0.5000 
     32 CA          1.4742  -19.5848  -43.3883 C.3       8 UNK         0.1400 
     33 CB          2.2484  -19.2023  -44.6666 C.3       8 UNK        -0.1800 
     34 N           0.1105  -19.0681  -43.4605 N.am      8 UNK        -0.5000 
     35 C          -0.2514  -17.8022  -43.2404 C.2       7 UNK         0.5000 
     36 O           0.5396  -16.9052  -42.9346 O.2       7 UNK        -0.5000 
     37 CA         -1.7484  -17.4831  -43.3577 C.3       7 UNK         0.1400 
     38 CB         -2.4897  -17.8214  -42.0514 C.3       7 UNK        -0.1800 
     39 N          -1.8775  -16.0671  -43.6727 N.am      7 UNK        -0.5000 
     40 C          -2.9583  -15.4521  -44.1640 C.2       6 UNK         0.5000 
     41 O          -4.0449  -16.0070  -44.3292 O.2       6 UNK        -0.5000 
     42 CA         -2.7908  -13.9620  -44.5184 C.3       6 UNK         0.1400 
     43 CB         -4.1080  -13.1693  -44.4336 C.3       6 UNK        -0.1800 
     44 N          -1.7819  -13.3358  -43.6613 N.am      6 UNK        -0.5000 
     45 C          -0.8443  -12.4768  -44.0730 C.2       5 UNK         0.5000 
     46 O          -0.7538  -12.0611  -45.2303 O.2       5 UNK        -0.5000 
     47 CA          0.1984  -12.0700  -43.0137 C.3       5 UNK         0.1400 
     48 CB          1.2597  -13.1727  -42.8669 C.3       5 UNK        -0.1800 
     49 N           0.8808  -10.8191  -43.3393 N.am      5 UNK        -0.5000 
     50 C           0.3340   -9.5964  -43.2972 C.2       4 UNK         0.5000 
     51 O          -0.8186   -9.3767  -42.9219 O.2       4 UNK        -0.5000 
     52 CA          1.2336   -8.4135  -43.7218 C.3       4 UNK         0.1400 
     53 CB          1.7384   -7.6522  -42.4858 C.3       4 UNK        -0.1800 
     54 N           2.3890   -8.8235  -44.5287 N.am      4 UNK        -0.5000 
     55 C           2.3093   -9.2188  -45.8056 C.2       3 UNK         0.5000 
     56 O           1.2644   -9.1760  -46.4599 O.2       3 UNK        -0.5000 
     57 CA          3.5950   -9.7773  -46.4453 C.3       3 UNK         0.1400 
     58 CB          4.2256  -10.8842  -45.5697 C.3       3 UNK        -0.1800 
     59 N           3.2401  -10.3150  -47.7537 N.am      3 UNK        -0.5000 
     60 C           4.0511  -10.7631  -48.7162 C.2       2 UNK         0.5000 
     61 O           5.2802  -10.6987  -48.6550 O.2       2 UNK        -0.5000 
     62 CA          3.3577  -11.4358  -49.9262 C.3       2 UNK         0.1400 
     63 CB          4.3591  -12.0573  -50.9168 C.3       2 UNK        -0.1800 
     64 N           2.4176  -12.4769  -49.4905 N.am      2 UNK        -0.5000 
     65 C           1.1883  -12.2459  -49.0090 C.2       1 UNK         0.5000 
     66 O           0.6794  -11.1216  -49.0102 O.2       1 UNK        -0.5000 
     67 C          -2.4335  -25.1963  -44.7667 C.2       11 UNK         0.5000 
     68 O          -3.5259  -25.6770  -45.0689 O.2       11 UNK        -0.5000 
     69 N          -1.4524  -25.9025  -44.1832 N.am      12 UNK        -0.5000 
     70 CA         -1.5160  -27.3397  -43.8990 C.3       12 UNK         0.1400 
     71 CB         -0.3499  -27.7182  -42.9736 C.3       12 UNK        -0.1800 
     72 C          -1.5016  -28.2145  -45.1715 C.2       12 UNK         0.5000 
     73 O          -1.9363  -29.3650  -45.1185 O.2       12 UNK        -0.5000 
     74 N          -1.0273  -27.6493  -46.2895 N.am      13 UNK        -0.5000 
     75 CA         -1.0009  -28.2533  -47.6200 C.3       13 UNK         0.1400 
     76 CB          0.4190  -28.1010  -48.1961 C.3       13 UNK        -0.1800 
     77 C          -2.0654  -27.6178  -48.5387 C.2       13 UNK         0.5000 
     78 O          -1.8897  -27.6162  -49.7574 O.2       13 UNK        -0.5000 
     79 N          -3.1380  -27.0655  -47.9477 N.am      14 UNK        -0.5000 
     80 CA         -4.2668  -26.3989  -48.6092 C.3       14 UNK         0.1400 
     81 CB         -5.0914  -27.4098  -49.4337 C.3       14 UNK        -0.1800 
     82 C          -3.8250  -25.1705  -49.4306 C.2       14 UNK         0.5000 
     83 O          -4.1906  -25.0367  -50.5991 O.2       14 UNK        -0.5000 
     84 N          -3.0011  -24.3202  -48.8019 N.am      15 UNK        -0.5000 
     85 CA         -2.3455  -23.1382  -49.3734 C.3       15 UNK         0.1400 
     86 CB         -3.3789  -22.0715  -49.7916 C.3       15 UNK        -0.1800 
     87 C          -1.3703  -23.5221  -50.5023 C.2       15 UNK         0.5000 
     88 O          -1.3562  -22.8777  -51.5514 O.2       15 UNK        -0.5000 
     89 N          -0.6044  -24.5981  -50.2611 N.am      16 UNK        -0.5000 
     90 CA          0.3024  -25.2758  -51.1946 C.3       16 UNK         0.1400 
     91 CB          1.5603  -24.4207  -51.4478 C.3       16 UNK        -0.1800 
     92 C          -0.4169  -25.7105  -52.4896 C.2       16 UNK         0.5000 
     93 O           0.0303  -25.3860  -53.5904 O.2       16 UNK        -0.5000 
     94 N          -1.5442  -26.4146  -52.3116 N.am      17 UNK        -0.5000 
     95 CA         -2.4975  -26.8479  -53.3370 C.3       17 UNK         0.1400 
     96 CB         -1.8701  -27.9230  -54.2488 C.3       17 UNK        -0.1800 
     97 C          -3.1000  -25.6583  -54.1154 C.2       17 UNK         0.5000 
     98 O          -3.0918  -25.6520  -55.3482 O.2       17 UNK        -0.5000 
     99 N          -3.6082  -24.6727  -53.3613 N.am      18 UNK        -0.5000 
    100 CA        -4.2301  -23.4266  -53.8180 C.3       18 UNK         0.1400 
    101 CB        -5.5884  -23.7149  -54.4902 C.3       18 UNK        -0.1800 
    102 C         -3.2968  -22.5531  -54.6833 C.2       18 UNK         0.5000 
    103 O         -3.7274  -22.0065  -55.7012 O.2       18 UNK        -0.5000 
    104 N         -2.0315  -22.4261  -54.2594 N.am      19 UNK        -0.5000 
    105 CA        -1.0486  -21.5246  -54.8623 C.3       19 UNK         0.1400 
    106 CB         0.3623  -21.8918  -54.3809 C.3       19 UNK        -0.1800 
    107 C         -1.3673  -20.0551  -54.5375 C.2       19 UNK         0.5000 
    108 O         -1.2348  -19.1960  -55.4103 O.2       19 UNK        -0.5000 
    109 N         -1.8229  -19.8045  -53.3024 N.am      20 UNK        -0.5000 
    110 CA        -2.4448  -18.5479  -52.9002 C.3       20 UNK         0.1400 
    111 CB        -2.1567  -18.2760  -51.4144 C.3       20 UNK        -0.1800 
    112 C         -3.9538  -18.6659  -53.1615 C.2       20 UNK         0.5000 
    113 O         -4.5770  -19.6236  -52.6947 O.2       20 UNK        -0.5000 
    114 N         -4.5175  -17.6952  -53.8926 N.am      21 UNK        -0.5000 
    115 CA        -5.9283  -17.6626  -54.3008 C.3       21 UNK         0.1400 
    116 CB        -6.1392  -16.4938  -55.2755 C.3       21 UNK        -0.1800 
    117 C         -6.9222  -17.5715  -53.1251 C.2       21 UNK         0.5000 
    118 O         -8.0711  -17.9932  -53.2626 O.2       21 UNK        -0.5000 
    119 N         -6.4519  -17.0420  -51.9912 N.am      22 UNK        -0.5000 
    120 CA        -7.1468  -17.0253  -50.6980 C.3       22 UNK         0.1400 
    121 C         -7.2081  -18.4046  -49.9714 C.2       22 UNK         0.5000 
    122 N         -6.5136  -19.4425  -50.4264 N.am      22 UNK        -0.7600 
    123 O         -7.9150  -18.5374  -48.9763 O.2       22 UNK        -0.5000 
    124 C124       -6.5825  -15.9074  -49.7822 C.3       23 UNK        -0.0398 
    125 S125       -4.7801  -16.0448  -49.5087 S.3       23 UNK        -0.2404 
    126 C126       -4.7253  -16.6220  -47.7845 C.3       23 UNK        -0.0205 
    127 H127       -3.9365  -13.2732  -47.8785 H         1 UNK         0.0600 
    128 H128       -3.7328  -11.7177  -48.6932 H         1 UNK         0.0600 
    129 H129       -3.0450  -11.9651  -47.0884 H         1 UNK         0.0600 
    130 H130       -0.9202  -12.6929  -46.9572 H         1 UNK         0.3000 
    131 H131        0.3372  -14.1976  -49.1465 H         1 UNK         0.0600 
    132 H132        1.5948  -13.2754  -46.5106 H         1 UNK         0.0800 
    133 H133        2.2204  -14.4918  -47.5924 H         1 UNK         0.0800 
    134 H134        1.1446  -17.4096  -47.2328 H         1 UNK         0.0800 
    135 H135        0.4266  -16.3703  -48.4375 H         1 UNK         0.0800 
    136 H136       -2.1566  -15.7178  -47.9092 H         1 UNK         0.1150 
    137 H137       -4.4514  -19.2153  -46.9828 H         1 UNK         0.1150 
    138 H138       -0.1829  -19.2989  -46.6307 H         1 UNK         0.1150 
    139 H139       -3.2213  -21.3627  -46.7973 H         1 UNK         0.0800 
    140 H140       -1.4777  -21.3586  -46.6053 H         1 UNK         0.0800 
    141 H141       -3.7376  -22.9769  -43.9099 H         1 UNK         0.0800 
    142 H142       -2.1765  -22.8951  -43.1475 H         1 UNK         0.0800 
    143 H143       -2.6602  -23.5616  -46.0878 H         1 UNK         0.0600 
    144 H144       -0.2104  -22.9054  -44.7769 H         1 UNK         0.3000 
    145 H145        1.9860  -24.6995  -46.8767 H         1 UNK         0.0600 
    146 H146        1.2532  -21.7594  -47.3793 H         1 UNK         0.0600 
    147 H147        2.7534  -22.5547  -47.8580 H         1 UNK         0.0600 
    148 H148        1.2339  -23.0232  -48.5999 H         1 UNK         0.0600 
    149 H149        2.4873  -22.3712  -45.3520 H         1 UNK         0.3000 
    150 H150        2.1969  -23.5360  -42.0858 H         1 UNK         0.0600 
    151 H151        4.3877  -24.6077  -42.6491 H         1 UNK         0.0600 
    152 H152        4.6197  -23.0632  -41.8469 H         1 UNK         0.0600 
    153 H153        4.8473  -23.1947  -43.5916 H         1 UNK         0.0600 
    154 H154        3.4412  -21.2003  -43.0408 H         1 UNK         0.3000 
    155 H155        1.9716  -19.1598  -42.5142 H         1 UNK         0.0600 
    156 H156        3.2970  -19.4920  -44.5961 H         1 UNK         0.0600 
    157 H157        2.2286  -18.1261  -44.8401 H         1 UNK         0.0600 
    158 H158        1.8336  -19.6890  -45.5492 H         1 UNK         0.0600 
    159 H159       -0.5917  -19.7777  -43.6420 H         1 UNK         0.3000 
    160 H160       -2.1691  -18.0593  -44.1825 H         1 UNK         0.0600 
    161 H161       -3.5587  -17.6281  -42.1377 H         1 UNK         0.0600 
    162 H162       -2.1090  -17.2381  -41.2122 H         1 UNK         0.0600 
    163 H163       -2.3739  -18.8764  -41.8002 H         1 UNK         0.0600 
    164 H164       -0.9997  -15.5645  -43.6174 H         1 UNK         0.3000 
    165 H165       -2.4505  -13.9495  -45.5553 H         1 UNK         0.0600 
    166 H166       -4.5284  -13.2000  -43.4279 H         1 UNK         0.0600 
    167 H167       -3.9568  -12.1237  -44.7017 H         1 UNK         0.0600 
    168 H168       -4.8548  -13.5734  -45.1181 H         1 UNK         0.0600 
    169 H169       -1.7854  -13.6359  -42.6959 H         1 UNK         0.3000 
    170 H170       -0.3110  -11.9417  -42.0564 H         1 UNK         0.0600 
    171 H171        1.7909  -13.3476  -43.8036 H         1 UNK         0.0600 
    172 H172        1.9965  -12.9148  -42.1059 H         1 UNK         0.0600 
    173 H173        0.8075  -14.1190  -42.5682 H         1 UNK         0.0600 
    174 H174        1.8243  -10.9007  -43.6835 H         1 UNK         0.3000 
    175 H175        0.6193   -7.7311  -44.3133 H         1 UNK         0.0600 
    176 H176        2.3663   -8.2814  -41.8539 H         1 UNK         0.0600 
    177 H177        2.3199   -6.7756  -42.7723 H         1 UNK         0.0600 
    178 H178        0.9052   -7.3017  -41.8752 H         1 UNK         0.0600 
    179 H179        3.2796   -8.8611  -44.0539 H         1 UNK         0.3000 
    180 H180        4.3010   -8.9555  -46.5769 H         1 UNK         0.0600 
    181 H181        3.5292  -11.7068  -45.4018 H         1 UNK         0.0600 
    182 H182        4.5285  -10.5021  -44.5946 H         1 UNK         0.0600 
    183 H183        5.1218  -11.2995  -46.0299 H         1 UNK         0.0600 
    184 H184        2.2352  -10.3461  -47.9158 H         1 UNK         0.3000 
    185 H185        2.8090  -10.6557  -50.4582 H         1 UNK         0.0600 
    186 H186        3.8459  -12.4924  -51.7746 H         1 UNK         0.0600 
    187 H187        5.0479  -11.3042  -51.3016 H         1 UNK         0.0600 
    188 H188        4.9556  -12.8415  -50.4491 H         1 UNK         0.0600 
    189 H189        2.7911  -13.4144  -49.4576 H         1 UNK         0.3000 
    190 H190       -0.5664  -25.4484  -43.9999 H         1 UNK         0.3000 
    191 H191       -2.4507  -27.5413  -43.3716 H         1 UNK         0.0600 
    192 H192        0.6148  -27.5547  -43.4556 H         1 UNK         0.0600 
    193 H193       -0.3689  -27.1341  -42.0534 H         1 UNK         0.0600 
    194 H194       -0.4008  -28.7706  -42.6915 H         1 UNK         0.0600 
    195 H195       -0.7276  -26.6825  -46.2540 H         1 UNK         0.3000 
    196 H196       -1.2296  -29.3189  -47.5603 H         1 UNK         0.0600 
    197 H197        1.1586  -28.5624  -47.5417 H         1 UNK         0.0600 
    198 H198        0.6933  -27.0533  -48.3215 H         1 UNK         0.0600 
    199 H199        0.5054  -28.5844  -49.1700 H         1 UNK         0.0600 
    200 H200       -3.1803  -27.0858  -46.9372 H         1 UNK         0.3000 
    201 H201       -4.9104  -26.0195  -47.8141 H         1 UNK         0.0600 
    202 H202       -5.9925  -26.9431  -49.8334 H         1 UNK         0.0600 
    203 H203       -5.4083  -28.2529  -48.8201 H         1 UNK         0.0600 
    204 H204       -4.5271  -27.8039  -50.2794 H         1 UNK         0.0600 
    205 H205       -2.6712  -24.5925  -47.8866 H         1 UNK         0.3000 
    206 H206       -1.7330  -22.7067  -48.5828 H         1 UNK         0.0600 
    207 H207       -3.9730  -22.3879  -50.6480 H         1 UNK         0.0600 
    208 H208       -2.8810  -21.1434  -50.0677 H         1 UNK         0.0600 
    209 H209       -4.0668  -21.8409  -48.9792 H         1 UNK         0.0600 
    210 H210       -0.7000  -25.0335  -49.3512 H         1 UNK         0.3000 
    211 H211        0.6248  -26.1953  -50.7047 H         1 UNK         0.0600 
    212 H212        2.0940  -24.2223  -50.5190 H         1 UNK         0.0600 
    213 H213        2.2548  -24.9335  -52.1141 H         1 UNK         0.0600 
    214 H214        1.3151  -23.4629  -51.9045 H         1 UNK         0.0600 
    215 H215       -1.7908  -26.6721  -51.3579 H         1 UNK         0.3000 
    216 H216       -3.3261  -27.3144  -52.8022 H         1 UNK         0.0600 
    217 H217       -2.6106  -28.3276  -54.9395 H         1 UNK         0.0600 
    218 H218       -1.0506  -27.5229  -54.8465 H         1 UNK         0.0600 
    219 H219       -1.4826  -28.7570  -53.6637 H         1 UNK         0.0600 
    220 H220       -3.6012  -24.7975  -52.3508 H         1 UNK         0.3000 
    221 H221       -4.4324  -22.8429  -52.9196 H         1 UNK         0.0600 
    222 H222       -5.4699  -24.2621  -55.4258 H         1 UNK         0.0600 
    223 H223       -6.2336  -24.3019  -53.8366 H         1 UNK         0.0600 
    224 H224       -6.1162  -22.7877  -54.7168 H         1 UNK         0.0600 
    225 H225       -1.7607  -22.8667  -53.3831 H         1 UNK         0.3000 
    226 H226       -1.0821  -21.6503  -55.9465 H         1 UNK         0.0600 
    227 H227        0.6042  -22.9276  -54.6178 H         1 UNK         0.0600 
    228 H228        1.1131  -21.2639  -54.8619 H         1 UNK         0.0600 
    229 H229        0.4659  -21.7587  -53.3039 H         1 UNK         0.0600 
    230 H230       -1.9398  -20.5853  -52.6708 H         1 UNK         0.3000 
    231 H231       -2.0304  -17.7219  -53.4821 H         1 UNK         0.0600 
    232 H232       -2.5052  -17.2830  -51.1299 H         1 UNK         0.0600 
    233 H233       -1.0881  -18.3153  -51.2026 H         1 UNK         0.0600 
    234 H234       -2.6545  -18.9906  -50.7599 H         1 UNK         0.0600 
    235 H235       -3.9374  -16.9439  -54.2376 H         1 UNK         0.3000 
    236 H236       -6.1404  -18.5932  -54.8315 H         1 UNK         0.0600 
    237 H237       -5.5059  -16.5951  -56.1571 H         1 UNK         0.0600 
    238 H238       -7.1726  -16.4557  -55.6228 H         1 UNK         0.0600 
    239 H239       -5.9148  -15.5345  -54.8074 H         1 UNK         0.0600 
    240 H240       -5.4921  -16.7306  -51.9696 H         1 UNK         0.3000 
    241 H241       -8.1876  -16.7665  -50.9011 H         1 UNK         0.0600 
    242 H242       -6.5791  -20.3224  -49.9424 H         1 UNK         0.3800 
    243 H243       -5.9166  -19.3673  -51.2432 H         1 UNK         0.3800 
    244 H244       -6.7691  -14.9376  -50.2450 H         1 UNK         0.0800 
    245 H245       -7.1115  -15.8768  -48.8281 H         1 UNK         0.0800 
    246 H246       -5.5901  -17.2555  -47.5822 H         1 UNK         0.0800 
    247 H247       -4.8047  -15.7657  -47.1135 H         1 UNK         0.0800 
@<TRIPOS>BOND
     1    1    2 1    
     2    1  127 1    
     3    1  128 1    
     4    1  129 1    
     5    2    3 2    
     6    2    4 am   BACKBONE|DICT|INTERRES
     7    4    5 1    
     8    4  130 1    
     9    5    6 1    
    10    5   65 1    
    11    5  131 1    
    12    6    7 1    
    13    6  132 1    
    14    6  133 1    
    15    7    8 1    
    16    8    9 1    
    17    8  134 1    
    18    8  135 1    
    19    9   10 ar   
    20    9   14 ar   
    21   10   11 ar   
    22   10  136 1    
    23   11   12 ar   
    24   11  126 1    
    25   12   13 ar   
    26   12  137 1    
    27   13   14 ar   
    28   13   15 1    
    29   14  138 1    
    30   15   16 1    
    31   15  139 1    
    32   15  140 1    
    33   16   17 1    
    34   17   18 1    
    35   17  141 1    
    36   17  142 1    
    37   18   19 1    
    38   18   67 1    
    39   18  143 1    
    40   19   20 am   BACKBONE|DICT|INTERRES
    41   19  144 1    
    42   20   21 2    
    43   20   22 1    
    44   22   23 1    
    45   22   24 1    
    46   22  145 1    
    47   23  146 1    
    48   23  147 1    
    49   23  148 1    
    50   24   25 am   BACKBONE|DICT|INTERRES
    51   24  149 1    
    52   25   26 2    
    53   25   27 1    
    54   27   28 1    
    55   27   29 1    
    56   27  150 1    
    57   28  151 1    
    58   28  152 1    
    59   28  153 1    
    60   29   30 am   BACKBONE|DICT|INTERRES
    61   29  154 1    
    62   30   31 2    
    63   30   32 1    
    64   32   33 1    
    65   32   34 1    
    66   32  155 1    
    67   33  156 1    
    68   33  157 1    
    69   33  158 1    
    70   34   35 am   BACKBONE|DICT|INTERRES
    71   34  159 1    
    72   35   36 2    
    73   35   37 1    
    74   37   38 1    
    75   37   39 1    
    76   37  160 1    
    77   38  161 1    
    78   38  162 1    
    79   38  163 1    
    80   39   40 am   BACKBONE|DICT|INTERRES
    81   39  164 1    
    82   40   41 2    
    83   40   42 1    
    84   42   43 1    
    85   42   44 1    
    86   42  165 1    
    87   43  166 1    
    88   43  167 1    
    89   43  168 1    
    90   44   45 am   BACKBONE|DICT|INTERRES
    91   44  169 1    
    92   45   46 2    
    93   45   47 1    
    94   47   48 1    
    95   47   49 1    
    96   47  170 1    
    97   48  171 1    
    98   48  172 1    
    99   48  173 1    
   100   49   50 am   BACKBONE|DICT|INTERRES
   101   49  174 1    
   102   50   51 2    
   103   50   52 1    
   104   52   53 1    
   105   52   54 1    
   106   52  175 1    
   107   53  176 1    
   108   53  177 1    
   109   53  178 1    
   110   54   55 am   BACKBONE|DICT|INTERRES
   111   54  179 1    
   112   55   56 2    
   113   55   57 1    
   114   57   58 1    
   115   57   59 1    
   116   57  180 1    
   117   58  181 1    
   118   58  182 1    
   119   58  183 1    
   120   59   60 am   BACKBONE|DICT|INTERRES
   121   59  184 1    
   122   60   61 2    
   123   60   62 1    
   124   62   63 1    
   125   62   64 1    
   126   62  185 1    
   127   63  186 1    
   128   63  187 1    
   129   63  188 1    
   130   64   65 am   BACKBONE|DICT|INTERRES
   131   64  189 1    
   132   65   66 2    
   133   67   68 2    
   134   67   69 am   BACKBONE|DICT|INTERRES
   135   69   70 1    
   136   69  190 1    
   137   70   71 1    
   138   70   72 1    
   139   70  191 1    
   140   71  192 1    
   141   71  193 1    
   142   71  194 1    
   143   72   73 2    
   144   72   74 am   BACKBONE|DICT|INTERRES
   145   74   75 1    
   146   74  195 1    
   147   75   76 1    
   148   75   77 1    
   149   75  196 1    
   150   76  197 1    
   151   76  198 1    
   152   76  199 1    
   153   77   78 2    
   154   77   79 am   BACKBONE|DICT|INTERRES
   155   79   80 1    
   156   79  200 1    
   157   80   81 1    
   158   80   82 1    
   159   80  201 1    
   160   81  202 1    
   161   81  203 1    
   162   81  204 1    
   163   82   83 2    
   164   82   84 am   BACKBONE|DICT|INTERRES
   165   84   85 1    
   166   84  205 1    
   167   85   86 1    
   168   85   87 1    
   169   85  206 1    
   170   86  207 1    
   171   86  208 1    
   172   86  209 1    
   173   87   88 2    
   174   87   89 am   BACKBONE|DICT|INTERRES
   175   89   90 1    
   176   89  210 1    
   177   90   91 1    
   178   90   92 1    
   179   90  211 1    
   180   91  212 1    
   181   91  213 1    
   182   91  214 1    
   183   92   93 2    
   184   92   94 am   BACKBONE|DICT|INTERRES
   185   94   95 1    
   186   94  215 1    
   187   95   96 1    
   188   95   97 1    
   189   95  216 1    
   190   96  217 1    
   191   96  218 1    
   192   96  219 1    
   193   97   98 2    
   194   97   99 am   BACKBONE|DICT|INTERRES
   195   99  100 1    
   196   99  220 1    
   197  100  101 1    
   198  100  102 1    
   199  100  221 1    
   200  101  222 1    
   201  101  223 1    
   202  101  224 1    
   203  102  103 2    
   204  102  104 am   BACKBONE|DICT|INTERRES
   205  104  105 1    
   206  104  225 1    
   207  105  106 1    
   208  105  107 1    
   209  105  226 1    
   210  106  227 1    
   211  106  228 1    
   212  106  229 1    
   213  107  108 2    
   214  107  109 am   BACKBONE|DICT|INTERRES
   215  109  110 1    
   216  109  230 1    
   217  110  111 1    
   218  110  112 1    
   219  110  231 1    
   220  111  232 1    
   221  111  233 1    
   222  111  234 1    
   223  112  113 2    
   224  112  114 am   BACKBONE|DICT|INTERRES
   225  114  115 1    
   226  114  235 1    
   227  115  116 1    
   228  115  117 1    
   229  115  236 1    
   230  116  237 1    
   231  116  238 1    
   232  116  239 1    
   233  117  118 2    
   234  117  119 am   BACKBONE|DICT|INTERRES
   235  119  120 1    
   236  119  240 1    
   237  120  121 1    
   238  120  124 1    
   239  120  241 1    
   240  121  122 am   BACKBONE|DICT|INTERRES
   241  121  123 2    
   242  122  242 1    
   243  122  243 1    
   244  124  125 1    
   245  124  244 1    
   246  124  245 1    
   247  125  126 1    
   248  126  246 1    
   249  126  247 1    
@<TRIPOS>SUBSTRUCTURE
     1 UNK         1 GROUP             0       ****    0 ROOT    
