@<TRIPOS>MOLECULE
3R540
247   249    1
SMALL
USER_CHARGES


@<TRIPOS>ATOM
      1 CA         -3.1605  -18.1645  -47.1859 C.3       0 UNK        -0.1800 
      2 C          -2.5252  -16.7884  -47.2823 C.2       0 UNK         0.5000 
      3 O          -2.6619  -15.9913  -46.3559 O.2       0 UNK        -0.5000 
      4 N          -1.8405  -16.4995  -48.3987 N.am      1 UNK        -0.5000 
      5 CA         -1.0341  -15.2878  -48.6280 C.3       1 UNK         0.1400 
      6 C6          0.2020  -15.2313  -47.6836 C.3       23 UNK        -0.0398 
      7 S7          1.6462  -14.4108  -48.4361 S.3       23 UNK        -0.2404 
      8 C8          2.7923  -15.8084  -48.6610 C.3       23 UNK        -0.0205 
      9 C9          2.2328  -16.8859  -49.5797 C.ar      23 UNK        -0.0193 
     10 C10         1.8382  -16.5646  -50.8799 C.ar      23 UNK        -0.1150 
     11 C11         1.3497  -17.5498  -51.7389 C.ar      23 UNK        -0.0193 
     12 C12         1.2648  -18.8705  -51.2876 C.ar      23 UNK        -0.1150 
     13 C13         1.6532  -19.2156  -49.9875 C.ar      23 UNK        -0.0193 
     14 C14         2.1376  -18.2093  -49.1393 C.ar      23 UNK        -0.1150 
     15 C15         1.5842  -20.6893  -49.5736 C.3       23 UNK        -0.0205 
     16 S16         1.7620  -21.0347  -47.7870 S.3       23 UNK        -0.2404 
     17 C17         0.0797  -20.6914  -47.1771 C.3       23 UNK        -0.0398 
     18 CA         -0.7498  -21.9855  -46.9838 C.3       11 UNK         0.1400 
     19 N          -0.1244  -22.9656  -46.0880 N.am      11 UNK        -0.5000 
     20 C          -0.4128  -24.2748  -46.0947 C.2       10 UNK         0.5000 
     21 O          -1.1537  -24.7949  -46.9283 O.2       10 UNK        -0.5000 
     22 CA          0.2055  -25.1598  -44.9945 C.3       10 UNK         0.1400 
     23 CB          1.4597  -25.8746  -45.5132 C.3       10 UNK        -0.1800 
     24 N           0.5427  -24.4227  -43.7780 N.am      10 UNK        -0.5000 
     25 C          -0.3572  -23.9244  -42.9190 C.2       9 UNK         0.5000 
     26 O          -1.5719  -24.0666  -43.0463 O.2       9 UNK        -0.5000 
     27 CA          0.1948  -23.0598  -41.7685 C.3       9 UNK         0.1400 
     28 CB          0.5679  -23.9361  -40.5640 C.3       9 UNK        -0.1800 
     29 N           1.3540  -22.2512  -42.1641 N.am      9 UNK        -0.5000 
     30 C           1.3361  -21.3409  -43.1459 C.2       8 UNK         0.5000 
     31 O           0.3287  -21.0828  -43.8127 O.2       8 UNK        -0.5000 
     32 CA          2.6777  -20.6727  -43.4926 C.3       8 UNK         0.1400 
     33 CB          3.5469  -21.6273  -44.3269 C.3       8 UNK        -0.1800 
     34 N           2.4377  -19.4582  -44.2670 N.am      8 UNK        -0.5000 
     35 C           2.1330  -18.2758  -43.7231 C.2       7 UNK         0.5000 
     36 O           2.2171  -18.0290  -42.5175 O.2       7 UNK        -0.5000 
     37 CA          1.5862  -17.2066  -44.6855 C.3       7 UNK         0.1400 
     38 CB          0.0803  -17.0246  -44.4370 C.3       7 UNK        -0.1800 
     39 N           2.2656  -15.9189  -44.5368 N.am      7 UNK        -0.5000 
     40 C           3.5726  -15.7159  -44.7687 C.2       6 UNK         0.5000 
     41 O           4.3254  -16.5922  -45.1963 O.2       6 UNK        -0.5000 
     42 CA          4.1517  -14.3079  -44.5096 C.3       6 UNK         0.1400 
     43 CB          4.5107  -13.6160  -45.8343 C.3       6 UNK        -0.1800 
     44 N           3.2615  -13.4275  -43.7549 N.am      6 UNK        -0.5000 
     45 C           2.9794  -13.5367  -42.4502 C.2       5 UNK         0.5000 
     46 O           3.5146  -14.3573  -41.7046 O.2       5 UNK        -0.5000 
     47 CA          1.9120  -12.5762  -41.8817 C.3       5 UNK         0.1400 
     48 CB          2.5705  -11.4994  -41.0051 C.3       5 UNK        -0.1800 
     49 N           1.0790  -11.9139  -42.8946 N.am      5 UNK        -0.5000 
     50 C           0.2401  -12.5333  -43.7354 C.2       4 UNK         0.5000 
     51 O           0.1189  -13.7593  -43.7974 O.2       4 UNK        -0.5000 
     52 CA         -0.5383  -11.6273  -44.7075 C.3       4 UNK         0.1400 
     53 CB          0.3134  -11.3320  -45.9510 C.3       4 UNK        -0.1800 
     54 N          -1.7997  -12.2432  -45.1197 N.am      4 UNK        -0.5000 
     55 C          -2.8662  -12.3781  -44.3177 C.2       3 UNK         0.5000 
     56 O          -2.9253  -11.8820  -43.1906 O.2       3 UNK        -0.5000 
     57 CA         -4.0486  -13.2266  -44.8328 C.3       3 UNK         0.1400 
     58 CB         -5.4171  -12.7311  -44.3183 C.3       3 UNK        -0.1800 
     59 N          -4.0578  -13.4232  -46.2854 N.am      3 UNK        -0.5000 
     60 C          -4.2993  -12.5156  -47.2448 C.2       2 UNK         0.5000 
     61 O          -4.5926  -11.3404  -47.0210 O.2       2 UNK        -0.5000 
     62 CA         -4.1841  -13.0225  -48.7028 C.3       2 UNK         0.1400 
     63 CB         -3.9620  -11.8868  -49.7236 C.3       2 UNK        -0.1800 
     64 N          -3.1738  -14.0784  -48.8666 N.am      2 UNK        -0.5000 
     65 C          -1.8654  -13.9796  -48.5829 C.2       1 UNK         0.5000 
     66 O          -1.3360  -12.9243  -48.2369 O.2       1 UNK        -0.5000 
     67 C          -2.1638  -21.6545  -46.4776 C.2       11 UNK         0.5000 
     68 O          -3.1008  -21.6370  -47.2732 O.2       11 UNK        -0.5000 
     69 N          -2.3002  -21.4517  -45.1582 N.am      12 UNK        -0.5000 
     70 CA         -3.5734  -21.2086  -44.4735 C.3       12 UNK         0.1400 
     71 CB         -3.2987  -20.8524  -43.0052 C.3       12 UNK        -0.1800 
     72 C          -4.5555  -22.3922  -44.5828 C.2       12 UNK         0.5000 
     73 O          -5.7536  -22.1745  -44.7631 O.2       12 UNK        -0.5000 
     74 N          -4.0238  -23.6206  -44.5208 N.am      13 UNK        -0.5000 
     75 CA         -4.7544  -24.8701  -44.7511 C.3       13 UNK         0.1400 
     76 CB         -3.9315  -26.0333  -44.1747 C.3       13 UNK        -0.1800 
     77 C          -5.0760  -25.1368  -46.2375 C.2       13 UNK         0.5000 
     78 O          -5.8428  -26.0565  -46.5256 O.2       13 UNK        -0.5000 
     79 N          -4.4750  -24.3529  -47.1452 N.am      14 UNK        -0.5000 
     80 CA         -4.5455  -24.4503  -48.6054 C.3       14 UNK         0.1400 
     81 CB         -5.9624  -24.1202  -49.1166 C.3       14 UNK        -0.1800 
     82 C          -3.9920  -25.7869  -49.1478 C.2       14 UNK         0.5000 
     83 O          -4.5460  -26.3556  -50.0908 O.2       14 UNK        -0.5000 
     84 N          -2.9096  -26.2674  -48.5243 N.am      15 UNK        -0.5000 
     85 CA         -2.2085  -27.5002  -48.8718 C.3       15 UNK         0.1400 
     86 CB         -1.8392  -28.2426  -47.5773 C.3       15 UNK        -0.1800 
     87 C          -0.9479  -27.2094  -49.7029 C.2       15 UNK         0.5000 
     88 O          -0.6642  -27.9472  -50.6470 O.2       15 UNK        -0.5000 
     89 N          -0.2143  -26.1445  -49.3451 N.am      16 UNK        -0.5000 
     90 CA          1.0120  -25.7185  -50.0291 C.3       16 UNK         0.1400 
     91 CB          1.7963  -24.7593  -49.1204 C.3       16 UNK        -0.1800 
     92 C           0.7407  -25.0474  -51.3868 C.2       16 UNK         0.5000 
     93 O           1.5579  -25.1591  -52.3012 O.2       16 UNK        -0.5000 
     94 N          -0.3983  -24.3586  -51.4811 N.am      17 UNK        -0.5000 
     95 CA         -0.8900  -23.6126  -52.6316 C.3       17 UNK         0.1400 
     96 CB         -0.0883  -22.3076  -52.7884 C.3       17 UNK        -0.1800 
     97 C          -2.3758  -23.3246  -52.3685 C.2       17 UNK         0.5000 
     98 O          -2.8449  -23.5452  -51.2484 O.2       17 UNK        -0.5000 
     99 N          -3.0975  -22.8044  -53.3670 N.am      18 UNK        -0.5000 
    100 CA        -4.5173  -22.4519  -53.2691 C.3       18 UNK         0.1400 
    101 CB        -5.1525  -22.4875  -54.6701 C.3       18 UNK        -0.1800 
    102 C         -4.7295  -21.1089  -52.5372 C.2       18 UNK         0.5000 
    103 O         -5.2726  -20.1617  -53.1091 O.2       18 UNK        -0.5000 
    104 N         -4.2839  -21.0675  -51.2753 N.am      19 UNK        -0.5000 
    105 CA        -4.4011  -19.9897  -50.2944 C.3       19 UNK         0.1400 
    106 CB        -5.8563  -19.8766  -49.7927 C.3       19 UNK        -0.1800 
    107 C         -3.8224  -18.6458  -50.7788 C.2       19 UNK         0.5000 
    108 O         -2.6411  -18.3806  -50.5540 O.2       19 UNK        -0.5000 
    109 N         -4.6768  -17.8133  -51.3835 N.am      20 UNK        -0.5000 
    110 CA        -4.3739  -16.4556  -51.8316 C.3       20 UNK         0.1400 
    111 CB        -5.3762  -15.5063  -51.1539 C.3       20 UNK        -0.1800 
    112 C         -4.4463  -16.2999  -53.3628 C.2       20 UNK         0.5000 
    113 O         -4.1904  -15.2000  -53.8544 O.2       20 UNK        -0.5000 
    114 N         -4.8182  -17.3642  -54.0912 N.am      21 UNK        -0.5000 
    115 CA        -4.9481  -17.3657  -55.5509 C.3       21 UNK         0.1400 
    116 CB        -5.6347  -18.6521  -56.0352 C.3       21 UNK        -0.1800 
    117 C         -3.6397  -17.0698  -56.3248 C.2       21 UNK         0.5000 
    118 O         -3.6646  -16.1841  -57.1781 O.2       21 UNK        -0.5000 
    119 N         -2.4975  -17.7274  -56.0682 N.am      22 UNK        -0.5000 
    120 CA        -2.2660  -18.9335  -55.2494 C.3       22 UNK         0.1400 
    121 C         -2.2598  -20.2442  -56.0932 C.2       22 UNK         0.5000 
    122 N         -2.5235  -20.2068  -57.3934 N.am      22 UNK        -0.7600 
    123 O         -2.0267  -21.3229  -55.5576 O.2       22 UNK        -0.5000 
    124 C124       -0.9673  -18.8223  -54.4072 C.3       23 UNK        -0.0398 
    125 S125       -0.8431  -17.2863  -53.4280 S.3       23 UNK        -0.2404 
    126 C126        0.9562  -17.1835  -53.1627 C.3       23 UNK        -0.0205 
    127 H127       -3.0524  -18.5508  -46.1731 H         1 UNK         0.0600 
    128 H128       -2.6830  -18.8698  -47.8640 H         1 UNK         0.0600 
    129 H129       -4.2225  -18.1117  -47.4232 H         1 UNK         0.0600 
    130 H130       -1.8304  -17.1784  -49.1562 H         1 UNK         0.3000 
    131 H131       -0.6784  -15.3810  -49.6552 H         1 UNK         0.0600 
    132 H132        0.4996  -16.2410  -47.4020 H         1 UNK         0.0800 
    133 H133       -0.0354  -14.7273  -46.7453 H         1 UNK         0.0800 
    134 H134        3.0437  -16.2219  -47.6841 H         1 UNK         0.0800 
    135 H135        3.7251  -15.4337  -49.0839 H         1 UNK         0.0800 
    136 H136        1.9197  -15.5426  -51.2228 H         1 UNK         0.1150 
    137 H137        0.9061  -19.6338  -51.9614 H         1 UNK         0.1150 
    138 H138        2.4668  -18.4484  -48.1395 H         1 UNK         0.1150 
    139 H139        0.6463  -21.1256  -49.9188 H         1 UNK         0.0800 
    140 H140        2.3788  -21.2220  -50.0974 H         1 UNK         0.0800 
    141 H141        0.1657  -20.1388  -46.2412 H         1 UNK         0.0800 
    142 H142       -0.4188  -20.0174  -47.8764 H         1 UNK         0.0800 
    143 H143       -0.8607  -22.4453  -47.9689 H         1 UNK         0.0600 
    144 H144        0.4538  -22.5900  -45.3494 H         1 UNK         0.3000 
    145 H145       -0.5324  -25.9221  -44.7368 H         1 UNK         0.0600 
    146 H146        1.8691  -26.5475  -44.7596 H         1 UNK         0.0600 
    147 H147        1.2284  -26.4795  -46.3909 H         1 UNK         0.0600 
    148 H148        2.2415  -25.1663  -45.7903 H         1 UNK         0.0600 
    149 H149        1.5223  -24.2586  -43.5993 H         1 UNK         0.3000 
    150 H150       -0.5987  -22.3755  -41.4613 H         1 UNK         0.0600 
    151 H151       -0.2840  -24.5348  -40.2387 H         1 UNK         0.0600 
    152 H152        0.8785  -23.3275  -39.7146 H         1 UNK         0.0600 
    153 H153        1.3811  -24.6233  -40.8009 H         1 UNK         0.0600 
    154 H154        2.2148  -22.4213  -41.6637 H         1 UNK         0.3000 
    155 H155        3.2055  -20.4277  -42.5684 H         1 UNK         0.0600 
    156 H156        3.0345  -21.9612  -45.2295 H         1 UNK         0.0600 
    157 H157        3.8139  -22.5169  -43.7554 H         1 UNK         0.0600 
    158 H158        4.4782  -21.1483  -44.6299 H         1 UNK         0.0600 
    159 H159        2.3260  -19.5869  -45.2615 H         1 UNK         0.3000 
    160 H160        1.7299  -17.5413  -45.7146 H         1 UNK         0.0600 
    161 H161       -0.4648  -17.9489  -44.6343 H         1 UNK         0.0600 
    162 H162       -0.3442  -16.2532  -45.0739 H         1 UNK         0.0600 
    163 H163       -0.1241  -16.7369  -43.4048 H         1 UNK         0.0600 
    164 H164        1.7045  -15.1540  -44.1800 H         1 UNK         0.3000 
    165 H165        5.0709  -14.4402  -43.9352 H         1 UNK         0.0600 
    166 H166        3.6223  -13.4020  -46.4285 H         1 UNK         0.0600 
    167 H167        5.0300  -12.6739  -45.6582 H         1 UNK         0.0600 
    168 H168        5.1692  -14.2395  -46.4405 H         1 UNK         0.0600 
    169 H169        2.7738  -12.7204  -44.2837 H         1 UNK         0.3000 
    170 H170        1.2509  -13.1734  -41.2503 H         1 UNK         0.0600 
    171 H171        3.1711  -11.9505  -40.2140 H         1 UNK         0.0600 
    172 H172        3.2281  -10.8537  -41.5884 H         1 UNK         0.0600 
    173 H173        1.8223  -10.8706  -40.5221 H         1 UNK         0.0600 
    174 H174        1.1379  -10.9059  -42.9233 H         1 UNK         0.3000 
    175 H175       -0.7628  -10.6826  -44.2078 H         1 UNK         0.0600 
    176 H176       -0.2332  -10.7202  -46.6690 H         1 UNK         0.0600 
    177 H177        1.2211  -10.7886  -45.6863 H         1 UNK         0.0600 
    178 H178        0.6179  -12.2486  -46.4569 H         1 UNK         0.0600 
    179 H179       -1.8145  -12.6736  -46.0352 H         1 UNK         0.3000 
    180 H180       -3.8911  -14.2207  -44.4120 H         1 UNK         0.0600 
    181 H181       -5.4631  -12.7731  -43.2296 H         1 UNK         0.0600 
    182 H182       -5.6130  -11.6993  -44.6103 H         1 UNK         0.0600 
    183 H183       -6.2299  -13.3496  -44.6988 H         1 UNK         0.0600 
    184 H184       -3.7553  -14.3497  -46.5713 H         1 UNK         0.3000 
    185 H185       -5.1476  -13.4795  -48.9296 H         1 UNK         0.0600 
    186 H186       -3.0536  -11.3222  -49.5119 H         1 UNK         0.0600 
    187 H187       -3.8850  -12.2774  -50.7382 H         1 UNK         0.0600 
    188 H188       -4.7939  -11.1818  -49.7109 H         1 UNK         0.0600 
    189 H189       -3.5241  -14.9928  -49.1105 H         1 UNK         0.3000 
    190 H190       -1.4671  -21.4606  -44.5776 H         1 UNK         0.3000 
    191 H191       -4.0477  -20.3479  -44.9481 H         1 UNK         0.0600 
    192 H192       -4.2254  -20.6146  -42.4816 H         1 UNK         0.0600 
    193 H193       -2.6465  -19.9822  -42.9260 H         1 UNK         0.0600 
    194 H194       -2.8233  -21.6762  -42.4727 H         1 UNK         0.0600 
    195 H195       -3.0448  -23.7123  -44.2652 H         1 UNK         0.3000 
    196 H196       -5.7033  -24.8211  -44.2133 H         1 UNK         0.0600 
    197 H197       -4.4629  -26.9803  -44.2771 H         1 UNK         0.0600 
    198 H198       -3.7310  -25.8882  -43.1130 H         1 UNK         0.0600 
    199 H199       -2.9745  -26.1377  -44.6867 H         1 UNK         0.0600 
    200 H200       -3.8854  -23.6055  -46.8021 H         1 UNK         0.3000 
    201 H201       -3.8796  -23.6699  -48.9699 H         1 UNK         0.0600 
    202 H202       -6.3178  -23.1751  -48.7070 H         1 UNK         0.0600 
    203 H203       -6.6813  -24.8944  -48.8475 H         1 UNK         0.0600 
    204 H204       -5.9705  -24.0268  -50.2032 H         1 UNK         0.0600 
    205 H205       -2.4878  -25.7078  -47.7874 H         1 UNK         0.3000 
    206 H206       -2.8587  -28.1508  -49.4603 H         1 UNK         0.0600 
    207 H207       -2.7302  -28.4900  -46.9999 H         1 UNK         0.0600 
    208 H208       -1.3231  -29.1780  -47.7971 H         1 UNK         0.0600 
    209 H209       -1.1844  -27.6472  -46.9400 H         1 UNK         0.0600 
    210 H210       -0.5145  -25.5942  -48.5470 H         1 UNK         0.3000 
    211 H211        1.6333  -26.5976  -50.2133 H         1 UNK         0.0600 
    212 H212        1.1886  -23.9085  -48.8116 H         1 UNK         0.0600 
    213 H213        2.6761  -24.3640  -49.6301 H         1 UNK         0.0600 
    214 H214        2.1502  -25.2670  -48.2257 H         1 UNK         0.0600 
    215 H215       -1.0494  -24.3667  -50.7051 H         1 UNK         0.3000 
    216 H216       -0.7946  -24.2292  -53.5274 H         1 UNK         0.0600 
    217 H217       -0.2612  -21.8678  -53.7680 H         1 UNK         0.0600 
    218 H218        0.9861  -22.4705  -52.7065 H         1 UNK         0.0600 
    219 H219       -0.3742  -21.5728  -52.0359 H         1 UNK         0.0600 
    220 H220       -2.6334  -22.5338  -54.2312 H         1 UNK         0.3000 
    221 H221       -5.0255  -23.2140  -52.6741 H         1 UNK         0.0600 
    222 H222       -4.6767  -21.7857  -55.3520 H         1 UNK         0.0600 
    223 H223       -5.0737  -23.4816  -55.1100 H         1 UNK         0.0600 
    224 H224       -6.2129  -22.2358  -54.6267 H         1 UNK         0.0600 
    225 H225       -3.7977  -21.8984  -50.9507 H         1 UNK         0.3000 
    226 H226       -3.7902  -20.2940  -49.4451 H         1 UNK         0.0600 
    227 H227       -6.1590  -20.7888  -49.2794 H         1 UNK         0.0600 
    228 H228       -5.9650  -19.0583  -49.0798 H         1 UNK         0.0600 
    229 H229       -6.5642  -19.7066  -50.6043 H         1 UNK         0.0600 
    230 H230       -5.6169  -18.1424  -51.5539 H         1 UNK         0.3000 
    231 H231       -3.3648  -16.1689  -51.5281 H         1 UNK         0.0600 
    232 H232       -5.1336  -14.4640  -51.3637 H         1 UNK         0.0600 
    233 H233       -5.3741  -15.6355  -50.0721 H         1 UNK         0.0600 
    234 H234       -6.3941  -15.6824  -51.5039 H         1 UNK         0.0600 
    235 H235       -4.9933  -18.2482  -53.6236 H         1 UNK         0.3000 
    236 H236       -5.6317  -16.5486  -55.7918 H         1 UNK         0.0600 
    237 H237       -5.0777  -19.5439  -55.7596 H         1 UNK         0.0600 
    238 H238       -6.6344  -18.7455  -55.6108 H         1 UNK         0.0600 
    239 H239       -5.7410  -18.6549  -57.1207 H         1 UNK         0.0600 
    240 H240       -1.6803  -17.4276  -56.5779 H         1 UNK         0.3000 
    241 H241       -3.0756  -19.0731  -54.5396 H         1 UNK         0.0600 
    242 H242       -2.7123  -19.3345  -57.8609 H         1 UNK         0.3800 
    243 H243       -2.5169  -21.0655  -57.9210 H         1 UNK         0.3800 
    244 H244       -0.9030  -19.6535  -53.7059 H         1 UNK         0.0800 
    245 H245       -0.0977  -18.8984  -55.0619 H         1 UNK         0.0800 
    246 H246        1.4959  -17.8241  -53.8605 H         1 UNK         0.0800 
    247 H247        1.2726  -16.1650  -53.3926 H         1 UNK         0.0800 
@<TRIPOS>BOND
     1    1    2 1    
     2    1  127 1    
     3    1  128 1    
     4    1  129 1    
     5    2    3 2    
     6    2    4 am   BACKBONE|DICT|INTERRES
     7    4    5 1    
     8    4  130 1    
     9    5    6 1    
    10    5   65 1    
    11    5  131 1    
    12    6    7 1    
    13    6  132 1    
    14    6  133 1    
    15    7    8 1    
    16    8    9 1    
    17    8  134 1    
    18    8  135 1    
    19    9   10 ar   
    20    9   14 ar   
    21   10   11 ar   
    22   10  136 1    
    23   11   12 ar   
    24   11  126 1    
    25   12   13 ar   
    26   12  137 1    
    27   13   14 ar   
    28   13   15 1    
    29   14  138 1    
    30   15   16 1    
    31   15  139 1    
    32   15  140 1    
    33   16   17 1    
    34   17   18 1    
    35   17  141 1    
    36   17  142 1    
    37   18   19 1    
    38   18   67 1    
    39   18  143 1    
    40   19   20 am   BACKBONE|DICT|INTERRES
    41   19  144 1    
    42   20   21 2    
    43   20   22 1    
    44   22   23 1    
    45   22   24 1    
    46   22  145 1    
    47   23  146 1    
    48   23  147 1    
    49   23  148 1    
    50   24   25 am   BACKBONE|DICT|INTERRES
    51   24  149 1    
    52   25   26 2    
    53   25   27 1    
    54   27   28 1    
    55   27   29 1    
    56   27  150 1    
    57   28  151 1    
    58   28  152 1    
    59   28  153 1    
    60   29   30 am   BACKBONE|DICT|INTERRES
    61   29  154 1    
    62   30   31 2    
    63   30   32 1    
    64   32   33 1    
    65   32   34 1    
    66   32  155 1    
    67   33  156 1    
    68   33  157 1    
    69   33  158 1    
    70   34   35 am   BACKBONE|DICT|INTERRES
    71   34  159 1    
    72   35   36 2    
    73   35   37 1    
    74   37   38 1    
    75   37   39 1    
    76   37  160 1    
    77   38  161 1    
    78   38  162 1    
    79   38  163 1    
    80   39   40 am   BACKBONE|DICT|INTERRES
    81   39  164 1    
    82   40   41 2    
    83   40   42 1    
    84   42   43 1    
    85   42   44 1    
    86   42  165 1    
    87   43  166 1    
    88   43  167 1    
    89   43  168 1    
    90   44   45 am   BACKBONE|DICT|INTERRES
    91   44  169 1    
    92   45   46 2    
    93   45   47 1    
    94   47   48 1    
    95   47   49 1    
    96   47  170 1    
    97   48  171 1    
    98   48  172 1    
    99   48  173 1    
   100   49   50 am   BACKBONE|DICT|INTERRES
   101   49  174 1    
   102   50   51 2    
   103   50   52 1    
   104   52   53 1    
   105   52   54 1    
   106   52  175 1    
   107   53  176 1    
   108   53  177 1    
   109   53  178 1    
   110   54   55 am   BACKBONE|DICT|INTERRES
   111   54  179 1    
   112   55   56 2    
   113   55   57 1    
   114   57   58 1    
   115   57   59 1    
   116   57  180 1    
   117   58  181 1    
   118   58  182 1    
   119   58  183 1    
   120   59   60 am   BACKBONE|DICT|INTERRES
   121   59  184 1    
   122   60   61 2    
   123   60   62 1    
   124   62   63 1    
   125   62   64 1    
   126   62  185 1    
   127   63  186 1    
   128   63  187 1    
   129   63  188 1    
   130   64   65 am   BACKBONE|DICT|INTERRES
   131   64  189 1    
   132   65   66 2    
   133   67   68 2    
   134   67   69 am   BACKBONE|DICT|INTERRES
   135   69   70 1    
   136   69  190 1    
   137   70   71 1    
   138   70   72 1    
   139   70  191 1    
   140   71  192 1    
   141   71  193 1    
   142   71  194 1    
   143   72   73 2    
   144   72   74 am   BACKBONE|DICT|INTERRES
   145   74   75 1    
   146   74  195 1    
   147   75   76 1    
   148   75   77 1    
   149   75  196 1    
   150   76  197 1    
   151   76  198 1    
   152   76  199 1    
   153   77   78 2    
   154   77   79 am   BACKBONE|DICT|INTERRES
   155   79   80 1    
   156   79  200 1    
   157   80   81 1    
   158   80   82 1    
   159   80  201 1    
   160   81  202 1    
   161   81  203 1    
   162   81  204 1    
   163   82   83 2    
   164   82   84 am   BACKBONE|DICT|INTERRES
   165   84   85 1    
   166   84  205 1    
   167   85   86 1    
   168   85   87 1    
   169   85  206 1    
   170   86  207 1    
   171   86  208 1    
   172   86  209 1    
   173   87   88 2    
   174   87   89 am   BACKBONE|DICT|INTERRES
   175   89   90 1    
   176   89  210 1    
   177   90   91 1    
   178   90   92 1    
   179   90  211 1    
   180   91  212 1    
   181   91  213 1    
   182   91  214 1    
   183   92   93 2    
   184   92   94 am   BACKBONE|DICT|INTERRES
   185   94   95 1    
   186   94  215 1    
   187   95   96 1    
   188   95   97 1    
   189   95  216 1    
   190   96  217 1    
   191   96  218 1    
   192   96  219 1    
   193   97   98 2    
   194   97   99 am   BACKBONE|DICT|INTERRES
   195   99  100 1    
   196   99  220 1    
   197  100  101 1    
   198  100  102 1    
   199  100  221 1    
   200  101  222 1    
   201  101  223 1    
   202  101  224 1    
   203  102  103 2    
   204  102  104 am   BACKBONE|DICT|INTERRES
   205  104  105 1    
   206  104  225 1    
   207  105  106 1    
   208  105  107 1    
   209  105  226 1    
   210  106  227 1    
   211  106  228 1    
   212  106  229 1    
   213  107  108 2    
   214  107  109 am   BACKBONE|DICT|INTERRES
   215  109  110 1    
   216  109  230 1    
   217  110  111 1    
   218  110  112 1    
   219  110  231 1    
   220  111  232 1    
   221  111  233 1    
   222  111  234 1    
   223  112  113 2    
   224  112  114 am   BACKBONE|DICT|INTERRES
   225  114  115 1    
   226  114  235 1    
   227  115  116 1    
   228  115  117 1    
   229  115  236 1    
   230  116  237 1    
   231  116  238 1    
   232  116  239 1    
   233  117  118 2    
   234  117  119 am   BACKBONE|DICT|INTERRES
   235  119  120 1    
   236  119  240 1    
   237  120  121 1    
   238  120  124 1    
   239  120  241 1    
   240  121  122 am   BACKBONE|DICT|INTERRES
   241  121  123 2    
   242  122  242 1    
   243  122  243 1    
   244  124  125 1    
   245  124  244 1    
   246  124  245 1    
   247  125  126 1    
   248  126  246 1    
   249  126  247 1    
@<TRIPOS>SUBSTRUCTURE
     1 UNK         1 GROUP             0       ****    0 ROOT    
