@<TRIPOS>MOLECULE
3R540
247   249    1
SMALL
USER_CHARGES


@<TRIPOS>ATOM
      1 CA         -1.1605   -8.4964  -43.7635 C.3       0 UNK        -0.1800 
      2 C          -0.6071   -8.6861  -45.1690 C.2       0 UNK         0.5000 
      3 O           0.2762   -7.9363  -45.5862 O.2       0 UNK        -0.5000 
      4 N          -1.1327   -9.6765  -45.8995 N.am      1 UNK        -0.5000 
      5 CA         -0.6903  -10.0704  -47.2408 C.3       1 UNK         0.1400 
      6 C6         -1.8340  -10.7622  -48.0323 C.3       23 UNK        -0.0398 
      7 S7         -2.4711  -12.3028  -47.2831 S.3       23 UNK        -0.2404 
      8 C8         -3.4704  -12.9630  -48.6632 C.3       23 UNK        -0.0205 
      9 C9         -3.0440  -14.3633  -49.0892 C.ar      23 UNK        -0.0193 
     10 C10        -1.7190  -14.6238  -49.4538 C.ar      23 UNK        -0.1150 
     11 C11        -1.3281  -15.9051  -49.8524 C.ar      23 UNK        -0.0193 
     12 C12        -2.2750  -16.9327  -49.8905 C.ar      23 UNK        -0.1150 
     13 C13        -3.6047  -16.6879  -49.5337 C.ar      23 UNK        -0.0193 
     14 C14        -3.9827  -15.4005  -49.1383 C.ar      23 UNK        -0.1150 
     15 C15        -4.6350  -17.8097  -49.5899 C.3       23 UNK        -0.0205 
     16 S16        -5.0947  -18.4260  -47.9364 S.3       23 UNK        -0.2404 
     17 C17        -3.5715  -19.2817  -47.4168 C.3       23 UNK        -0.0398 
     18 CA         -3.7187  -20.8234  -47.3893 C.3       11 UNK         0.1400 
     19 N          -2.5502  -21.4740  -47.9910 N.am      11 UNK        -0.5000 
     20 C          -2.3253  -22.7914  -48.0808 C.2       10 UNK         0.5000 
     21 O          -3.1557  -23.6484  -47.7812 O.2       10 UNK        -0.5000 
     22 CA         -0.9161  -23.2301  -48.5261 C.3       10 UNK         0.1400 
     23 CB         -0.9416  -23.6625  -49.9962 C.3       10 UNK        -0.1800 
     24 N           0.1226  -22.2072  -48.3637 N.am      10 UNK        -0.5000 
     25 C           0.4601  -21.5700  -47.2334 C.2       9 UNK         0.5000 
     26 O          -0.0577  -21.7914  -46.1349 O.2       9 UNK        -0.5000 
     27 CA          1.4851  -20.4414  -47.4118 C.3       9 UNK         0.1400 
     28 CB          0.8587  -19.2813  -48.2041 C.3       9 UNK        -0.1800 
     29 N           1.9557  -19.9303  -46.1275 N.am      9 UNK        -0.5000 
     30 C           3.1053  -20.2839  -45.5382 C.2       8 UNK         0.5000 
     31 O           3.8943  -21.0957  -46.0245 O.2       8 UNK        -0.5000 
     32 CA          3.4582  -19.6134  -44.1948 C.3       8 UNK         0.1400 
     33 CB          4.7499  -18.7867  -44.3119 C.3       8 UNK        -0.1800 
     34 N           2.3882  -18.7466  -43.6977 N.am      8 UNK        -0.5000 
     35 C           1.4223  -19.1496  -42.8629 C.2       7 UNK         0.5000 
     36 O           1.3553  -20.2867  -42.3955 O.2       7 UNK        -0.5000 
     37 CA          0.3487  -18.1162  -42.4788 C.3       7 UNK         0.1400 
     38 CB          0.7451  -17.3952  -41.1826 C.3       7 UNK        -0.1800 
     39 N           0.0797  -17.1231  -43.5195 N.am      7 UNK        -0.5000 
     40 C          -0.5046  -17.3815  -44.6978 C.2       6 UNK         0.5000 
     41 O          -0.8015  -18.5196  -45.0646 O.2       6 UNK        -0.5000 
     42 CA         -0.7994  -16.1961  -45.6422 C.3       6 UNK         0.1400 
     43 CB         -2.2605  -16.2033  -46.1219 C.3       6 UNK        -0.1800 
     44 N          -0.4504  -14.8765  -45.1150 N.am      6 UNK        -0.5000 
     45 C          -1.0325  -14.1970  -44.1169 C.2       5 UNK         0.5000 
     46 O          -1.9693  -14.6232  -43.4396 O.2       5 UNK        -0.5000 
     47 CA         -0.4219  -12.8118  -43.8261 C.3       5 UNK         0.1400 
     48 CB         -0.9608  -12.1568  -42.5372 C.3       5 UNK        -0.1800 
     49 N           1.0448  -12.8512  -43.8289 N.am      5 UNK        -0.5000 
     50 C           1.8208  -13.5870  -43.0181 C.2       4 UNK         0.5000 
     51 O           1.3856  -14.2850  -42.1016 O.2       4 UNK        -0.5000 
     52 CA          3.3308  -13.5676  -43.3261 C.3       4 UNK         0.1400 
     53 CB          4.1594  -14.4171  -42.3381 C.3       4 UNK        -0.1800 
     54 N           3.6152  -13.9656  -44.7091 N.am      4 UNK        -0.5000 
     55 C           3.3125  -15.1337  -45.2977 C.2       3 UNK         0.5000 
     56 O           2.7310  -16.0642  -44.7368 O.2       3 UNK        -0.5000 
     57 CA          3.7314  -15.2617  -46.7775 C.3       3 UNK         0.1400 
     58 CB          3.1278  -16.4994  -47.4701 C.3       3 UNK        -0.1800 
     59 N           3.4450  -14.0474  -47.5514 N.am      3 UNK        -0.5000 
     60 C           2.2378  -13.5026  -47.7582 C.2       2 UNK         0.5000 
     61 O           1.1850  -13.9772  -47.3275 O.2       2 UNK        -0.5000 
     62 CA          2.2193  -12.2177  -48.6100 C.3       2 UNK         0.1400 
     63 CB          2.2868  -12.5740  -50.1038 C.3       2 UNK        -0.1800 
     64 N           1.0382  -11.3804  -48.3900 N.am      2 UNK        -0.5000 
     65 C           0.6290  -10.8848  -47.2136 C.2       1 UNK         0.5000 
     66 O           1.2525  -11.0436  -46.1583 O.2       1 UNK        -0.5000 
     67 C          -3.9960  -21.3215  -45.9527 C.2       11 UNK         0.5000 
     68 O          -5.1507  -21.5560  -45.5971 O.2       11 UNK        -0.5000 
     69 N          -2.9194  -21.5092  -45.1789 N.am      12 UNK        -0.5000 
     70 CA         -2.9500  -22.0920  -43.8439 C.3       12 UNK         0.1400 
     71 CB         -2.0636  -21.2524  -42.9129 C.3       12 UNK        -0.1800 
     72 C          -2.4728  -23.5513  -43.8840 C.2       12 UNK         0.5000 
     73 O          -3.1521  -24.4243  -43.3440 O.2       12 UNK        -0.5000 
     74 N          -1.3241  -23.7973  -44.5323 N.am      13 UNK        -0.5000 
     75 CA         -0.6043  -25.0747  -44.5012 C.3       13 UNK         0.1400 
     76 CB          0.8026  -24.8743  -45.0859 C.3       13 UNK        -0.1800 
     77 C          -1.3233  -26.2462  -45.1982 C.2       13 UNK         0.5000 
     78 O          -1.0682  -27.3979  -44.8441 O.2       13 UNK        -0.5000 
     79 N          -2.2058  -25.9427  -46.1572 N.am      14 UNK        -0.5000 
     80 CA         -3.0345  -26.9101  -46.8786 C.3       14 UNK         0.1400 
     81 CB         -2.5380  -27.0163  -48.3326 C.3       14 UNK        -0.1800 
     82 C          -4.5227  -26.5190  -46.8116 C.2       14 UNK         0.5000 
     83 O          -5.3056  -26.9837  -47.6398 O.2       14 UNK        -0.5000 
     84 N          -4.8890  -25.6459  -45.8582 N.am      15 UNK        -0.5000 
     85 CA         -6.2369  -25.1119  -45.6182 C.3       15 UNK         0.1400 
     86 CB         -7.1308  -26.2021  -44.9923 C.3       15 UNK        -0.1800 
     87 C          -6.8839  -24.4518  -46.8593 C.2       15 UNK         0.5000 
     88 O          -8.1014  -24.5267  -47.0329 O.2       15 UNK        -0.5000 
     89 N          -6.0459  -23.8370  -47.7068 N.am      16 UNK        -0.5000 
     90 CA         -6.3727  -23.1620  -48.9648 C.3       16 UNK         0.1400 
     91 CB         -7.3664  -22.0005  -48.7476 C.3       16 UNK        -0.1800 
     92 C          -6.7907  -24.1055  -50.1093 C.2       16 UNK         0.5000 
     93 O          -7.2722  -23.6229  -51.1351 O.2       16 UNK        -0.5000 
     94 N          -6.5401  -25.4170  -49.9700 N.am      17 UNK        -0.5000 
     95 CA         -6.7698  -26.4116  -51.0249 C.3       17 UNK         0.1400 
     96 CB         -6.6852  -27.8224  -50.4242 C.3       17 UNK        -0.1800 
     97 C          -5.7922  -26.2758  -52.2113 C.2       17 UNK         0.5000 
     98 O          -6.1050  -26.7387  -53.3087 O.2       17 UNK        -0.5000 
     99 N          -4.6391  -25.6386  -51.9711 N.am      18 UNK        -0.5000 
    100 CA        -3.5909  -25.3680  -52.9528 C.3       18 UNK         0.1400 
    101 CB        -2.4251  -26.3499  -52.7317 C.3       18 UNK        -0.1800 
    102 C         -3.1524  -23.8930  -52.8844 C.2       18 UNK         0.5000 
    103 O         -1.9755  -23.5945  -53.0851 O.2       18 UNK        -0.5000 
    104 N         -4.1017  -22.9834  -52.6055 N.am      19 UNK        -0.5000 
    105 CA        -3.8886  -21.5353  -52.4425 C.3       19 UNK         0.1400 
    106 CB        -5.2333  -20.8607  -52.1347 C.3       19 UNK        -0.1800 
    107 C         -3.2042  -20.8333  -53.6352 C.2       19 UNK         0.5000 
    108 O         -2.5296  -19.8209  -53.4401 O.2       19 UNK        -0.5000 
    109 N         -3.3401  -21.4176  -54.8342 N.am      20 UNK        -0.5000 
    110 CA        -2.6689  -21.0229  -56.0757 C.3       20 UNK         0.1400 
    111 CB        -3.2133  -21.8908  -57.2213 C.3       20 UNK        -0.1800 
    112 C         -1.1255  -21.0958  -56.0273 C.2       20 UNK         0.5000 
    113 O         -0.4747  -20.5443  -56.9151 O.2       20 UNK        -0.5000 
    114 N         -0.5610  -21.7490  -54.9993 N.am      21 UNK        -0.5000 
    115 CA         0.8707  -21.7676  -54.6950 C.3       21 UNK         0.1400 
    116 CB         1.1290  -22.7874  -53.5746 C.3       21 UNK        -0.1800 
    117 C          1.4451  -20.3878  -54.3052 C.2       21 UNK         0.5000 
    118 O          2.6567  -20.1969  -54.4192 O.2       21 UNK        -0.5000 
    119 N          0.5896  -19.4569  -53.8544 N.am      22 UNK        -0.5000 
    120 CA         0.9512  -18.0566  -53.5897 C.3       22 UNK         0.1400 
    121 C          1.3278  -17.3006  -54.8972 C.2       22 UNK         0.5000 
    122 N          2.4908  -16.6651  -54.9492 N.am      22 UNK        -0.7600 
    123 O          0.5562  -17.2605  -55.8527 O.2       22 UNK        -0.5000 
    124 C124       -0.1750  -17.3245  -52.8158 C.3       23 UNK        -0.0398 
    125 S125        0.4291  -15.8089  -51.9875 S.3       23 UNK        -0.2404 
    126 C126        0.1193  -16.1725  -50.2329 C.3       23 UNK        -0.0205 
    127 H127       -1.5735   -7.4936  -43.6542 H         1 UNK         0.0600 
    128 H128       -0.3655   -8.6211  -43.0283 H         1 UNK         0.0600 
    129 H129       -1.9486   -9.2150  -43.5370 H         1 UNK         0.0600 
    130 H130       -1.8558  -10.2574  -45.5014 H         1 UNK         0.3000 
    131 H131       -0.4518   -9.1537  -47.7844 H         1 UNK         0.0600 
    132 H132       -2.6727  -10.0703  -48.1219 H         1 UNK         0.0800 
    133 H133       -1.5238  -10.9657  -49.0579 H         1 UNK         0.0800 
    134 H134       -3.4137  -12.3058  -49.5315 H         1 UNK         0.0800 
    135 H135       -4.5161  -12.9602  -48.3526 H         1 UNK         0.0800 
    136 H136       -0.9870  -13.8291  -49.4178 H         1 UNK         0.1150 
    137 H137       -1.9777  -17.9248  -50.1975 H         1 UNK         0.1150 
    138 H138       -5.0106  -15.2113  -48.8627 H         1 UNK         0.1150 
    139 H139       -5.5325  -17.4461  -50.0920 H         1 UNK         0.0800 
    140 H140       -4.2652  -18.6410  -50.1910 H         1 UNK         0.0800 
    141 H141       -3.2775  -18.8911  -46.4410 H         1 UNK         0.0800 
    142 H142       -2.7654  -18.9871  -48.0871 H         1 UNK         0.0800 
    143 H143       -4.5720  -21.1072  -48.0028 H         1 UNK         0.0600 
    144 H144       -1.7945  -20.8638  -48.2598 H         1 UNK         0.3000 
    145 H145       -0.6400  -24.0929  -47.9194 H         1 UNK         0.0600 
    146 H146        0.0040  -24.1155  -50.2947 H         1 UNK         0.0600 
    147 H147       -1.7232  -24.3989  -50.1787 H         1 UNK         0.0600 
    148 H148       -1.1300  -22.8151  -50.6561 H         1 UNK         0.0600 
    149 H149        0.6114  -21.9554  -49.2107 H         1 UNK         0.3000 
    150 H150        2.3216  -20.8382  -47.9908 H         1 UNK         0.0600 
    151 H151        0.4304  -19.6169  -49.1492 H         1 UNK         0.0600 
    152 H152        1.6157  -18.5425  -48.4559 H         1 UNK         0.0600 
    153 H153        0.0679  -18.7812  -47.6443 H         1 UNK         0.0600 
    154 H154        1.3085  -19.3459  -45.6149 H         1 UNK         0.3000 
    155 H155        3.6463  -20.4149  -43.4776 H         1 UNK         0.0600 
    156 H156        4.6596  -17.9936  -45.0527 H         1 UNK         0.0600 
    157 H157        5.5914  -19.4147  -44.6067 H         1 UNK         0.0600 
    158 H158        5.0090  -18.3245  -43.3591 H         1 UNK         0.0600 
    159 H159        2.3868  -17.7846  -44.0327 H         1 UNK         0.3000 
    160 H160       -0.5798  -18.6588  -42.2932 H         1 UNK         0.0600 
    161 H161        1.6861  -16.8558  -41.2974 H         1 UNK         0.0600 
    162 H162        0.8717  -18.1046  -40.3640 H         1 UNK         0.0600 
    163 H163       -0.0178  -16.6781  -40.8785 H         1 UNK         0.0600 
    164 H164        0.3413  -16.1679  -43.3127 H         1 UNK         0.3000 
    165 H165       -0.1647  -16.3308  -46.5184 H         1 UNK         0.0600 
    166 H166       -2.5706  -15.2267  -46.4887 H         1 UNK         0.0600 
    167 H167       -2.9541  -16.4935  -45.3318 H         1 UNK         0.0600 
    168 H168       -2.3751  -16.8973  -46.9485 H         1 UNK         0.0600 
    169 H169        0.2952  -14.4182  -45.6321 H         1 UNK         0.3000 
    170 H170       -0.7142  -12.1765  -44.6609 H         1 UNK         0.0600 
    171 H171       -2.0376  -11.9981  -42.6036 H         1 UNK         0.0600 
    172 H172       -0.7763  -12.7744  -41.6579 H         1 UNK         0.0600 
    173 H173       -0.4987  -11.1848  -42.3666 H         1 UNK         0.0600 
    174 H174        1.4765  -12.3204  -44.5795 H         1 UNK         0.3000 
    175 H175        3.6553  -12.5311  -43.2232 H         1 UNK         0.0600 
    176 H176        3.8726  -15.4691  -42.3633 H         1 UNK         0.0600 
    177 H177        5.2241  -14.3555  -42.5625 H         1 UNK         0.0600 
    178 H178        4.0225  -14.0670  -41.3144 H         1 UNK         0.0600 
    179 H179        4.0659  -13.2627  -45.2773 H         1 UNK         0.3000 
    180 H180        4.8155  -15.3824  -46.7773 H         1 UNK         0.0600 
    181 H181        2.0392  -16.4842  -47.4383 H         1 UNK         0.0600 
    182 H182        3.4540  -17.4207  -46.9889 H         1 UNK         0.0600 
    183 H183        3.4316  -16.5556  -48.5153 H         1 UNK         0.0600 
    184 H184        4.2522  -13.5894  -47.9514 H         1 UNK         0.3000 
    185 H185        3.0963  -11.6226  -48.3480 H         1 UNK         0.0600 
    186 H186        3.1621  -13.1855  -50.3269 H         1 UNK         0.0600 
    187 H187        1.4074  -13.1356  -50.4220 H         1 UNK         0.0600 
    188 H188        2.3542  -11.6785  -50.7218 H         1 UNK         0.0600 
    189 H189        0.4714  -11.2123  -49.2066 H         1 UNK         0.3000 
    190 H190       -1.9996  -21.3128  -45.5592 H         1 UNK         0.3000 
    191 H191       -3.9648  -22.0808  -43.4403 H         1 UNK         0.0600 
    192 H192       -2.0339  -21.6751  -41.9080 H         1 UNK         0.0600 
    193 H193       -2.4421  -20.2336  -42.8292 H         1 UNK         0.0600 
    194 H194       -1.0381  -21.1958  -43.2795 H         1 UNK         0.0600 
    195 H195       -0.8386  -23.0255  -44.9837 H         1 UNK         0.3000 
    196 H196       -0.4895  -25.3545  -43.4518 H         1 UNK         0.0600 
    197 H197        0.7692  -24.5914  -46.1373 H         1 UNK         0.0600 
    198 H198        1.3459  -24.0962  -44.5490 H         1 UNK         0.0600 
    199 H199        1.3907  -25.7900  -45.0125 H         1 UNK         0.0600 
    200 H200       -2.3695  -24.9714  -46.3943 H         1 UNK         0.3000 
    201 H201       -2.9588  -27.8971  -46.4188 H         1 UNK         0.0600 
    202 H202       -2.7082  -26.0916  -48.8823 H         1 UNK         0.0600 
    203 H203       -3.0571  -27.8126  -48.8673 H         1 UNK         0.0600 
    204 H204       -1.4722  -27.2410  -48.3724 H         1 UNK         0.0600 
    205 H205       -4.1788  -25.3341  -45.2084 H         1 UNK         0.3000 
    206 H206       -6.1206  -24.3149  -44.8822 H         1 UNK         0.0600 
    207 H207       -6.6649  -26.6321  -44.1057 H         1 UNK         0.0600 
    208 H208       -8.0935  -25.7928  -44.6839 H         1 UNK         0.0600 
    209 H209       -7.3281  -27.0128  -45.6945 H         1 UNK         0.0600 
    210 H210       -5.0534  -23.8654  -47.4893 H         1 UNK         0.3000 
    211 H211       -5.4337  -22.7271  -49.3053 H         1 UNK         0.0600 
    212 H212       -7.4603  -21.3871  -49.6439 H         1 UNK         0.0600 
    213 H213       -7.0391  -21.3441  -47.9412 H         1 UNK         0.0600 
    214 H214       -8.3649  -22.3610  -48.5009 H         1 UNK         0.0600 
    215 H215       -6.1521  -25.7630  -49.0980 H         1 UNK         0.3000 
    216 H216       -7.7808  -26.2679  -51.4119 H         1 UNK         0.0600 
    217 H217       -5.6783  -28.0495  -50.0721 H         1 UNK         0.0600 
    218 H218       -6.9498  -28.5780  -51.1649 H         1 UNK         0.0600 
    219 H219       -7.3694  -27.9370  -49.5831 H         1 UNK         0.0600 
    220 H220       -4.4749  -25.2943  -51.0363 H         1 UNK         0.3000 
    221 H221       -3.9735  -25.5185  -53.9641 H         1 UNK         0.0600 
    222 H222       -2.7604  -27.3829  -52.8245 H         1 UNK         0.0600 
    223 H223       -1.9797  -26.2320  -51.7438 H         1 UNK         0.0600 
    224 H224       -1.6363  -26.1998  -53.4699 H         1 UNK         0.0600 
    225 H225       -5.0508  -23.3100  -52.4846 H         1 UNK         0.3000 
    226 H226       -3.2338  -21.3977  -51.5796 H         1 UNK         0.0600 
    227 H227       -5.9831  -21.0954  -52.8911 H         1 UNK         0.0600 
    228 H228       -5.6201  -21.1782  -51.1685 H         1 UNK         0.0600 
    229 H229       -5.1354  -19.7751  -52.1008 H         1 UNK         0.0600 
    230 H230       -3.9085  -22.2498  -54.8837 H         1 UNK         0.3000 
    231 H231       -2.9330  -19.9828  -56.2762 H         1 UNK         0.0600 
    232 H232       -2.9952  -22.9476  -57.0620 H         1 UNK         0.0600 
    233 H233       -2.7697  -21.6044  -58.1758 H         1 UNK         0.0600 
    234 H234       -4.2932  -21.7808  -57.3222 H         1 UNK         0.0600 
    235 H235       -1.1618  -22.2274  -54.3354 H         1 UNK         0.3000 
    236 H236        1.3990  -22.1012  -55.5903 H         1 UNK         0.0600 
    237 H237        0.7898  -23.7832  -53.8606 H         1 UNK         0.0600 
    238 H238        2.1932  -22.8597  -53.3467 H         1 UNK         0.0600 
    239 H239        0.6133  -22.5106  -52.6543 H         1 UNK         0.0600 
    240 H240       -0.3974  -19.6817  -53.8112 H         1 UNK         0.3000 
    241 H241        1.8306  -18.0862  -52.9427 H         1 UNK         0.0600 
    242 H242        3.1331  -16.6784  -54.1721 H         1 UNK         0.3800 
    243 H243        2.7385  -16.1623  -55.7871 H         1 UNK         0.3800 
    244 H244       -0.5931  -17.9939  -52.0647 H         1 UNK         0.0800 
    245 H245       -1.0071  -17.0678  -53.4741 H         1 UNK         0.0800 
    246 H246        0.7774  -15.5533  -49.6222 H         1 UNK         0.0800 
    247 H247        0.3917  -17.2044  -50.0180 H         1 UNK         0.0800 
@<TRIPOS>BOND
     1    1    2 1    
     2    1  127 1    
     3    1  128 1    
     4    1  129 1    
     5    2    3 2    
     6    2    4 am   BACKBONE|DICT|INTERRES
     7    4    5 1    
     8    4  130 1    
     9    5    6 1    
    10    5   65 1    
    11    5  131 1    
    12    6    7 1    
    13    6  132 1    
    14    6  133 1    
    15    7    8 1    
    16    8    9 1    
    17    8  134 1    
    18    8  135 1    
    19    9   10 ar   
    20    9   14 ar   
    21   10   11 ar   
    22   10  136 1    
    23   11   12 ar   
    24   11  126 1    
    25   12   13 ar   
    26   12  137 1    
    27   13   14 ar   
    28   13   15 1    
    29   14  138 1    
    30   15   16 1    
    31   15  139 1    
    32   15  140 1    
    33   16   17 1    
    34   17   18 1    
    35   17  141 1    
    36   17  142 1    
    37   18   19 1    
    38   18   67 1    
    39   18  143 1    
    40   19   20 am   BACKBONE|DICT|INTERRES
    41   19  144 1    
    42   20   21 2    
    43   20   22 1    
    44   22   23 1    
    45   22   24 1    
    46   22  145 1    
    47   23  146 1    
    48   23  147 1    
    49   23  148 1    
    50   24   25 am   BACKBONE|DICT|INTERRES
    51   24  149 1    
    52   25   26 2    
    53   25   27 1    
    54   27   28 1    
    55   27   29 1    
    56   27  150 1    
    57   28  151 1    
    58   28  152 1    
    59   28  153 1    
    60   29   30 am   BACKBONE|DICT|INTERRES
    61   29  154 1    
    62   30   31 2    
    63   30   32 1    
    64   32   33 1    
    65   32   34 1    
    66   32  155 1    
    67   33  156 1    
    68   33  157 1    
    69   33  158 1    
    70   34   35 am   BACKBONE|DICT|INTERRES
    71   34  159 1    
    72   35   36 2    
    73   35   37 1    
    74   37   38 1    
    75   37   39 1    
    76   37  160 1    
    77   38  161 1    
    78   38  162 1    
    79   38  163 1    
    80   39   40 am   BACKBONE|DICT|INTERRES
    81   39  164 1    
    82   40   41 2    
    83   40   42 1    
    84   42   43 1    
    85   42   44 1    
    86   42  165 1    
    87   43  166 1    
    88   43  167 1    
    89   43  168 1    
    90   44   45 am   BACKBONE|DICT|INTERRES
    91   44  169 1    
    92   45   46 2    
    93   45   47 1    
    94   47   48 1    
    95   47   49 1    
    96   47  170 1    
    97   48  171 1    
    98   48  172 1    
    99   48  173 1    
   100   49   50 am   BACKBONE|DICT|INTERRES
   101   49  174 1    
   102   50   51 2    
   103   50   52 1    
   104   52   53 1    
   105   52   54 1    
   106   52  175 1    
   107   53  176 1    
   108   53  177 1    
   109   53  178 1    
   110   54   55 am   BACKBONE|DICT|INTERRES
   111   54  179 1    
   112   55   56 2    
   113   55   57 1    
   114   57   58 1    
   115   57   59 1    
   116   57  180 1    
   117   58  181 1    
   118   58  182 1    
   119   58  183 1    
   120   59   60 am   BACKBONE|DICT|INTERRES
   121   59  184 1    
   122   60   61 2    
   123   60   62 1    
   124   62   63 1    
   125   62   64 1    
   126   62  185 1    
   127   63  186 1    
   128   63  187 1    
   129   63  188 1    
   130   64   65 am   BACKBONE|DICT|INTERRES
   131   64  189 1    
   132   65   66 2    
   133   67   68 2    
   134   67   69 am   BACKBONE|DICT|INTERRES
   135   69   70 1    
   136   69  190 1    
   137   70   71 1    
   138   70   72 1    
   139   70  191 1    
   140   71  192 1    
   141   71  193 1    
   142   71  194 1    
   143   72   73 2    
   144   72   74 am   BACKBONE|DICT|INTERRES
   145   74   75 1    
   146   74  195 1    
   147   75   76 1    
   148   75   77 1    
   149   75  196 1    
   150   76  197 1    
   151   76  198 1    
   152   76  199 1    
   153   77   78 2    
   154   77   79 am   BACKBONE|DICT|INTERRES
   155   79   80 1    
   156   79  200 1    
   157   80   81 1    
   158   80   82 1    
   159   80  201 1    
   160   81  202 1    
   161   81  203 1    
   162   81  204 1    
   163   82   83 2    
   164   82   84 am   BACKBONE|DICT|INTERRES
   165   84   85 1    
   166   84  205 1    
   167   85   86 1    
   168   85   87 1    
   169   85  206 1    
   170   86  207 1    
   171   86  208 1    
   172   86  209 1    
   173   87   88 2    
   174   87   89 am   BACKBONE|DICT|INTERRES
   175   89   90 1    
   176   89  210 1    
   177   90   91 1    
   178   90   92 1    
   179   90  211 1    
   180   91  212 1    
   181   91  213 1    
   182   91  214 1    
   183   92   93 2    
   184   92   94 am   BACKBONE|DICT|INTERRES
   185   94   95 1    
   186   94  215 1    
   187   95   96 1    
   188   95   97 1    
   189   95  216 1    
   190   96  217 1    
   191   96  218 1    
   192   96  219 1    
   193   97   98 2    
   194   97   99 am   BACKBONE|DICT|INTERRES
   195   99  100 1    
   196   99  220 1    
   197  100  101 1    
   198  100  102 1    
   199  100  221 1    
   200  101  222 1    
   201  101  223 1    
   202  101  224 1    
   203  102  103 2    
   204  102  104 am   BACKBONE|DICT|INTERRES
   205  104  105 1    
   206  104  225 1    
   207  105  106 1    
   208  105  107 1    
   209  105  226 1    
   210  106  227 1    
   211  106  228 1    
   212  106  229 1    
   213  107  108 2    
   214  107  109 am   BACKBONE|DICT|INTERRES
   215  109  110 1    
   216  109  230 1    
   217  110  111 1    
   218  110  112 1    
   219  110  231 1    
   220  111  232 1    
   221  111  233 1    
   222  111  234 1    
   223  112  113 2    
   224  112  114 am   BACKBONE|DICT|INTERRES
   225  114  115 1    
   226  114  235 1    
   227  115  116 1    
   228  115  117 1    
   229  115  236 1    
   230  116  237 1    
   231  116  238 1    
   232  116  239 1    
   233  117  118 2    
   234  117  119 am   BACKBONE|DICT|INTERRES
   235  119  120 1    
   236  119  240 1    
   237  120  121 1    
   238  120  124 1    
   239  120  241 1    
   240  121  122 am   BACKBONE|DICT|INTERRES
   241  121  123 2    
   242  122  242 1    
   243  122  243 1    
   244  124  125 1    
   245  124  244 1    
   246  124  245 1    
   247  125  126 1    
   248  126  246 1    
   249  126  247 1    
@<TRIPOS>SUBSTRUCTURE
     1 UNK         1 GROUP             0       ****    0 ROOT    
