@<TRIPOS>MOLECULE
3R540
247   249    1
SMALL
USER_CHARGES


@<TRIPOS>ATOM
      1 CA          4.2508  -16.6752  -46.2123 C.3       0 UNK        -0.1800 
      2 C           3.6711  -15.3009  -45.9129 C.2       0 UNK         0.5000 
      3 O           3.8098  -14.8024  -44.7977 O.2       0 UNK        -0.5000 
      4 N           3.0410  -14.6740  -46.9129 N.am      1 UNK        -0.5000 
      5 CA          2.3173  -13.3968  -46.8107 C.3       1 UNK         0.1400 
      6 C6          1.5876  -13.0370  -48.1287 C.3       23 UNK        -0.0398 
      7 S7          0.5209  -14.3862  -48.7395 S.3       23 UNK        -0.2404 
      8 C8          1.4882  -14.9713  -50.1648 C.3       23 UNK        -0.0205 
      9 C9          0.8949  -16.2461  -50.7394 C.ar      23 UNK        -0.0193 
     10 C10        -0.1990  -16.1762  -51.6049 C.ar      23 UNK        -0.1150 
     11 C11        -0.7532  -17.3405  -52.1397 C.ar      23 UNK        -0.0193 
     12 C12        -0.2044  -18.5799  -51.8015 C.ar      23 UNK        -0.1150 
     13 C13         0.8884  -18.6715  -50.9344 C.ar      23 UNK        -0.0193 
     14 C14         1.4378  -17.4927  -50.4110 C.ar      23 UNK        -0.1150 
     15 C15         1.4551  -20.0593  -50.6277 C.3       23 UNK        -0.0205 
     16 S16         2.4258  -20.2066  -49.0871 S.3       23 UNK        -0.2404 
     17 C17         1.1571  -19.9403  -47.8055 C.3       23 UNK        -0.0398 
     18 CA          0.6050  -21.2689  -47.2243 C.3       11 UNK         0.1400 
     19 N           0.3266  -21.1769  -45.7878 N.am      11 UNK        -0.5000 
     20 C          -0.0054  -22.2093  -44.9995 C.2       10 UNK         0.5000 
     21 O          -0.0457  -23.3759  -45.3872 O.2       10 UNK        -0.5000 
     22 CA         -0.4185  -21.8821  -43.5515 C.3       10 UNK         0.1400 
     23 CB          0.8104  -21.7741  -42.6376 C.3       10 UNK        -0.1800 
     24 N          -1.2211  -20.6605  -43.4614 N.am      10 UNK        -0.5000 
     25 C          -2.4360  -20.5190  -44.0114 C.2       9 UNK         0.5000 
     26 O          -3.0346  -21.4326  -44.5780 O.2       9 UNK        -0.5000 
     27 CA         -3.0631  -19.1132  -43.9797 C.3       9 UNK         0.1400 
     28 CB         -3.7710  -18.8541  -42.6420 C.3       9 UNK        -0.1800 
     29 N          -2.0871  -18.0538  -44.2385 N.am      9 UNK        -0.5000 
     30 C          -1.4117  -17.9037  -45.3876 C.2       8 UNK         0.5000 
     31 O          -1.5747  -18.6209  -46.3746 O.2       8 UNK        -0.5000 
     32 CA         -0.3371  -16.8003  -45.4162 C.3       8 UNK         0.1400 
     33 CB         -0.9959  -15.4257  -45.6037 C.3       8 UNK        -0.1800 
     34 N           0.4903  -16.8036  -44.2052 N.am      8 UNK        -0.5000 
     35 C           1.2661  -17.8287  -43.8206 C.2       7 UNK         0.5000 
     36 O           1.4411  -18.8360  -44.5033 O.2       7 UNK        -0.5000 
     37 CA          1.8924  -17.7624  -42.4154 C.3       7 UNK         0.1400 
     38 CB          3.2483  -17.0455  -42.4165 C.3       7 UNK        -0.1800 
     39 N           1.0006  -17.1262  -41.4493 N.am      7 UNK        -0.5000 
     40 C          -0.1081  -17.6976  -40.9601 C.2       6 UNK         0.5000 
     41 O          -0.4601  -18.8451  -41.2316 O.2       6 UNK        -0.5000 
     42 CA         -0.9905  -16.8197  -40.0532 C.3       6 UNK         0.1400 
     43 CB         -0.4901  -16.8667  -38.6020 C.3       6 UNK        -0.1800 
     44 N          -1.0357  -15.4276  -40.5057 N.am      6 UNK        -0.5000 
     45 C          -1.6066  -15.0237  -41.6500 C.2       5 UNK         0.5000 
     46 O          -2.2264  -15.7772  -42.3991 O.2       5 UNK        -0.5000 
     47 CA         -1.4042  -13.5473  -42.0475 C.3       5 UNK         0.1400 
     48 CB         -2.5400  -12.6777  -41.4894 C.3       5 UNK        -0.1800 
     49 N          -0.1148  -13.0132  -41.5971 N.am      5 UNK        -0.5000 
     50 C           1.0748  -13.4249  -42.0553 C.2       4 UNK         0.5000 
     51 O           1.2075  -14.2455  -42.9647 O.2       4 UNK        -0.5000 
     52 CA          2.3047  -12.9048  -41.3011 C.3       4 UNK         0.1400 
     53 CB          2.4388  -13.6580  -39.9589 C.3       4 UNK        -0.1800 
     54 N           3.5167  -13.0830  -42.1013 N.am      4 UNK        -0.5000 
     55 C           4.7065  -12.5443  -41.7989 C.2       3 UNK         0.5000 
     56 O           4.8884  -11.7771  -40.8522 O.2       3 UNK        -0.5000 
     57 CA          5.8962  -12.9124  -42.6970 C.3       3 UNK         0.1400 
     58 CB          6.2887  -14.3902  -42.5305 C.3       3 UNK        -0.1800 
     59 N           5.6084  -12.6257  -44.0991 N.am      3 UNK        -0.5000 
     60 C           5.8508  -11.4477  -44.6926 C.2       2 UNK         0.5000 
     61 O           6.3515  -10.4834  -44.1121 O.2       2 UNK        -0.5000 
     62 CA          5.5001  -11.3143  -46.1885 C.3       2 UNK         0.1400 
     63 CB          6.7617  -11.4757  -47.0510 C.3       2 UNK        -0.1800 
     64 N           4.4997  -12.2818  -46.6351 N.am      2 UNK        -0.5000 
     65 C           3.1930  -12.2128  -46.3490 C.2       1 UNK         0.5000 
     66 O           2.6768  -11.2772  -45.7367 O.2       1 UNK        -0.5000 
     67 C          -0.6276  -21.7630  -48.0110 C.2       11 UNK         0.5000 
     68 O          -0.5010  -22.6696  -48.8326 O.2       11 UNK        -0.5000 
     69 N          -1.8054  -21.1974  -47.7093 N.am      12 UNK        -0.5000 
     70 CA         -3.0917  -21.5998  -48.2815 C.3       12 UNK         0.1400 
     71 CB         -4.1796  -20.6072  -47.8476 C.3       12 UNK        -0.1800 
     72 C          -3.4904  -23.0420  -47.9138 C.2       12 UNK         0.5000 
     73 O          -4.0203  -23.7605  -48.7627 O.2       12 UNK        -0.5000 
     74 N          -3.2033  -23.4510  -46.6703 N.am      13 UNK        -0.5000 
     75 CA         -3.3907  -24.8175  -46.1841 C.3       13 UNK         0.1400 
     76 CB         -3.2177  -24.8593  -44.6587 C.3       13 UNK        -0.1800 
     77 C          -2.4479  -25.8171  -46.8781 C.2       13 UNK         0.5000 
     78 O          -2.9027  -26.8819  -47.2948 O.2       13 UNK        -0.5000 
     79 N          -1.1704  -25.4419  -47.0414 N.am      14 UNK        -0.5000 
     80 CA         -0.1574  -26.2118  -47.7710 C.3       14 UNK         0.1400 
     81 CB          1.2232  -25.5696  -47.5680 C.3       14 UNK        -0.1800 
     82 C          -0.4779  -26.3579  -49.2717 C.2       14 UNK         0.5000 
     83 O          -0.2160  -27.4123  -49.8510 O.2       14 UNK        -0.5000 
     84 N          -1.0844  -25.3172  -49.8585 N.am      15 UNK        -0.5000 
     85 CA         -1.6235  -25.3020  -51.2201 C.3       15 UNK         0.1400 
     86 CB         -1.8566  -23.8426  -51.6416 C.3       15 UNK        -0.1800 
     87 C          -2.9178  -26.1295  -51.3885 C.2       15 UNK         0.5000 
     88 O          -3.3531  -26.3261  -52.5234 O.2       15 UNK        -0.5000 
     89 N          -3.4983  -26.6010  -50.2735 N.am      16 UNK        -0.5000 
     90 CA         -4.7345  -27.3790  -50.1616 C.3       16 UNK         0.1400 
     91 CB         -4.5991  -28.7477  -50.8622 C.3       16 UNK        -0.1800 
     92 C          -5.9763  -26.5796  -50.6024 C.2       16 UNK         0.5000 
     93 O          -6.8388  -27.1126  -51.3038 O.2       16 UNK        -0.5000 
     94 N          -6.0419  -25.3134  -50.1635 N.am      17 UNK        -0.5000 
     95 CA         -7.0778  -24.3264  -50.4714 C.3       17 UNK         0.1400 
     96 CB         -8.4420  -24.7409  -49.8741 C.3       17 UNK        -0.1800 
     97 C          -7.1030  -23.9945  -51.9776 C.2       17 UNK         0.5000 
     98 O          -6.0451  -23.6828  -52.5248 O.2       17 UNK        -0.5000 
     99 N          -8.2898  -24.0226  -52.6062 N.am      18 UNK        -0.5000 
    100 CA        -8.5483  -23.7168  -54.0212 C.3       18 UNK         0.1400 
    101 CB        -7.9290  -24.7991  -54.9306 C.3       18 UNK        -0.1800 
    102 C         -8.0973  -22.2887  -54.3915 C.2       18 UNK         0.5000 
    103 O         -7.2628  -22.1066  -55.2803 O.2       18 UNK        -0.5000 
    104 N         -8.6086  -21.3058  -53.6314 N.am      19 UNK        -0.5000 
    105 CA        -8.2304  -19.8839  -53.6604 C.3       19 UNK         0.1400 
    106 CB        -8.6868  -19.2211  -54.9762 C.3       19 UNK        -0.1800 
    107 C         -6.7285  -19.6763  -53.3634 C.2       19 UNK         0.5000 
    108 O         -6.0660  -18.8576  -54.0069 O.2       19 UNK        -0.5000 
    109 N         -6.2149  -20.4968  -52.4324 N.am      20 UNK        -0.5000 
    110 CA        -4.8155  -20.6364  -52.0108 C.3       20 UNK         0.1400 
    111 CB        -4.3854  -19.3878  -51.2147 C.3       20 UNK        -0.1800 
    112 C         -3.8401  -20.9912  -53.1588 C.2       20 UNK         0.5000 
    113 O         -2.6403  -20.7606  -53.0272 O.2       20 UNK        -0.5000 
    114 N         -4.3755  -21.5140  -54.2723 N.am      21 UNK        -0.5000 
    115 CA        -3.7296  -21.7687  -55.5638 C.3       21 UNK         0.1400 
    116 CB        -2.5769  -22.7850  -55.4335 C.3       21 UNK        -0.1800 
    117 C         -3.3134  -20.4964  -56.3389 C.2       21 UNK         0.5000 
    118 O         -2.7415  -20.6244  -57.4232 O.2       21 UNK        -0.5000 
    119 N         -3.6329  -19.3036  -55.8178 N.am      22 UNK        -0.5000 
    120 CA        -3.4890  -18.0205  -56.5249 C.3       22 UNK         0.1400 
    121 C         -4.7710  -17.6553  -57.3209 C.2       22 UNK         0.5000 
    122 N         -5.9595  -17.9868  -56.8308 N.am      22 UNK        -0.7600 
    123 O         -4.6863  -17.0684  -58.3961 O.2       22 UNK        -0.5000 
    124 C124       -3.1119  -16.8555  -55.5764 C.3       23 UNK        -0.0398 
    125 S125       -1.4714  -17.0559  -54.8008 S.3       23 UNK        -0.2404 
    126 C126       -1.9568  -17.2574  -53.0630 C.3       23 UNK        -0.0205 
    127 H127        3.6882  -17.4432  -45.6828 H         1 UNK         0.0600 
    128 H128        5.2892  -16.7242  -45.8848 H         1 UNK         0.0600 
    129 H129        4.2182  -16.9053  -47.2775 H         1 UNK         0.0600 
    130 H130        2.9561  -15.1409  -47.8028 H         1 UNK         0.3000 
    131 H131        1.5666  -13.5279  -46.0316 H         1 UNK         0.0600 
    132 H132        0.9543  -12.1605  -47.9796 H         1 UNK         0.0800 
    133 H133        2.3040  -12.7613  -48.9048 H         1 UNK         0.0800 
    134 H134        1.5089  -14.1951  -50.9315 H         1 UNK         0.0800 
    135 H135        2.5245  -15.1396  -49.8692 H         1 UNK         0.0800 
    136 H136       -0.6216  -15.2141  -51.8588 H         1 UNK         0.1150 
    137 H137       -0.6284  -19.4807  -52.2205 H         1 UNK         0.1150 
    138 H138        2.2906  -17.5365  -49.7496 H         1 UNK         0.1150 
    139 H139        0.6457  -20.7904  -50.5976 H         1 UNK         0.0800 
    140 H140        2.0962  -20.3513  -51.4601 H         1 UNK         0.0800 
    141 H141        0.3651  -19.2881  -48.1783 H         1 UNK         0.0800 
    142 H142        1.6532  -19.3665  -47.0232 H         1 UNK         0.0800 
    143 H143        1.3765  -22.0355  -47.3236 H         1 UNK         0.0600 
    144 H144        0.4022  -20.2552  -45.3689 H         1 UNK         0.3000 
    145 H145       -1.0335  -22.7075  -43.1875 H         1 UNK         0.0600 
    146 H146        0.5207  -21.5598  -41.6087 H         1 UNK         0.0600 
    147 H147        1.3707  -22.7098  -42.6304 H         1 UNK         0.0600 
    148 H148        1.4919  -20.9901  -42.9647 H         1 UNK         0.0600 
    149 H149       -0.8203  -19.8816  -42.9501 H         1 UNK         0.3000 
    150 H150       -3.8135  -19.0695  -44.7716 H         1 UNK         0.0600 
    151 H151       -4.5338  -19.6102  -42.4524 H         1 UNK         0.0600 
    152 H152       -4.2671  -17.8833  -42.6406 H         1 UNK         0.0600 
    153 H153       -3.0746  -18.8739  -41.8042 H         1 UNK         0.0600 
    154 H154       -1.9383  -17.3784  -43.4947 H         1 UNK         0.3000 
    155 H155        0.3218  -16.9832  -46.2678 H         1 UNK         0.0600 
    156 H156       -1.7822  -15.2423  -44.8736 H         1 UNK         0.0600 
    157 H157       -0.2727  -14.6188  -45.5161 H         1 UNK         0.0600 
    158 H158       -1.4539  -15.3517  -46.5904 H         1 UNK         0.0600 
    159 H159        0.4727  -15.9673  -43.6311 H         1 UNK         0.3000 
    160 H160        2.0685  -18.7899  -42.0909 H         1 UNK         0.0600 
    161 H161        3.9146  -17.4602  -43.1735 H         1 UNK         0.0600 
    162 H162        3.7472  -17.1486  -41.4530 H         1 UNK         0.0600 
    163 H163        3.1395  -15.9822  -42.6177 H         1 UNK         0.0600 
    164 H164        1.1958  -16.1652  -41.2169 H         1 UNK         0.3000 
    165 H165       -2.0050  -17.2232  -40.0804 H         1 UNK         0.0600 
    166 H166       -1.1483  -16.3038  -37.9399 H         1 UNK         0.0600 
    167 H167       -0.4603  -17.8929  -38.2333 H         1 UNK         0.0600 
    168 H168        0.5152  -16.4541  -38.5068 H         1 UNK         0.0600 
    169 H169       -0.5646  -14.7442  -39.9327 H         1 UNK         0.3000 
    170 H170       -1.4334  -13.4893  -43.1374 H         1 UNK         0.0600 
    171 H171       -3.5113  -13.0408  -41.8285 H         1 UNK         0.0600 
    172 H172       -2.5515  -12.6788  -40.3988 H         1 UNK         0.0600 
    173 H173       -2.4462  -11.6444  -41.8240 H         1 UNK         0.0600 
    174 H174       -0.1459  -12.3365  -40.8478 H         1 UNK         0.3000 
    175 H175        2.1613  -11.8388  -41.1134 H         1 UNK         0.0600 
    176 H176        2.6458  -14.7176  -40.1133 H         1 UNK         0.0600 
    177 H177        3.2430  -13.2511  -39.3465 H         1 UNK         0.0600 
    178 H178        1.5276  -13.5833  -39.3645 H         1 UNK         0.0600 
    179 H179        3.4142  -13.6766  -42.9201 H         1 UNK         0.3000 
    180 H180        6.7532  -12.3164  -42.3751 H         1 UNK         0.0600 
    181 H181        5.4856  -15.0664  -42.8205 H         1 UNK         0.0600 
    182 H182        6.5389  -14.6100  -41.4920 H         1 UNK         0.0600 
    183 H183        7.1629  -14.6343  -43.1340 H         1 UNK         0.0600 
    184 H184        5.1183  -13.3521  -44.6110 H         1 UNK         0.3000 
    185 H185        5.1060  -10.3081  -46.3465 H         1 UNK         0.0600 
    186 H186        7.5239  -10.7481  -46.7688 H         1 UNK         0.0600 
    187 H187        7.1996  -12.4687  -46.9417 H         1 UNK         0.0600 
    188 H188        6.5408  -11.3193  -48.1070 H         1 UNK         0.0600 
    189 H189        4.8389  -13.0908  -47.1348 H         1 UNK         0.3000 
    190 H190       -1.8166  -20.4218  -47.0524 H         1 UNK         0.3000 
    191 H191       -2.9976  -21.5485  -49.3677 H         1 UNK         0.0600 
    192 H192       -5.1313  -20.8389  -48.3273 H         1 UNK         0.0600 
    193 H193       -3.9136  -19.5858  -48.1202 H         1 UNK         0.0600 
    194 H194       -4.3427  -20.6308  -46.7704 H         1 UNK         0.0600 
    195 H195       -2.8420  -22.7731  -46.0060 H         1 UNK         0.3000 
    196 H196       -4.4164  -25.1143  -46.4132 H         1 UNK         0.0600 
    197 H197       -3.4064  -25.8619  -44.2732 H         1 UNK         0.0600 
    198 H198       -3.9158  -24.1834  -44.1644 H         1 UNK         0.0600 
    199 H199       -2.2097  -24.5773  -44.3566 H         1 UNK         0.0600 
    200 H200       -0.8591  -24.5699  -46.6208 H         1 UNK         0.3000 
    201 H201       -0.1308  -27.2151  -47.3410 H         1 UNK         0.0600 
    202 H202        1.4878  -25.5305  -46.5112 H         1 UNK         0.0600 
    203 H203        1.2562  -24.5523  -47.9582 H         1 UNK         0.0600 
    204 H204        1.9993  -26.1421  -48.0772 H         1 UNK         0.0600 
    205 H205       -1.1739  -24.4541  -49.3305 H         1 UNK         0.3000 
    206 H206       -0.8748  -25.7325  -51.8879 H         1 UNK         0.0600 
    207 H207       -0.9383  -23.2580  -51.5827 H         1 UNK         0.0600 
    208 H208       -2.2110  -23.7845  -52.6700 H         1 UNK         0.0600 
    209 H209       -2.6040  -23.3565  -51.0157 H         1 UNK         0.0600 
    210 H210       -3.0568  -26.3821  -49.3890 H         1 UNK         0.3000 
    211 H211       -4.8705  -27.5754  -49.0974 H         1 UNK         0.0600 
    212 H212       -4.5270  -28.6469  -51.9453 H         1 UNK         0.0600 
    213 H213       -5.4626  -29.3794  -50.6514 H         1 UNK         0.0600 
    214 H214       -3.7146  -29.2817  -50.5146 H         1 UNK         0.0600 
    215 H215       -5.2475  -24.9438  -49.6464 H         1 UNK         0.3000 
    216 H216       -6.7697  -23.4080  -49.9696 H         1 UNK         0.0600 
    217 H217       -8.8503  -25.6325  -50.3510 H         1 UNK         0.0600 
    218 H218       -9.1768  -23.9414  -49.9753 H         1 UNK         0.0600 
    219 H219       -8.3496  -24.9521  -48.8087 H         1 UNK         0.0600 
    220 H220       -9.0998  -24.2893  -52.0643 H         1 UNK         0.3000 
    221 H221       -9.6299  -23.7484  -54.1605 H         1 UNK         0.0600 
    222 H222       -8.2914  -25.7916  -54.6632 H         1 UNK         0.0600 
    223 H223       -6.8404  -24.8130  -54.8653 H         1 UNK         0.0600 
    224 H224       -8.1912  -24.6272  -55.9752 H         1 UNK         0.0600 
    225 H225       -9.2795  -21.5624  -52.9203 H         1 UNK         0.3000 
    226 H226       -8.7692  -19.4001  -52.8445 H         1 UNK         0.0600 
    227 H227       -9.7570  -19.3556  -55.1320 H         1 UNK         0.0600 
    228 H228       -8.4955  -18.1475  -54.9611 H         1 UNK         0.0600 
    229 H229       -8.1699  -19.6355  -55.8418 H         1 UNK         0.0600 
    230 H230       -6.8500  -21.1618  -52.0175 H         1 UNK         0.3000 
    231 H231       -4.7818  -21.4871  -51.3286 H         1 UNK         0.0600 
    232 H232       -5.0219  -19.2472  -50.3419 H         1 UNK         0.0600 
    233 H233       -4.4585  -18.4812  -51.8139 H         1 UNK         0.0600 
    234 H234       -3.3584  -19.4706  -50.8565 H         1 UNK         0.0600 
    235 H235       -5.3737  -21.6913  -54.2681 H         1 UNK         0.3000 
    236 H236       -4.5003  -22.2380  -56.1767 H         1 UNK         0.0600 
    237 H237       -2.1924  -23.0682  -56.4139 H         1 UNK         0.0600 
    238 H238       -1.7396  -22.3847  -54.8620 H         1 UNK         0.0600 
    239 H239       -2.9156  -23.6995  -54.9468 H         1 UNK         0.0600 
    240 H240       -4.1514  -19.2795  -54.9496 H         1 UNK         0.3000 
    241 H241       -2.6834  -18.1070  -57.2568 H         1 UNK         0.0600 
    242 H242       -6.0383  -18.4077  -55.9109 H         1 UNK         0.3800 
    243 H243       -6.7905  -17.7531  -57.3498 H         1 UNK         0.3800 
    244 H244       -3.0850  -15.9135  -56.1275 H         1 UNK         0.0800 
    245 H245       -3.8781  -16.7302  -54.8091 H         1 UNK         0.0800 
    246 H246       -2.5519  -18.1633  -52.9802 H         1 UNK         0.0800 
    247 H247       -2.5999  -16.4302  -52.7585 H         1 UNK         0.0800 
@<TRIPOS>BOND
     1    1    2 1    
     2    1  127 1    
     3    1  128 1    
     4    1  129 1    
     5    2    3 2    
     6    2    4 am   BACKBONE|DICT|INTERRES
     7    4    5 1    
     8    4  130 1    
     9    5    6 1    
    10    5   65 1    
    11    5  131 1    
    12    6    7 1    
    13    6  132 1    
    14    6  133 1    
    15    7    8 1    
    16    8    9 1    
    17    8  134 1    
    18    8  135 1    
    19    9   10 ar   
    20    9   14 ar   
    21   10   11 ar   
    22   10  136 1    
    23   11   12 ar   
    24   11  126 1    
    25   12   13 ar   
    26   12  137 1    
    27   13   14 ar   
    28   13   15 1    
    29   14  138 1    
    30   15   16 1    
    31   15  139 1    
    32   15  140 1    
    33   16   17 1    
    34   17   18 1    
    35   17  141 1    
    36   17  142 1    
    37   18   19 1    
    38   18   67 1    
    39   18  143 1    
    40   19   20 am   BACKBONE|DICT|INTERRES
    41   19  144 1    
    42   20   21 2    
    43   20   22 1    
    44   22   23 1    
    45   22   24 1    
    46   22  145 1    
    47   23  146 1    
    48   23  147 1    
    49   23  148 1    
    50   24   25 am   BACKBONE|DICT|INTERRES
    51   24  149 1    
    52   25   26 2    
    53   25   27 1    
    54   27   28 1    
    55   27   29 1    
    56   27  150 1    
    57   28  151 1    
    58   28  152 1    
    59   28  153 1    
    60   29   30 am   BACKBONE|DICT|INTERRES
    61   29  154 1    
    62   30   31 2    
    63   30   32 1    
    64   32   33 1    
    65   32   34 1    
    66   32  155 1    
    67   33  156 1    
    68   33  157 1    
    69   33  158 1    
    70   34   35 am   BACKBONE|DICT|INTERRES
    71   34  159 1    
    72   35   36 2    
    73   35   37 1    
    74   37   38 1    
    75   37   39 1    
    76   37  160 1    
    77   38  161 1    
    78   38  162 1    
    79   38  163 1    
    80   39   40 am   BACKBONE|DICT|INTERRES
    81   39  164 1    
    82   40   41 2    
    83   40   42 1    
    84   42   43 1    
    85   42   44 1    
    86   42  165 1    
    87   43  166 1    
    88   43  167 1    
    89   43  168 1    
    90   44   45 am   BACKBONE|DICT|INTERRES
    91   44  169 1    
    92   45   46 2    
    93   45   47 1    
    94   47   48 1    
    95   47   49 1    
    96   47  170 1    
    97   48  171 1    
    98   48  172 1    
    99   48  173 1    
   100   49   50 am   BACKBONE|DICT|INTERRES
   101   49  174 1    
   102   50   51 2    
   103   50   52 1    
   104   52   53 1    
   105   52   54 1    
   106   52  175 1    
   107   53  176 1    
   108   53  177 1    
   109   53  178 1    
   110   54   55 am   BACKBONE|DICT|INTERRES
   111   54  179 1    
   112   55   56 2    
   113   55   57 1    
   114   57   58 1    
   115   57   59 1    
   116   57  180 1    
   117   58  181 1    
   118   58  182 1    
   119   58  183 1    
   120   59   60 am   BACKBONE|DICT|INTERRES
   121   59  184 1    
   122   60   61 2    
   123   60   62 1    
   124   62   63 1    
   125   62   64 1    
   126   62  185 1    
   127   63  186 1    
   128   63  187 1    
   129   63  188 1    
   130   64   65 am   BACKBONE|DICT|INTERRES
   131   64  189 1    
   132   65   66 2    
   133   67   68 2    
   134   67   69 am   BACKBONE|DICT|INTERRES
   135   69   70 1    
   136   69  190 1    
   137   70   71 1    
   138   70   72 1    
   139   70  191 1    
   140   71  192 1    
   141   71  193 1    
   142   71  194 1    
   143   72   73 2    
   144   72   74 am   BACKBONE|DICT|INTERRES
   145   74   75 1    
   146   74  195 1    
   147   75   76 1    
   148   75   77 1    
   149   75  196 1    
   150   76  197 1    
   151   76  198 1    
   152   76  199 1    
   153   77   78 2    
   154   77   79 am   BACKBONE|DICT|INTERRES
   155   79   80 1    
   156   79  200 1    
   157   80   81 1    
   158   80   82 1    
   159   80  201 1    
   160   81  202 1    
   161   81  203 1    
   162   81  204 1    
   163   82   83 2    
   164   82   84 am   BACKBONE|DICT|INTERRES
   165   84   85 1    
   166   84  205 1    
   167   85   86 1    
   168   85   87 1    
   169   85  206 1    
   170   86  207 1    
   171   86  208 1    
   172   86  209 1    
   173   87   88 2    
   174   87   89 am   BACKBONE|DICT|INTERRES
   175   89   90 1    
   176   89  210 1    
   177   90   91 1    
   178   90   92 1    
   179   90  211 1    
   180   91  212 1    
   181   91  213 1    
   182   91  214 1    
   183   92   93 2    
   184   92   94 am   BACKBONE|DICT|INTERRES
   185   94   95 1    
   186   94  215 1    
   187   95   96 1    
   188   95   97 1    
   189   95  216 1    
   190   96  217 1    
   191   96  218 1    
   192   96  219 1    
   193   97   98 2    
   194   97   99 am   BACKBONE|DICT|INTERRES
   195   99  100 1    
   196   99  220 1    
   197  100  101 1    
   198  100  102 1    
   199  100  221 1    
   200  101  222 1    
   201  101  223 1    
   202  101  224 1    
   203  102  103 2    
   204  102  104 am   BACKBONE|DICT|INTERRES
   205  104  105 1    
   206  104  225 1    
   207  105  106 1    
   208  105  107 1    
   209  105  226 1    
   210  106  227 1    
   211  106  228 1    
   212  106  229 1    
   213  107  108 2    
   214  107  109 am   BACKBONE|DICT|INTERRES
   215  109  110 1    
   216  109  230 1    
   217  110  111 1    
   218  110  112 1    
   219  110  231 1    
   220  111  232 1    
   221  111  233 1    
   222  111  234 1    
   223  112  113 2    
   224  112  114 am   BACKBONE|DICT|INTERRES
   225  114  115 1    
   226  114  235 1    
   227  115  116 1    
   228  115  117 1    
   229  115  236 1    
   230  116  237 1    
   231  116  238 1    
   232  116  239 1    
   233  117  118 2    
   234  117  119 am   BACKBONE|DICT|INTERRES
   235  119  120 1    
   236  119  240 1    
   237  120  121 1    
   238  120  124 1    
   239  120  241 1    
   240  121  122 am   BACKBONE|DICT|INTERRES
   241  121  123 2    
   242  122  242 1    
   243  122  243 1    
   244  124  125 1    
   245  124  244 1    
   246  124  245 1    
   247  125  126 1    
   248  126  246 1    
   249  126  247 1    
@<TRIPOS>SUBSTRUCTURE
     1 UNK         1 GROUP             0       ****    0 ROOT    
