@<TRIPOS>MOLECULE
3R540
247   249    1
SMALL
USER_CHARGES


@<TRIPOS>ATOM
      1 CA         -3.4656  -12.9135  -46.3420 C.3       0 UNK        -0.1800 
      2 C          -2.4859  -14.0491  -46.0524 C.2       0 UNK         0.5000 
      3 O          -2.5566  -14.6444  -44.9805 O.2       0 UNK        -0.5000 
      4 N          -1.5682  -14.3943  -46.9669 N.am      1 UNK        -0.5000 
      5 CA         -1.3407  -13.7656  -48.2764 C.3       1 UNK         0.1400 
      6 C6         -0.7014  -14.7486  -49.2921 C.3       23 UNK        -0.0398 
      7 S7          0.8678  -15.5010  -48.7236 S.3       23 UNK        -0.2404 
      8 C8          0.3359  -17.1858  -48.2931 C.3       23 UNK        -0.0205 
      9 C9          0.6329  -18.1952  -49.3890 C.ar      23 UNK        -0.0193 
     10 C10        -0.1093  -18.2035  -50.5717 C.ar      23 UNK        -0.1150 
     11 C11         0.1334  -19.1661  -51.5554 C.ar      23 UNK        -0.0193 
     12 C12         1.1270  -20.1279  -51.3504 C.ar      23 UNK        -0.1150 
     13 C13         1.8726  -20.1317  -50.1678 C.ar      23 UNK        -0.0193 
     14 C14         1.6269  -19.1580  -49.1968 C.ar      23 UNK        -0.1150 
     15 C15         2.9222  -21.2050  -49.9140 C.3       23 UNK        -0.0205 
     16 S16         2.1962  -22.8643  -49.7005 S.3       23 UNK        -0.2404 
     17 C17         0.7726  -22.5377  -48.6072 C.3       23 UNK        -0.0398 
     18 CA          0.2717  -23.8285  -47.9256 C.3       11 UNK         0.1400 
     19 N           1.2009  -24.3203  -46.9052 N.am      11 UNK        -0.5000 
     20 C           1.1849  -25.5637  -46.4080 C.2       10 UNK         0.5000 
     21 O           0.3762  -26.4263  -46.7482 O.2       10 UNK        -0.5000 
     22 CA          2.2186  -25.8778  -45.3126 C.3       10 UNK         0.1400 
     23 CB          3.6169  -26.0705  -45.9188 C.3       10 UNK        -0.1800 
     24 N           2.2704  -24.8410  -44.2811 N.am      10 UNK        -0.5000 
     25 C           1.2593  -24.5548  -43.4494 C.2       9 UNK         0.5000 
     26 O           0.1792  -25.1431  -43.4567 O.2       9 UNK        -0.5000 
     27 CA          1.4720  -23.3871  -42.4708 C.3       9 UNK         0.1400 
     28 CB          2.1892  -23.8719  -41.2021 C.3       9 UNK        -0.1800 
     29 N           2.2019  -22.2491  -43.0369 N.am      9 UNK        -0.5000 
     30 C           1.8249  -21.5515  -44.1162 C.2       8 UNK         0.5000 
     31 O           0.8883  -21.8672  -44.8536 O.2       8 UNK        -0.5000 
     32 CA          2.6452  -20.2916  -44.4408 C.3       8 UNK         0.1400 
     33 CB          3.5817  -20.5602  -45.6292 C.3       8 UNK        -0.1800 
     34 N           1.7734  -19.1625  -44.7651 N.am      8 UNK        -0.5000 
     35 C           0.9076  -18.5898  -43.9173 C.2       7 UNK         0.5000 
     36 O           0.7979  -18.8998  -42.7279 O.2       7 UNK        -0.5000 
     37 CA         -0.0145  -17.5175  -44.5296 C.3       7 UNK         0.1400 
     38 CB         -1.1994  -18.1867  -45.2478 C.3       7 UNK        -0.1800 
     39 N          -0.5384  -16.5689  -43.5496 N.am      7 UNK        -0.5000 
     40 C           0.1925  -15.6917  -42.8526 C.2       6 UNK         0.5000 
     41 O           1.4147  -15.5659  -42.9711 O.2       6 UNK        -0.5000 
     42 CA         -0.5873  -14.8315  -41.8389 C.3       6 UNK         0.1400 
     43 CB         -0.9546  -15.6604  -40.5967 C.3       6 UNK        -0.1800 
     44 N           0.1773  -13.6627  -41.4055 N.am      6 UNK        -0.5000 
     45 C           0.3692  -12.5623  -42.1397 C.2       5 UNK         0.5000 
     46 O          -0.1365  -12.3727  -43.2513 O.2       5 UNK        -0.5000 
     47 CA          1.2855  -11.4955  -41.5212 C.3       5 UNK         0.1400 
     48 CB          2.7694  -11.8607  -41.6955 C.3       5 UNK        -0.1800 
     49 N           1.0176  -10.2262  -42.1804 N.am      5 UNK        -0.5000 
     50 C           1.0380   -9.0131  -41.6175 C.2       4 UNK         0.5000 
     51 O           1.3886   -8.8043  -40.4554 O.2       4 UNK        -0.5000 
     52 CA          0.5825   -7.8310  -42.5003 C.3       4 UNK         0.1400 
     53 CB          1.7927   -7.0005  -42.9546 C.3       4 UNK        -0.1800 
     54 N          -0.1566   -8.2685  -43.6864 N.am      4 UNK        -0.5000 
     55 C          -1.4057   -8.7480  -43.6921 C.2       3 UNK         0.5000 
     56 O          -2.1429   -8.7366  -42.7061 O.2       3 UNK        -0.5000 
     57 CA         -1.8927   -9.4091  -44.9960 C.3       3 UNK         0.1400 
     58 CB         -2.4537   -8.3695  -45.9839 C.3       3 UNK        -0.1800 
     59 N          -0.8950  -10.2841  -45.6322 N.am      3 UNK        -0.5000 
     60 C           0.2552   -9.9648  -46.2464 C.2       2 UNK         0.5000 
     61 O           0.6854   -8.8154  -46.3444 O.2       2 UNK        -0.5000 
     62 CA          1.0818  -11.1283  -46.8257 C.3       2 UNK         0.1400 
     63 CB          2.2267  -11.5073  -45.8737 C.3       2 UNK        -0.1800 
     64 N           0.2744  -12.3184  -47.1027 N.am      2 UNK        -0.5000 
     65 C          -0.5290  -12.4559  -48.1680 C.2       1 UNK         0.5000 
     66 O          -0.6632  -11.5919  -49.0349 O.2       1 UNK        -0.5000 
     67 C          -1.1524  -23.6406  -47.3713 C.2       11 UNK         0.5000 
     68 O          -2.1116  -23.8201  -48.1220 O.2       11 UNK        -0.5000 
     69 N          -1.2779  -23.3063  -46.0807 N.am      12 UNK        -0.5000 
     70 CA         -2.5522  -23.2520  -45.3685 C.3       12 UNK         0.1400 
     71 CB         -2.3606  -22.5510  -44.0155 C.3       12 UNK        -0.1800 
     72 C          -3.1699  -24.6521  -45.1950 C.2       12 UNK         0.5000 
     73 O          -4.3513  -24.8294  -45.4911 O.2       12 UNK        -0.5000 
     74 N          -2.3556  -25.6279  -44.7649 N.am      13 UNK        -0.5000 
     75 CA         -2.7501  -27.0277  -44.5812 C.3       13 UNK         0.1400 
     76 CB         -1.6311  -27.7889  -43.8547 C.3       13 UNK        -0.1800 
     77 C          -3.1139  -27.7327  -45.9004 C.2       13 UNK         0.5000 
     78 O          -4.0867  -28.4868  -45.9378 O.2       13 UNK        -0.5000 
     79 N          -2.3483  -27.4533  -46.9643 N.am      14 UNK        -0.5000 
     80 CA         -2.5950  -27.9481  -48.3216 C.3       14 UNK         0.1400 
     81 CB         -1.3149  -27.7692  -49.1536 C.3       14 UNK        -0.1800 
     82 C          -3.7806  -27.2555  -49.0246 C.2       14 UNK         0.5000 
     83 O          -4.2206  -27.7370  -50.0686 O.2       14 UNK        -0.5000 
     84 N          -4.2425  -26.1260  -48.4664 N.am      15 UNK        -0.5000 
     85 CA         -5.2658  -25.2100  -48.9829 C.3       15 UNK         0.1400 
     86 CB         -6.6286  -25.9122  -49.1481 C.3       15 UNK        -0.1800 
     87 C          -4.8338  -24.4508  -50.2549 C.2       15 UNK         0.5000 
     88 O          -5.6676  -23.8085  -50.8921 O.2       15 UNK        -0.5000 
     89 N          -3.5327  -24.4761  -50.5721 N.am      16 UNK        -0.5000 
     90 CA         -2.9029  -23.7359  -51.6643 C.3       16 UNK         0.1400 
     91 CB         -1.4356  -24.1739  -51.7876 C.3       16 UNK        -0.1800 
     92 C          -2.9925  -22.2144  -51.4657 C.2       16 UNK         0.5000 
     93 O          -3.1892  -21.4864  -52.4399 O.2       16 UNK        -0.5000 
     94 N          -2.8885  -21.7737  -50.2031 N.am      17 UNK        -0.5000 
     95 CA         -3.0555  -20.3781  -49.7987 C.3       17 UNK         0.1400 
     96 CB         -2.5369  -20.1906  -48.3642 C.3       17 UNK        -0.1800 
     97 C          -4.5107  -19.8918  -49.9258 C.2       17 UNK         0.5000 
     98 O          -4.7321  -18.7315  -50.2703 O.2       17 UNK        -0.5000 
     99 N          -5.4711  -20.7895  -49.6645 N.am      18 UNK        -0.5000 
    100 CA        -6.9057  -20.5244  -49.7775 C.3       18 UNK         0.1400 
    101 CB        -7.6832  -21.5594  -48.9489 C.3       18 UNK        -0.1800 
    102 C         -7.3764  -20.5262  -51.2424 C.2       18 UNK         0.5000 
    103 O         -8.1532  -19.6553  -51.6350 O.2       18 UNK        -0.5000 
    104 N         -6.8824  -21.4942  -52.0262 N.am      19 UNK        -0.5000 
    105 CA        -7.1746  -21.6521  -53.4518 C.3       19 UNK         0.1400 
    106 CB        -6.7653  -23.0700  -53.8818 C.3       19 UNK        -0.1800 
    107 C         -6.4754  -20.6103  -54.3462 C.2       19 UNK         0.5000 
    108 O         -6.8934  -20.4309  -55.4905 O.2       19 UNK        -0.5000 
    109 N         -5.4158  -19.9742  -53.8229 N.am      20 UNK        -0.5000 
    110 CA        -4.4901  -19.0707  -54.5141 C.3       20 UNK         0.1400 
    111 CB        -5.2002  -17.7861  -54.9882 C.3       20 UNK        -0.1800 
    112 C         -3.7167  -19.7958  -55.6355 C.2       20 UNK         0.5000 
    113 O         -3.5049  -19.2415  -56.7162 O.2       20 UNK        -0.5000 
    114 N         -3.2970  -21.0365  -55.3447 N.am      21 UNK        -0.5000 
    115 CA        -2.6153  -21.9510  -56.2692 C.3       21 UNK         0.1400 
    116 CB        -2.5202  -23.3347  -55.6100 C.3       21 UNK        -0.1800 
    117 C         -1.2218  -21.4637  -56.7168 C.2       21 UNK         0.5000 
    118 O         -0.7108  -21.9180  -57.7408 O.2       21 UNK        -0.5000 
    119 N         -0.6520  -20.5331  -55.9463 N.am      22 UNK        -0.5000 
    120 CA         0.5560  -19.7594  -56.2532 C.3       22 UNK         0.1400 
    121 C          0.3895  -18.7200  -57.4043 C.2       22 UNK         0.5000 
    122 N         -0.8198  -18.3985  -57.8530 N.am      22 UNK        -0.7600 
    123 O          1.3829  -18.2042  -57.9094 O.2       22 UNK        -0.5000 
    124 C124        1.1286  -19.1090  -54.9651 C.3       23 UNK        -0.0398 
    125 S125       -0.0812  -18.0517  -54.0860 S.3       23 UNK        -0.2404 
    126 C126       -0.7172  -19.1862  -52.8129 C.3       23 UNK        -0.0205 
    127 H127       -2.9613  -12.0217  -46.7103 H         1 UNK         0.0600 
    128 H128       -4.0022  -12.6349  -45.4348 H         1 UNK         0.0600 
    129 H129       -4.2011  -13.2288  -47.0818 H         1 UNK         0.0600 
    130 H130       -0.9353  -15.1480  -46.7467 H         1 UNK         0.3000 
    131 H131       -2.3119  -13.4884  -48.6907 H         1 UNK         0.0600 
    132 H132       -0.5135  -14.2466  -50.2431 H         1 UNK         0.0800 
    133 H133       -1.4196  -15.5345  -49.5253 H         1 UNK         0.0800 
    134 H134        0.8671  -17.4750  -47.3890 H         1 UNK         0.0800 
    135 H135       -0.7261  -17.2094  -48.0468 H         1 UNK         0.0800 
    136 H136       -0.8867  -17.4695  -50.7247 H         1 UNK         0.1150 
    137 H137        1.3061  -20.8897  -52.0957 H         1 UNK         0.1150 
    138 H138        2.1992  -19.1630  -48.2805 H         1 UNK         0.1150 
    139 H139        3.5139  -20.9652  -49.0295 H         1 UNK         0.0800 
    140 H140        3.6219  -21.2290  -50.7504 H         1 UNK         0.0800 
    141 H141       -0.0088  -22.0993  -49.2309 H         1 UNK         0.0800 
    142 H142        1.0359  -21.7854  -47.8617 H         1 UNK         0.0800 
    143 H143        0.1931  -24.5998  -48.6948 H         1 UNK         0.0600 
    144 H144        1.8649  -23.6553  -46.5382 H         1 UNK         0.3000 
    145 H145        1.9223  -26.8146  -44.8356 H         1 UNK         0.0600 
    146 H146        3.6055  -26.8462  -46.6857 H         1 UNK         0.0600 
    147 H147        4.3364  -26.3768  -45.1593 H         1 UNK         0.0600 
    148 H148        3.9877  -25.1557  -46.3830 H         1 UNK         0.0600 
    149 H149        3.1202  -24.3011  -44.2114 H         1 UNK         0.3000 
    150 H150        0.4843  -23.0237  -42.1807 H         1 UNK         0.0600 
    151 H151        3.2050  -24.2067  -41.4159 H         1 UNK         0.0600 
    152 H152        1.6565  -24.7085  -40.7476 H         1 UNK         0.0600 
    153 H153        2.2461  -23.0811  -40.4539 H         1 UNK         0.0600 
    154 H154        2.9936  -21.9224  -42.5021 H         1 UNK         0.3000 
    155 H155        3.2475  -20.0172  -43.5724 H         1 UNK         0.0600 
    156 H156        3.0265  -20.8411  -46.5248 H         1 UNK         0.0600 
    157 H157        4.2732  -21.3734  -45.4052 H         1 UNK         0.0600 
    158 H158        4.1816  -19.6817  -45.8675 H         1 UNK         0.0600 
    159 H159        1.7774  -18.8695  -45.7289 H         1 UNK         0.3000 
    160 H160        0.5663  -16.9397  -45.2489 H         1 UNK         0.0600 
    161 H161       -1.8273  -18.7417  -44.5495 H         1 UNK         0.0600 
    162 H162       -0.8578  -18.8937  -46.0050 H         1 UNK         0.0600 
    163 H163       -1.8281  -17.4503  -45.7487 H         1 UNK         0.0600 
    164 H164       -1.5364  -16.5932  -43.3983 H         1 UNK         0.3000 
    165 H165       -1.5083  -14.4884  -42.3158 H         1 UNK         0.0600 
    166 H166       -1.5668  -16.5224  -40.8645 H         1 UNK         0.0600 
    167 H167       -0.0663  -16.0364  -40.0875 H         1 UNK         0.0600 
    168 H168       -1.5270  -15.0686  -39.8821 H         1 UNK         0.0600 
    169 H169        0.6621  -13.7520  -40.5247 H         1 UNK         0.3000 
    170 H170        1.0491  -11.4161  -40.4579 H         1 UNK         0.0600 
    171 H171        3.0403  -11.9530  -42.7477 H         1 UNK         0.0600 
    172 H172        2.9997  -12.8112  -41.2130 H         1 UNK         0.0600 
    173 H173        3.4158  -11.1049  -41.2491 H         1 UNK         0.0600 
    174 H174        0.6459  -10.3211  -43.1159 H         1 UNK         0.3000 
    175 H175       -0.0680   -7.1953  -41.8962 H         1 UNK         0.0600 
    176 H176        2.3587   -6.6319  -42.0981 H         1 UNK         0.0600 
    177 H177        2.4739   -7.5881  -43.5716 H         1 UNK         0.0600 
    178 H178        1.4794   -6.1321  -43.5343 H         1 UNK         0.0600 
    179 H179        0.3569   -8.3053  -44.5632 H         1 UNK         0.3000 
    180 H180       -2.7175  -10.0674  -44.7180 H         1 UNK         0.0600 
    181 H181       -1.6996   -7.6434  -46.2883 H         1 UNK         0.0600 
    182 H182       -3.2759   -7.8122  -45.5335 H         1 UNK         0.0600 
    183 H183       -2.8400   -8.8497  -46.8830 H         1 UNK         0.0600 
    184 H184       -1.0848  -11.2715  -45.5368 H         1 UNK         0.3000 
    185 H185        1.5245  -10.7789  -47.7610 H         1 UNK         0.0600 
    186 H186        2.8444  -10.6403  -45.6356 H         1 UNK         0.0600 
    187 H187        1.8537  -11.9126  -44.9341 H         1 UNK         0.0600 
    188 H188        2.8790  -12.2561  -46.3233 H         1 UNK         0.0600 
    189 H189        0.3283  -13.0733  -46.4340 H         1 UNK         0.3000 
    190 H190       -0.4433  -23.0776  -45.5483 H         1 UNK         0.3000 
    191 H191       -3.2465  -22.6525  -45.9607 H         1 UNK         0.0600 
    192 H192       -1.9579  -21.5462  -44.1466 H         1 UNK         0.0600 
    193 H193       -3.3102  -22.4565  -43.4877 H         1 UNK         0.0600 
    194 H194       -1.6785  -23.1013  -43.3681 H         1 UNK         0.0600 
    195 H195       -1.4011  -25.3945  -44.5035 H         1 UNK         0.3000 
    196 H196       -3.6370  -27.0422  -43.9444 H         1 UNK         0.0600 
    197 H197       -1.9012  -28.8349  -43.7045 H         1 UNK         0.0600 
    198 H198       -1.4375  -27.3595  -42.8716 H         1 UNK         0.0600 
    199 H199       -0.6978  -27.7668  -44.4188 H         1 UNK         0.0600 
    200 H200       -1.5150  -26.8859  -46.8334 H         1 UNK         0.3000 
    201 H201       -2.8223  -29.0147  -48.2668 H         1 UNK         0.0600 
    202 H202       -1.4428  -28.1616  -50.1632 H         1 UNK         0.0600 
    203 H203       -0.4753  -28.3001  -48.7044 H         1 UNK         0.0600 
    204 H204       -1.0376  -26.7182  -49.2425 H         1 UNK         0.0600 
    205 H205       -3.7997  -25.8220  -47.6092 H         1 UNK         0.3000 
    206 H206       -5.3863  -24.4464  -48.2133 H         1 UNK         0.0600 
    207 H207       -6.9126  -26.4401  -48.2377 H         1 UNK         0.0600 
    208 H208       -7.4168  -25.1895  -49.3620 H         1 UNK         0.0600 
    209 H209       -6.6201  -26.6318  -49.9669 H         1 UNK         0.0600 
    210 H210       -2.9127  -24.9480  -49.9291 H         1 UNK         0.3000 
    211 H211       -3.4235  -23.9852  -52.5909 H         1 UNK         0.0600 
    212 H212       -0.9214  -23.6208  -52.5741 H         1 UNK         0.0600 
    213 H213       -1.3606  -25.2338  -52.0315 H         1 UNK         0.0600 
    214 H214       -0.8855  -24.0041  -50.8621 H         1 UNK         0.0600 
    215 H215       -2.7274  -22.4548  -49.4681 H         1 UNK         0.3000 
    216 H216       -2.4511  -19.7587  -50.4597 H         1 UNK         0.0600 
    217 H217       -1.4729  -20.4144  -48.2956 H         1 UNK         0.0600 
    218 H218       -3.0629  -20.8324  -47.6572 H         1 UNK         0.0600 
    219 H219       -2.6686  -19.1595  -48.0335 H         1 UNK         0.0600 
    220 H220       -5.1998  -21.7312  -49.4275 H         1 UNK         0.3000 
    221 H221       -7.1115  -19.5363  -49.3599 H         1 UNK         0.0600 
    222 H222       -7.5241  -22.5749  -49.3123 H         1 UNK         0.0600 
    223 H223       -7.3865  -21.5284  -47.9004 H         1 UNK         0.0600 
    224 H224       -8.7552  -21.3627  -48.9889 H         1 UNK         0.0600 
    225 H225       -6.3061  -22.2195  -51.6051 H         1 UNK         0.3000 
    226 H226       -8.2513  -21.5452  -53.5982 H         1 UNK         0.0600 
    227 H227       -7.2954  -23.8264  -53.3028 H         1 UNK         0.0600 
    228 H228       -6.9962  -23.2447  -54.9334 H         1 UNK         0.0600 
    229 H229       -5.6954  -23.2356  -53.7479 H         1 UNK         0.0600 
    230 H230       -5.1383  -20.2410  -52.8878 H         1 UNK         0.3000 
    231 H231       -3.7480  -18.7751  -53.7728 H         1 UNK         0.0600 
    232 H232       -5.9111  -17.9837  -55.7906 H         1 UNK         0.0600 
    233 H233       -4.4783  -17.0609  -55.3654 H         1 UNK         0.0600 
    234 H234       -5.7405  -17.3105  -54.1696 H         1 UNK         0.0600 
    235 H235       -3.4560  -21.3776  -54.4015 H         1 UNK         0.3000 
    236 H236       -3.2325  -22.0383  -57.1655 H         1 UNK         0.0600 
    237 H237       -1.9116  -23.3036  -54.7069 H         1 UNK         0.0600 
    238 H238       -3.5061  -23.7136  -55.3398 H         1 UNK         0.0600 
    239 H239       -2.0672  -24.0606  -56.2864 H         1 UNK         0.0600 
    240 H240       -1.1742  -20.2132  -55.1457 H         1 UNK         0.3000 
    241 H241        1.3028  -20.4701  -56.6119 H         1 UNK         0.0600 
    242 H242       -0.9044  -17.7290  -58.6012 H         1 UNK         0.3800 
    243 H243       -1.6587  -18.7936  -57.4426 H         1 UNK         0.3800 
    244 H244        1.4830  -19.8877  -54.2899 H         1 UNK         0.0800 
    245 H245        2.0098  -18.5078  -55.1959 H         1 UNK         0.0800 
    246 H246       -1.7339  -18.8842  -52.5617 H         1 UNK         0.0800 
    247 H247       -0.7945  -20.2027  -53.1996 H         1 UNK         0.0800 
@<TRIPOS>BOND
     1    1    2 1    
     2    1  127 1    
     3    1  128 1    
     4    1  129 1    
     5    2    3 2    
     6    2    4 am   BACKBONE|DICT|INTERRES
     7    4    5 1    
     8    4  130 1    
     9    5    6 1    
    10    5   65 1    
    11    5  131 1    
    12    6    7 1    
    13    6  132 1    
    14    6  133 1    
    15    7    8 1    
    16    8    9 1    
    17    8  134 1    
    18    8  135 1    
    19    9   10 ar   
    20    9   14 ar   
    21   10   11 ar   
    22   10  136 1    
    23   11   12 ar   
    24   11  126 1    
    25   12   13 ar   
    26   12  137 1    
    27   13   14 ar   
    28   13   15 1    
    29   14  138 1    
    30   15   16 1    
    31   15  139 1    
    32   15  140 1    
    33   16   17 1    
    34   17   18 1    
    35   17  141 1    
    36   17  142 1    
    37   18   19 1    
    38   18   67 1    
    39   18  143 1    
    40   19   20 am   BACKBONE|DICT|INTERRES
    41   19  144 1    
    42   20   21 2    
    43   20   22 1    
    44   22   23 1    
    45   22   24 1    
    46   22  145 1    
    47   23  146 1    
    48   23  147 1    
    49   23  148 1    
    50   24   25 am   BACKBONE|DICT|INTERRES
    51   24  149 1    
    52   25   26 2    
    53   25   27 1    
    54   27   28 1    
    55   27   29 1    
    56   27  150 1    
    57   28  151 1    
    58   28  152 1    
    59   28  153 1    
    60   29   30 am   BACKBONE|DICT|INTERRES
    61   29  154 1    
    62   30   31 2    
    63   30   32 1    
    64   32   33 1    
    65   32   34 1    
    66   32  155 1    
    67   33  156 1    
    68   33  157 1    
    69   33  158 1    
    70   34   35 am   BACKBONE|DICT|INTERRES
    71   34  159 1    
    72   35   36 2    
    73   35   37 1    
    74   37   38 1    
    75   37   39 1    
    76   37  160 1    
    77   38  161 1    
    78   38  162 1    
    79   38  163 1    
    80   39   40 am   BACKBONE|DICT|INTERRES
    81   39  164 1    
    82   40   41 2    
    83   40   42 1    
    84   42   43 1    
    85   42   44 1    
    86   42  165 1    
    87   43  166 1    
    88   43  167 1    
    89   43  168 1    
    90   44   45 am   BACKBONE|DICT|INTERRES
    91   44  169 1    
    92   45   46 2    
    93   45   47 1    
    94   47   48 1    
    95   47   49 1    
    96   47  170 1    
    97   48  171 1    
    98   48  172 1    
    99   48  173 1    
   100   49   50 am   BACKBONE|DICT|INTERRES
   101   49  174 1    
   102   50   51 2    
   103   50   52 1    
   104   52   53 1    
   105   52   54 1    
   106   52  175 1    
   107   53  176 1    
   108   53  177 1    
   109   53  178 1    
   110   54   55 am   BACKBONE|DICT|INTERRES
   111   54  179 1    
   112   55   56 2    
   113   55   57 1    
   114   57   58 1    
   115   57   59 1    
   116   57  180 1    
   117   58  181 1    
   118   58  182 1    
   119   58  183 1    
   120   59   60 am   BACKBONE|DICT|INTERRES
   121   59  184 1    
   122   60   61 2    
   123   60   62 1    
   124   62   63 1    
   125   62   64 1    
   126   62  185 1    
   127   63  186 1    
   128   63  187 1    
   129   63  188 1    
   130   64   65 am   BACKBONE|DICT|INTERRES
   131   64  189 1    
   132   65   66 2    
   133   67   68 2    
   134   67   69 am   BACKBONE|DICT|INTERRES
   135   69   70 1    
   136   69  190 1    
   137   70   71 1    
   138   70   72 1    
   139   70  191 1    
   140   71  192 1    
   141   71  193 1    
   142   71  194 1    
   143   72   73 2    
   144   72   74 am   BACKBONE|DICT|INTERRES
   145   74   75 1    
   146   74  195 1    
   147   75   76 1    
   148   75   77 1    
   149   75  196 1    
   150   76  197 1    
   151   76  198 1    
   152   76  199 1    
   153   77   78 2    
   154   77   79 am   BACKBONE|DICT|INTERRES
   155   79   80 1    
   156   79  200 1    
   157   80   81 1    
   158   80   82 1    
   159   80  201 1    
   160   81  202 1    
   161   81  203 1    
   162   81  204 1    
   163   82   83 2    
   164   82   84 am   BACKBONE|DICT|INTERRES
   165   84   85 1    
   166   84  205 1    
   167   85   86 1    
   168   85   87 1    
   169   85  206 1    
   170   86  207 1    
   171   86  208 1    
   172   86  209 1    
   173   87   88 2    
   174   87   89 am   BACKBONE|DICT|INTERRES
   175   89   90 1    
   176   89  210 1    
   177   90   91 1    
   178   90   92 1    
   179   90  211 1    
   180   91  212 1    
   181   91  213 1    
   182   91  214 1    
   183   92   93 2    
   184   92   94 am   BACKBONE|DICT|INTERRES
   185   94   95 1    
   186   94  215 1    
   187   95   96 1    
   188   95   97 1    
   189   95  216 1    
   190   96  217 1    
   191   96  218 1    
   192   96  219 1    
   193   97   98 2    
   194   97   99 am   BACKBONE|DICT|INTERRES
   195   99  100 1    
   196   99  220 1    
   197  100  101 1    
   198  100  102 1    
   199  100  221 1    
   200  101  222 1    
   201  101  223 1    
   202  101  224 1    
   203  102  103 2    
   204  102  104 am   BACKBONE|DICT|INTERRES
   205  104  105 1    
   206  104  225 1    
   207  105  106 1    
   208  105  107 1    
   209  105  226 1    
   210  106  227 1    
   211  106  228 1    
   212  106  229 1    
   213  107  108 2    
   214  107  109 am   BACKBONE|DICT|INTERRES
   215  109  110 1    
   216  109  230 1    
   217  110  111 1    
   218  110  112 1    
   219  110  231 1    
   220  111  232 1    
   221  111  233 1    
   222  111  234 1    
   223  112  113 2    
   224  112  114 am   BACKBONE|DICT|INTERRES
   225  114  115 1    
   226  114  235 1    
   227  115  116 1    
   228  115  117 1    
   229  115  236 1    
   230  116  237 1    
   231  116  238 1    
   232  116  239 1    
   233  117  118 2    
   234  117  119 am   BACKBONE|DICT|INTERRES
   235  119  120 1    
   236  119  240 1    
   237  120  121 1    
   238  120  124 1    
   239  120  241 1    
   240  121  122 am   BACKBONE|DICT|INTERRES
   241  121  123 2    
   242  122  242 1    
   243  122  243 1    
   244  124  125 1    
   245  124  244 1    
   246  124  245 1    
   247  125  126 1    
   248  126  246 1    
   249  126  247 1    
@<TRIPOS>SUBSTRUCTURE
     1 UNK         1 GROUP             0       ****    0 ROOT    
