@<TRIPOS>MOLECULE
3R540
247   249    1
SMALL
USER_CHARGES


@<TRIPOS>ATOM
      1 CA         -1.2748  -11.7028  -49.9309 C.3       0 UNK        -0.1800 
      2 C          -0.2388  -12.1337  -48.9018 C.2       0 UNK         0.5000 
      3 O          -0.6097  -12.4599  -47.7757 O.2       0 UNK        -0.5000 
      4 N           1.0399  -12.1440  -49.3047 N.am      1 UNK        -0.5000 
      5 CA          2.2437  -12.4777  -48.5277 C.3       1 UNK         0.1400 
      6 C6          2.1805  -13.8264  -47.7608 C.3       23 UNK        -0.0398 
      7 S7          1.8825  -15.2437  -48.8652 S.3       23 UNK        -0.2404 
      8 C8          0.4200  -16.0054  -48.0890 C.3       23 UNK        -0.0205 
      9 C9          0.0446  -17.3090  -48.7779 C.ar      23 UNK        -0.0193 
     10 C10        -1.2210  -17.4761  -49.3473 C.ar      23 UNK        -0.1150 
     11 C11        -1.5507  -18.6632  -50.0104 C.ar      23 UNK        -0.0193 
     12 C12        -0.6091  -19.6938  -50.0877 C.ar      23 UNK        -0.1150 
     13 C13         0.6584  -19.5382  -49.5205 C.ar      23 UNK        -0.0193 
     14 C14         0.9735  -18.3501  -48.8579 C.ar      23 UNK        -0.1150 
     15 C15         1.7014  -20.6381  -49.6457 C.3       23 UNK        -0.0205 
     16 S16         2.1347  -21.3513  -48.0314 S.3       23 UNK        -0.2404 
     17 C17         0.5335  -22.0641  -47.5346 C.3       23 UNK        -0.0398 
     18 CA          0.7153  -23.1372  -46.4413 C.3       11 UNK         0.1400 
     19 N           1.1946  -22.5651  -45.1786 N.am      11 UNK        -0.5000 
     20 C           1.6856  -23.2760  -44.1546 C.2       10 UNK         0.5000 
     21 O           1.7891  -24.5029  -44.1634 O.2       10 UNK        -0.5000 
     22 CA          2.0702  -22.4854  -42.8917 C.3       10 UNK         0.1400 
     23 CB          3.4280  -21.7863  -43.0593 C.3       10 UNK        -0.1800 
     24 N           1.0401  -21.5049  -42.5472 N.am      10 UNK        -0.5000 
     25 C          -0.1595  -21.8343  -42.0475 C.2       9 UNK         0.5000 
     26 O          -0.4701  -22.9827  -41.7323 O.2       9 UNK        -0.5000 
     27 CA         -1.1973  -20.7083  -41.8888 C.3       9 UNK         0.1400 
     28 CB         -1.1089  -20.0996  -40.4815 C.3       9 UNK        -0.1800 
     29 N          -1.0691  -19.6485  -42.8913 N.am      9 UNK        -0.5000 
     30 C          -1.2948  -19.8023  -44.2043 C.2       8 UNK         0.5000 
     31 O          -1.6613  -20.8606  -44.7115 O.2       8 UNK        -0.5000 
     32 CA         -1.0068  -18.5909  -45.1131 C.3       8 UNK         0.1400 
     33 CB         -2.1823  -17.6047  -45.1126 C.3       8 UNK        -0.1800 
     34 N           0.2255  -17.8898  -44.7491 N.am      8 UNK        -0.5000 
     35 C           1.4418  -18.4528  -44.7853 C.2       7 UNK         0.5000 
     36 O           1.6447  -19.6182  -45.1234 O.2       7 UNK        -0.5000 
     37 CA          2.6186  -17.5875  -44.3099 C.3       7 UNK         0.1400 
     38 CB          3.0824  -16.6234  -45.4114 C.3       7 UNK        -0.1800 
     39 N           2.2787  -16.8422  -43.0981 N.am      7 UNK        -0.5000 
     40 C           2.1745  -17.4037  -41.8850 C.2       6 UNK         0.5000 
     41 O           2.4298  -18.5859  -41.6546 O.2       6 UNK        -0.5000 
     42 CA          1.6564  -16.5056  -40.7466 C.3       6 UNK         0.1400 
     43 CB          2.8078  -15.7301  -40.0915 C.3       6 UNK        -0.1800 
     44 N           0.6193  -15.5714  -41.1907 N.am      6 UNK        -0.5000 
     45 C          -0.6072  -15.9551  -41.5754 C.2       5 UNK         0.5000 
     46 O          -0.9739  -17.1276  -41.5957 O.2       5 UNK        -0.5000 
     47 CA         -1.5892  -14.8682  -42.0450 C.3       5 UNK         0.1400 
     48 CB         -2.4563  -14.3891  -40.8716 C.3       5 UNK        -0.1800 
     49 N          -0.9539  -13.7125  -42.6721 N.am      5 UNK        -0.5000 
     50 C          -0.1705  -13.7350  -43.7582 C.2       4 UNK         0.5000 
     51 O           0.1556  -14.7680  -44.3503 O.2       4 UNK        -0.5000 
     52 CA          0.3567  -12.3720  -44.2521 C.3       4 UNK         0.1400 
     53 CB         -0.2393  -11.1510  -43.5156 C.3       4 UNK        -0.1800 
     54 N           1.8167  -12.2936  -44.2290 N.am      4 UNK        -0.5000 
     55 C           2.6411  -12.5346  -43.1976 C.2       3 UNK         0.5000 
     56 O           2.2595  -12.9208  -42.0917 O.2       3 UNK        -0.5000 
     57 CA          4.1501  -12.3133  -43.4403 C.3       3 UNK         0.1400 
     58 CB          4.9293  -13.6270  -43.2774 C.3       3 UNK        -0.1800 
     59 N           4.4362  -11.7614  -44.7682 N.am      3 UNK        -0.5000 
     60 C           4.4035  -10.4585  -45.0820 C.2       2 UNK         0.5000 
     61 O           4.2081   -9.5597  -44.2639 O.2       2 UNK        -0.5000 
     62 CA          4.5788  -10.1108  -46.5736 C.3       2 UNK         0.1400 
     63 CB          6.0667   -9.9467  -46.9193 C.3       2 UNK        -0.1800 
     64 N           3.9798  -11.1096  -47.4678 N.am      2 UNK        -0.5000 
     65 C           2.6625  -11.3344  -47.5804 C.2       1 UNK         0.5000 
     66 O           1.8178  -10.7099  -46.9376 O.2       1 UNK        -0.5000 
     67 C          -0.5703  -23.9730  -46.2800 C.2       11 UNK         0.5000 
     68 O          -0.8070  -24.8570  -47.1012 O.2       11 UNK        -0.5000 
     69 N          -1.3596  -23.7260  -45.2245 N.am      12 UNK        -0.5000 
     70 CA         -2.5721  -24.4757  -44.8752 C.3       12 UNK         0.1400 
     71 CB         -3.3132  -23.7498  -43.7421 C.3       12 UNK        -0.1800 
     72 C          -2.3254  -25.9560  -44.5114 C.2       12 UNK         0.5000 
     73 O          -3.2822  -26.7300  -44.4716 O.2       12 UNK        -0.5000 
     74 N          -1.0600  -26.3382  -44.2813 N.am      13 UNK        -0.5000 
     75 CA         -0.6194  -27.7321  -44.1914 C.3       13 UNK         0.1400 
     76 CB          0.7893  -27.7710  -43.5802 C.3       13 UNK        -0.1800 
     77 C          -0.6365  -28.4542  -45.5578 C.2       13 UNK         0.5000 
     78 O          -0.6844  -29.6849  -45.5867 O.2       13 UNK        -0.5000 
     79 N          -0.6007  -27.6843  -46.6537 N.am      14 UNK        -0.5000 
     80 CA         -0.7558  -28.1336  -48.0326 C.3       14 UNK         0.1400 
     81 CB          0.4147  -27.5787  -48.8696 C.3       14 UNK        -0.1800 
     82 C          -2.1472  -27.7014  -48.5440 C.2       14 UNK         0.5000 
     83 O          -3.1199  -27.7747  -47.7899 O.2       14 UNK        -0.5000 
     84 N          -2.2402  -27.2969  -49.8181 N.am      15 UNK        -0.5000 
     85 CA         -3.4949  -26.9300  -50.4759 C.3       15 UNK         0.1400 
     86 CB         -3.2965  -26.9419  -52.0008 C.3       15 UNK        -0.1800 
     87 C          -4.0565  -25.5739  -50.0105 C.2       15 UNK         0.5000 
     88 O          -5.2359  -25.5016  -49.6637 O.2       15 UNK        -0.5000 
     89 N          -3.2099  -24.5294  -50.0462 N.am      16 UNK        -0.5000 
     90 CA         -3.5407  -23.1146  -49.8017 C.3       16 UNK         0.1400 
     91 CB         -3.7710  -22.8563  -48.3001 C.3       16 UNK        -0.1800 
     92 C          -4.7113  -22.6174  -50.6811 C.2       16 UNK         0.5000 
     93 O          -5.6638  -22.0160  -50.1799 O.2       16 UNK        -0.5000 
     94 N          -4.6330  -22.9300  -51.9819 N.am      17 UNK        -0.5000 
     95 CA         -5.6873  -22.7419  -52.9790 C.3       17 UNK         0.1400 
     96 CB         -5.3713  -23.6317  -54.1948 C.3       17 UNK        -0.1800 
     97 C          -5.8999  -21.2670  -53.3763 C.2       17 UNK         0.5000 
     98 O          -5.6356  -20.8871  -54.5180 O.2       17 UNK        -0.5000 
     99 N          -6.3963  -20.4530  -52.4375 N.am      18 UNK        -0.5000 
    100 CA        -6.7139  -19.0316  -52.6195 C.3       18 UNK         0.1400 
    101 CB        -7.1802  -18.4437  -51.2806 C.3       18 UNK        -0.1800 
    102 C         -7.7473  -18.7548  -53.7311 C.2       18 UNK         0.5000 
    103 O         -7.6815  -17.7067  -54.3734 O.2       18 UNK        -0.5000 
    104 N         -8.6368  -19.7252  -53.9870 N.am      19 UNK        -0.5000 
    105 CA        -9.5861  -19.7311  -55.1045 C.3       19 UNK         0.1400 
    106 CB       -10.5707  -20.8944  -54.9112 C.3       19 UNK        -0.1800 
    107 C         -8.9110  -19.8230  -56.4909 C.2       19 UNK         0.5000 
    108 O         -9.5086  -19.4021  -57.4816 O.2       19 UNK        -0.5000 
    109 N         -7.6774  -20.3438  -56.5326 N.am      20 UNK        -0.5000 
    110 CA        -6.8075  -20.4138  -57.7067 C.3       20 UNK         0.1400 
    111 CB        -6.2874  -21.8557  -57.8472 C.3       20 UNK        -0.1800 
    112 C         -5.6539  -19.3946  -57.5895 C.2       20 UNK         0.5000 
    113 O         -4.5777  -19.6178  -58.1479 O.2       20 UNK        -0.5000 
    114 N         -5.8829  -18.3078  -56.8337 N.am      21 UNK        -0.5000 
    115 CA        -4.9599  -17.2025  -56.5494 C.3       21 UNK         0.1400 
    116 CB        -4.6934  -16.3801  -57.8275 C.3       21 UNK        -0.1800 
    117 C         -3.6608  -17.6441  -55.8404 C.2       21 UNK         0.5000 
    118 O         -2.6247  -16.9970  -56.0018 O.2       21 UNK        -0.5000 
    119 N         -3.7422  -18.7424  -55.0768 N.am      22 UNK        -0.5000 
    120 CA        -2.6333  -19.4066  -54.3721 C.3       22 UNK         0.1400 
    121 C         -1.6287  -20.1369  -55.3155 C.2       22 UNK         0.5000 
    122 N         -1.9483  -20.3597  -56.5863 N.am      22 UNK        -0.7600 
    123 O         -0.5527  -20.5418  -54.8844 O.2       22 UNK        -0.5000 
    124 C124       -1.9310  -18.5063  -53.3153 C.3       23 UNK        -0.0398 
    125 S125       -3.0971  -17.7515  -52.1245 S.3       23 UNK        -0.2404 
    126 C126       -2.9164  -18.8218  -50.6624 C.3       23 UNK        -0.0205 
    127 H127       -1.8213  -10.8315  -49.5700 H         1 UNK         0.0600 
    128 H128       -1.9893  -12.5080  -50.1021 H         1 UNK         0.0600 
    129 H129       -0.8176  -11.4455  -50.8867 H         1 UNK         0.0600 
    130 H130        1.2335  -11.8500  -50.2516 H         1 UNK         0.3000 
    131 H131        3.0343  -12.5697  -49.2745 H         1 UNK         0.0600 
    132 H132        1.4246  -13.8002  -46.9747 H         1 UNK         0.0800 
    133 H133        3.1274  -14.0166  -47.2529 H         1 UNK         0.0800 
    134 H134        0.6191  -16.2057  -47.0369 H         1 UNK         0.0800 
    135 H135       -0.4089  -15.2965  -48.1188 H         1 UNK         0.0800 
    136 H136       -1.9457  -16.6757  -49.2964 H         1 UNK         0.1150 
    137 H137       -0.8550  -20.6088  -50.6075 H         1 UNK         0.1150 
    138 H138        1.9539  -18.2287  -48.4191 H         1 UNK         0.1150 
    139 H139        1.3591  -21.4312  -50.3121 H         1 UNK         0.0800 
    140 H140        2.6017  -20.2231  -50.1008 H         1 UNK         0.0800 
    141 H141        0.0643  -22.4925  -48.4227 H         1 UNK         0.0800 
    142 H142       -0.1239  -21.2639  -47.1894 H         1 UNK         0.0800 
    143 H143        1.4802  -23.8361  -46.7878 H         1 UNK         0.0600 
    144 H144        1.1883  -21.5509  -45.1130 H         1 UNK         0.3000 
    145 H145        2.1607  -23.1947  -42.0661 H         1 UNK         0.0600 
    146 H146        3.7049  -21.2427  -42.1557 H         1 UNK         0.0600 
    147 H147        4.2162  -22.5137  -43.2568 H         1 UNK         0.0600 
    148 H148        3.4250  -21.0773  -43.8866 H         1 UNK         0.0600 
    149 H149        1.2303  -20.5383  -42.7746 H         1 UNK         0.3000 
    150 H150       -2.1864  -21.1566  -42.0031 H         1 UNK         0.0600 
    151 H151       -1.1998  -20.8692  -39.7139 H         1 UNK         0.0600 
    152 H152       -1.9094  -19.3791  -40.3132 H         1 UNK         0.0600 
    153 H153       -0.1581  -19.5882  -40.3252 H         1 UNK         0.0600 
    154 H154       -0.8286  -18.7254  -42.5376 H         1 UNK         0.3000 
    155 H155       -0.8812  -18.9632  -46.1324 H         1 UNK         0.0600 
    156 H156       -2.3894  -17.2287  -44.1114 H         1 UNK         0.0600 
    157 H157       -3.0912  -18.0859  -45.4757 H         1 UNK         0.0600 
    158 H158       -1.9835  -16.7509  -45.7610 H         1 UNK         0.0600 
    159 H159        0.1415  -16.9205  -44.4652 H         1 UNK         0.3000 
    160 H160        3.4485  -18.2623  -44.0880 H         1 UNK         0.0600 
    161 H161        2.4059  -15.7764  -45.5190 H         1 UNK         0.0600 
    162 H162        3.1422  -17.1253  -46.3783 H         1 UNK         0.0600 
    163 H163        4.0764  -16.2359  -45.1951 H         1 UNK         0.0600 
    164 H164        1.9865  -15.8818  -43.2149 H         1 UNK         0.3000 
    165 H165        1.2185  -17.1580  -39.9879 H         1 UNK         0.0600 
    166 H166        2.4552  -15.1399  -39.2456 H         1 UNK         0.0600 
    167 H167        3.5734  -16.4109  -39.7172 H         1 UNK         0.0600 
    168 H168        3.2883  -15.0522  -40.7955 H         1 UNK         0.0600 
    169 H169        0.8726  -14.5925  -41.2466 H         1 UNK         0.3000 
    170 H170       -2.2471  -15.3188  -42.7893 H         1 UNK         0.0600 
    171 H171       -2.9680  -15.2272  -40.3961 H         1 UNK         0.0600 
    172 H172       -1.8585  -13.8924  -40.1062 H         1 UNK         0.0600 
    173 H173       -3.2235  -13.6904  -41.2060 H         1 UNK         0.0600 
    174 H174       -1.1358  -12.8174  -42.2423 H         1 UNK         0.3000 
    175 H175        0.0608  -12.2981  -45.2972 H         1 UNK         0.0600 
    176 H176        0.0382  -11.1289  -42.4610 H         1 UNK         0.0600 
    177 H177        0.1134  -10.2224  -43.9653 H         1 UNK         0.0600 
    178 H178       -1.3281  -11.1395  -43.5811 H         1 UNK         0.0600 
    179 H179        2.2294  -11.9470  -45.0830 H         1 UNK         0.3000 
    180 H180        4.5022  -11.6160  -42.6773 H         1 UNK         0.0600 
    181 H181        4.5881  -14.3843  -43.9807 H         1 UNK         0.0600 
    182 H182        4.8112  -14.0325  -42.2727 H         1 UNK         0.0600 
    183 H183        5.9969  -13.4754  -43.4380 H         1 UNK         0.0600 
    184 H184        4.6279  -12.4270  -45.5022 H         1 UNK         0.3000 
    185 H185        4.0811   -9.1548  -46.7508 H         1 UNK         0.0600 
    186 H186        6.5341   -9.1935  -46.2834 H         1 UNK         0.0600 
    187 H187        6.6183  -10.8779  -46.7845 H         1 UNK         0.0600 
    188 H188        6.1984   -9.6241  -47.9523 H         1 UNK         0.0600 
    189 H189        4.6241  -11.6501  -48.0279 H         1 UNK         0.3000 
    190 H190       -1.1474  -22.9186  -44.6506 H         1 UNK         0.3000 
    191 H191       -3.2211  -24.4756  -45.7526 H         1 UNK         0.0600 
    192 H192       -3.5418  -22.7192  -44.0131 H         1 UNK         0.0600 
    193 H193       -4.2606  -24.2416  -43.5183 H         1 UNK         0.0600 
    194 H194       -2.7290  -23.7373  -42.8229 H         1 UNK         0.0600 
    195 H195       -0.3320  -25.6356  -44.2984 H         1 UNK         0.3000 
    196 H196       -1.2975  -28.2672  -43.5235 H         1 UNK         0.0600 
    197 H197        1.1267  -28.7990  -43.4426 H         1 UNK         0.0600 
    198 H198        0.8104  -27.2877  -42.6033 H         1 UNK         0.0600 
    199 H199        1.5177  -27.2695  -44.2186 H         1 UNK         0.0600 
    200 H200       -0.6310  -26.6754  -46.5406 H         1 UNK         0.3000 
    201 H201       -0.7219  -29.2234  -48.0831 H         1 UNK         0.0600 
    202 H202        1.3726  -27.8523  -48.4269 H         1 UNK         0.0600 
    203 H203        0.3845  -26.4907  -48.9409 H         1 UNK         0.0600 
    204 H204        0.4083  -27.9833  -49.8822 H         1 UNK         0.0600 
    205 H205       -1.4017  -27.2616  -50.3788 H         1 UNK         0.3000 
    206 H206       -4.2389  -27.6930  -50.2359 H         1 UNK         0.0600 
    207 H207       -3.0057  -27.9324  -52.3512 H         1 UNK         0.0600 
    208 H208       -4.2201  -26.6756  -52.5165 H         1 UNK         0.0600 
    209 H209       -2.5281  -26.2361  -52.3181 H         1 UNK         0.0600 
    210 H210       -2.2560  -24.7134  -50.3219 H         1 UNK         0.3000 
    211 H211       -2.6678  -22.5331  -50.1017 H         1 UNK         0.0600 
    212 H212       -4.6174  -23.4248  -47.9138 H         1 UNK         0.0600 
    213 H213       -3.9660  -21.8007  -48.1066 H         1 UNK         0.0600 
    214 H214       -2.8913  -23.1273  -47.7222 H         1 UNK         0.0600 
    215 H215       -3.8076  -23.4137  -52.3029 H         1 UNK         0.3000 
    216 H216       -6.6271  -23.0957  -52.5501 H         1 UNK         0.0600 
    217 H217       -6.1572  -23.5584  -54.9478 H         1 UNK         0.0600 
    218 H218       -5.2979  -24.6809  -53.9083 H         1 UNK         0.0600 
    219 H219       -4.4321  -23.3467  -54.6710 H         1 UNK         0.0600 
    220 H220       -6.5103  -20.8356  -51.5033 H         1 UNK         0.3000 
    221 H221       -5.7936  -18.5252  -52.9116 H         1 UNK         0.0600 
    222 H222       -8.0828  -18.9366  -50.9176 H         1 UNK         0.0600 
    223 H223       -6.4093  -18.5479  -50.5166 H         1 UNK         0.0600 
    224 H224       -7.4000  -17.3795  -51.3757 H         1 UNK         0.0600 
    225 H225       -8.6208  -20.5489  -53.4038 H         1 UNK         0.3000 
    226 H226      -10.1484  -18.7955  -55.0747 H         1 UNK         0.0600 
    227 H227      -11.1108  -20.8023  -53.9687 H         1 UNK         0.0600 
    228 H228      -11.3142  -20.9142  -55.7092 H         1 UNK         0.0600 
    229 H229      -10.0601  -21.8583  -54.9144 H         1 UNK         0.0600 
    230 H230       -7.2345  -20.6230  -55.6636 H         1 UNK         0.3000 
    231 H231       -7.3651  -20.1636  -58.6111 H         1 UNK         0.0600 
    232 H232       -7.1100  -22.5696  -57.8904 H         1 UNK         0.0600 
    233 H233       -5.6450  -22.1339  -57.0109 H         1 UNK         0.0600 
    234 H234       -5.7062  -21.9766  -58.7621 H         1 UNK         0.0600 
    235 H235       -6.7812  -18.2378  -56.3723 H         1 UNK         0.3000 
    236 H236       -5.4772  -16.5523  -55.8426 H         1 UNK         0.0600 
    237 H237       -4.1313  -15.4734  -57.6009 H         1 UNK         0.0600 
    238 H238       -4.1181  -16.9467  -58.5603 H         1 UNK         0.0600 
    239 H239       -5.6262  -16.0711  -58.2990 H         1 UNK         0.0600 
    240 H240       -4.6206  -19.2478  -55.0430 H         1 UNK         0.3000 
    241 H241       -3.1004  -20.2186  -53.8157 H         1 UNK         0.0600 
    242 H242       -1.2948  -20.8429  -57.1817 H         1 UNK         0.3800 
    243 H243       -2.8315  -20.0427  -56.9680 H         1 UNK         0.3800 
    244 H244       -1.3799  -17.7025  -53.8043 H         1 UNK         0.0800 
    245 H245       -1.1826  -19.0791  -52.7681 H         1 UNK         0.0800 
    246 H246       -3.0993  -19.8579  -50.9503 H         1 UNK         0.0800 
    247 H247       -3.6906  -18.5644  -49.9383 H         1 UNK         0.0800 
@<TRIPOS>BOND
     1    1    2 1    
     2    1  127 1    
     3    1  128 1    
     4    1  129 1    
     5    2    3 2    
     6    2    4 am   BACKBONE|DICT|INTERRES
     7    4    5 1    
     8    4  130 1    
     9    5    6 1    
    10    5   65 1    
    11    5  131 1    
    12    6    7 1    
    13    6  132 1    
    14    6  133 1    
    15    7    8 1    
    16    8    9 1    
    17    8  134 1    
    18    8  135 1    
    19    9   10 ar   
    20    9   14 ar   
    21   10   11 ar   
    22   10  136 1    
    23   11   12 ar   
    24   11  126 1    
    25   12   13 ar   
    26   12  137 1    
    27   13   14 ar   
    28   13   15 1    
    29   14  138 1    
    30   15   16 1    
    31   15  139 1    
    32   15  140 1    
    33   16   17 1    
    34   17   18 1    
    35   17  141 1    
    36   17  142 1    
    37   18   19 1    
    38   18   67 1    
    39   18  143 1    
    40   19   20 am   BACKBONE|DICT|INTERRES
    41   19  144 1    
    42   20   21 2    
    43   20   22 1    
    44   22   23 1    
    45   22   24 1    
    46   22  145 1    
    47   23  146 1    
    48   23  147 1    
    49   23  148 1    
    50   24   25 am   BACKBONE|DICT|INTERRES
    51   24  149 1    
    52   25   26 2    
    53   25   27 1    
    54   27   28 1    
    55   27   29 1    
    56   27  150 1    
    57   28  151 1    
    58   28  152 1    
    59   28  153 1    
    60   29   30 am   BACKBONE|DICT|INTERRES
    61   29  154 1    
    62   30   31 2    
    63   30   32 1    
    64   32   33 1    
    65   32   34 1    
    66   32  155 1    
    67   33  156 1    
    68   33  157 1    
    69   33  158 1    
    70   34   35 am   BACKBONE|DICT|INTERRES
    71   34  159 1    
    72   35   36 2    
    73   35   37 1    
    74   37   38 1    
    75   37   39 1    
    76   37  160 1    
    77   38  161 1    
    78   38  162 1    
    79   38  163 1    
    80   39   40 am   BACKBONE|DICT|INTERRES
    81   39  164 1    
    82   40   41 2    
    83   40   42 1    
    84   42   43 1    
    85   42   44 1    
    86   42  165 1    
    87   43  166 1    
    88   43  167 1    
    89   43  168 1    
    90   44   45 am   BACKBONE|DICT|INTERRES
    91   44  169 1    
    92   45   46 2    
    93   45   47 1    
    94   47   48 1    
    95   47   49 1    
    96   47  170 1    
    97   48  171 1    
    98   48  172 1    
    99   48  173 1    
   100   49   50 am   BACKBONE|DICT|INTERRES
   101   49  174 1    
   102   50   51 2    
   103   50   52 1    
   104   52   53 1    
   105   52   54 1    
   106   52  175 1    
   107   53  176 1    
   108   53  177 1    
   109   53  178 1    
   110   54   55 am   BACKBONE|DICT|INTERRES
   111   54  179 1    
   112   55   56 2    
   113   55   57 1    
   114   57   58 1    
   115   57   59 1    
   116   57  180 1    
   117   58  181 1    
   118   58  182 1    
   119   58  183 1    
   120   59   60 am   BACKBONE|DICT|INTERRES
   121   59  184 1    
   122   60   61 2    
   123   60   62 1    
   124   62   63 1    
   125   62   64 1    
   126   62  185 1    
   127   63  186 1    
   128   63  187 1    
   129   63  188 1    
   130   64   65 am   BACKBONE|DICT|INTERRES
   131   64  189 1    
   132   65   66 2    
   133   67   68 2    
   134   67   69 am   BACKBONE|DICT|INTERRES
   135   69   70 1    
   136   69  190 1    
   137   70   71 1    
   138   70   72 1    
   139   70  191 1    
   140   71  192 1    
   141   71  193 1    
   142   71  194 1    
   143   72   73 2    
   144   72   74 am   BACKBONE|DICT|INTERRES
   145   74   75 1    
   146   74  195 1    
   147   75   76 1    
   148   75   77 1    
   149   75  196 1    
   150   76  197 1    
   151   76  198 1    
   152   76  199 1    
   153   77   78 2    
   154   77   79 am   BACKBONE|DICT|INTERRES
   155   79   80 1    
   156   79  200 1    
   157   80   81 1    
   158   80   82 1    
   159   80  201 1    
   160   81  202 1    
   161   81  203 1    
   162   81  204 1    
   163   82   83 2    
   164   82   84 am   BACKBONE|DICT|INTERRES
   165   84   85 1    
   166   84  205 1    
   167   85   86 1    
   168   85   87 1    
   169   85  206 1    
   170   86  207 1    
   171   86  208 1    
   172   86  209 1    
   173   87   88 2    
   174   87   89 am   BACKBONE|DICT|INTERRES
   175   89   90 1    
   176   89  210 1    
   177   90   91 1    
   178   90   92 1    
   179   90  211 1    
   180   91  212 1    
   181   91  213 1    
   182   91  214 1    
   183   92   93 2    
   184   92   94 am   BACKBONE|DICT|INTERRES
   185   94   95 1    
   186   94  215 1    
   187   95   96 1    
   188   95   97 1    
   189   95  216 1    
   190   96  217 1    
   191   96  218 1    
   192   96  219 1    
   193   97   98 2    
   194   97   99 am   BACKBONE|DICT|INTERRES
   195   99  100 1    
   196   99  220 1    
   197  100  101 1    
   198  100  102 1    
   199  100  221 1    
   200  101  222 1    
   201  101  223 1    
   202  101  224 1    
   203  102  103 2    
   204  102  104 am   BACKBONE|DICT|INTERRES
   205  104  105 1    
   206  104  225 1    
   207  105  106 1    
   208  105  107 1    
   209  105  226 1    
   210  106  227 1    
   211  106  228 1    
   212  106  229 1    
   213  107  108 2    
   214  107  109 am   BACKBONE|DICT|INTERRES
   215  109  110 1    
   216  109  230 1    
   217  110  111 1    
   218  110  112 1    
   219  110  231 1    
   220  111  232 1    
   221  111  233 1    
   222  111  234 1    
   223  112  113 2    
   224  112  114 am   BACKBONE|DICT|INTERRES
   225  114  115 1    
   226  114  235 1    
   227  115  116 1    
   228  115  117 1    
   229  115  236 1    
   230  116  237 1    
   231  116  238 1    
   232  116  239 1    
   233  117  118 2    
   234  117  119 am   BACKBONE|DICT|INTERRES
   235  119  120 1    
   236  119  240 1    
   237  120  121 1    
   238  120  124 1    
   239  120  241 1    
   240  121  122 am   BACKBONE|DICT|INTERRES
   241  121  123 2    
   242  122  242 1    
   243  122  243 1    
   244  124  125 1    
   245  124  244 1    
   246  124  245 1    
   247  125  126 1    
   248  126  246 1    
   249  126  247 1    
@<TRIPOS>SUBSTRUCTURE
     1 UNK         1 GROUP             0       ****    0 ROOT    
