@<TRIPOS>MOLECULE
3R540
247   249    1
SMALL
USER_CHARGES


@<TRIPOS>ATOM
      1 CA          1.6301  -12.1851  -49.7238 C.3       0 UNK        -0.1800 
      2 C           2.9194  -12.2579  -48.9186 C.2       0 UNK         0.5000 
      3 O           3.5387  -11.2276  -48.6538 O.2       0 UNK        -0.5000 
      4 N           3.3258  -13.4753  -48.5368 N.am      1 UNK        -0.5000 
      5 CA          4.5617  -13.7726  -47.7984 C.3       1 UNK         0.1400 
      6 C6          4.8543  -15.2916  -47.7471 C.3       23 UNK        -0.0398 
      7 S7          4.9916  -16.0591  -49.3990 S.3       23 UNK        -0.2404 
      8 C8          3.8333  -17.4593  -49.2727 C.3       23 UNK        -0.0205 
      9 C9          2.5280  -17.1974  -50.0115 C.ar      23 UNK        -0.0193 
     10 C10         2.2864  -17.8196  -51.2394 C.ar      23 UNK        -0.1150 
     11 C11         1.0810  -17.6166  -51.9169 C.ar      23 UNK        -0.0193 
     12 C12         0.1121  -16.7768  -51.3598 C.ar      23 UNK        -0.1150 
     13 C13         0.3433  -16.1409  -50.1367 C.ar      23 UNK        -0.0193 
     14 C14         1.5521  -16.3579  -49.4670 C.ar      23 UNK        -0.1150 
     15 C15        -0.7062  -15.2088  -49.5446 C.3       23 UNK        -0.0205 
     16 S16        -2.1845  -16.0956  -48.9538 S.3       23 UNK        -0.2404 
     17 C17        -1.4722  -17.2316  -47.7198 C.3       23 UNK        -0.0398 
     18 CA         -1.5939  -18.7133  -48.1570 C.3       11 UNK         0.1400 
     19 N          -0.3692  -19.4742  -47.9013 N.am      11 UNK        -0.5000 
     20 C          -0.1113  -20.6824  -48.4227 C.2       10 UNK         0.5000 
     21 O          -0.8664  -21.2682  -49.1962 O.2       10 UNK        -0.5000 
     22 CA          1.1833  -21.3751  -47.9627 C.3       10 UNK         0.1400 
     23 CB          2.3499  -21.0072  -48.8885 C.3       10 UNK        -0.1800 
     24 N           1.5371  -21.0478  -46.5813 N.am      10 UNK        -0.5000 
     25 C           0.8103  -21.3714  -45.5053 C.2       9 UNK         0.5000 
     26 O          -0.2402  -22.0109  -45.5647 O.2       9 UNK        -0.5000 
     27 CA          1.3074  -20.8521  -44.1456 C.3       9 UNK         0.1400 
     28 CB          2.5106  -21.6633  -43.6315 C.3       9 UNK        -0.1800 
     29 N           1.5759  -19.4097  -44.1278 N.am      9 UNK        -0.5000 
     30 C           2.5366  -18.7027  -44.7408 C.2       8 UNK         0.5000 
     31 O           3.3768  -19.1867  -45.4998 O.2       8 UNK        -0.5000 
     32 CA          2.5410  -17.1849  -44.4744 C.3       8 UNK         0.1400 
     33 CB          1.6704  -16.4638  -45.5119 C.3       8 UNK        -0.1800 
     34 N           2.0656  -16.8446  -43.1336 N.am      8 UNK        -0.5000 
     35 C           2.7262  -17.1190  -41.9994 C.2       7 UNK         0.5000 
     36 O           3.8597  -17.5985  -41.9617 O.2       7 UNK        -0.5000 
     37 CA          1.9719  -16.8453  -40.6871 C.3       7 UNK         0.1400 
     38 CB          2.1320  -15.3797  -40.2544 C.3       7 UNK        -0.1800 
     39 N           0.5503  -17.1766  -40.8074 N.am      7 UNK        -0.5000 
     40 C           0.0676  -18.4285  -40.8214 C.2       6 UNK         0.5000 
     41 O           0.7625  -19.4313  -40.6597 O.2       6 UNK        -0.5000 
     42 CA         -1.4408  -18.5945  -41.0841 C.3       6 UNK         0.1400 
     43 CB         -2.2204  -18.6126  -39.7610 C.3       6 UNK        -0.1800 
     44 N          -1.9854  -17.5460  -41.9469 N.am      6 UNK        -0.5000 
     45 C          -1.7473  -17.4413  -43.2610 C.2       5 UNK         0.5000 
     46 O          -1.0659  -18.2402  -43.9039 O.2       5 UNK        -0.5000 
     47 CA         -2.3481  -16.2168  -43.9710 C.3       5 UNK         0.1400 
     48 CB         -3.7613  -16.5318  -44.4846 C.3       5 UNK        -0.1800 
     49 N          -2.3852  -15.0145  -43.1365 N.am      5 UNK        -0.5000 
     50 C          -1.2970  -14.3865  -42.6746 C.2       4 UNK         0.5000 
     51 O          -0.1449  -14.7960  -42.8439 O.2       4 UNK        -0.5000 
     52 CA         -1.5383  -13.1158  -41.8530 C.3       4 UNK         0.1400 
     53 CB         -1.4428  -13.4225  -40.3503 C.3       4 UNK        -0.1800 
     54 N          -0.5205  -12.1341  -42.2099 N.am      4 UNK        -0.5000 
     55 C          -0.7612  -10.9129  -42.7022 C.2       3 UNK         0.5000 
     56 O          -1.8907  -10.4400  -42.8369 O.2       3 UNK        -0.5000 
     57 CA          0.4596  -10.0648  -43.1144 C.3       3 UNK         0.1400 
     58 CB          0.7579   -9.0021  -42.0448 C.3       3 UNK        -0.1800 
     59 N           1.6761  -10.8470  -43.3529 N.am      3 UNK        -0.5000 
     60 C           1.8756  -11.6486  -44.4062 C.2       2 UNK         0.5000 
     61 O           1.0455  -11.8334  -45.3010 O.2       2 UNK        -0.5000 
     62 CA          3.2279  -12.3729  -44.4503 C.3       2 UNK         0.1400 
     63 CB          3.3002  -13.4778  -43.3811 C.3       2 UNK        -0.1800 
     64 N           3.4103  -12.9505  -45.7769 N.am      2 UNK        -0.5000 
     65 C           4.5868  -13.1955  -46.3642 C.2       1 UNK         0.5000 
     66 O           5.6725  -12.9952  -45.8174 O.2       1 UNK        -0.5000 
     67 C          -2.8217  -19.3931  -47.5160 C.2       11 UNK         0.5000 
     68 O          -3.8627  -19.5041  -48.1628 O.2       11 UNK        -0.5000 
     69 N          -2.6656  -19.8776  -46.2732 N.am      12 UNK        -0.5000 
     70 CA         -3.6833  -20.6577  -45.5669 C.3       12 UNK         0.1400 
     71 CB         -3.2865  -20.8455  -44.0949 C.3       12 UNK        -0.1800 
     72 C          -3.9516  -22.0117  -46.2445 C.2       12 UNK         0.5000 
     73 O          -5.1121  -22.3954  -46.3818 O.2       12 UNK        -0.5000 
     74 N          -2.8861  -22.6841  -46.7040 N.am      13 UNK        -0.5000 
     75 CA         -2.9708  -23.9207  -47.4823 C.3       13 UNK         0.1400 
     76 CB         -1.5690  -24.5116  -47.6859 C.3       13 UNK        -0.1800 
     77 C          -3.6858  -23.7239  -48.8314 C.2       13 UNK         0.5000 
     78 O          -4.5002  -24.5664  -49.2072 O.2       13 UNK        -0.5000 
     79 N          -3.4016  -22.6088  -49.5187 N.am      14 UNK        -0.5000 
     80 CA         -4.0762  -22.2022  -50.7514 C.3       14 UNK         0.1400 
     81 CB         -3.3467  -21.0093  -51.3858 C.3       14 UNK        -0.1800 
     82 C          -5.5669  -21.8896  -50.5337 C.2       14 UNK         0.5000 
     83 O          -6.3996  -22.3475  -51.3155 O.2       14 UNK        -0.5000 
     84 N          -5.8834  -21.1575  -49.4557 N.am      15 UNK        -0.5000 
     85 CA         -7.2508  -20.8272  -49.0438 C.3       15 UNK         0.1400 
     86 CB         -7.2088  -19.8158  -47.8884 C.3       15 UNK        -0.1800 
     87 C          -8.0809  -22.0667  -48.6557 C.2       15 UNK         0.5000 
     88 O          -9.2653  -22.1344  -48.9860 O.2       15 UNK        -0.5000 
     89 N          -7.4365  -23.0375  -47.9949 N.am      16 UNK        -0.5000 
     90 CA         -8.0090  -24.3366  -47.6351 C.3       16 UNK         0.1400 
     91 CB         -7.1474  -24.9605  -46.5251 C.3       16 UNK        -0.1800 
     92 C          -8.1275  -25.3131  -48.8242 C.2       16 UNK         0.5000 
     93 O          -8.7766  -26.3498  -48.6810 O.2       16 UNK        -0.5000 
     94 N          -7.4800  -24.9870  -49.9535 N.am      17 UNK        -0.5000 
     95 CA         -7.3255  -25.7959  -51.1681 C.3       17 UNK         0.1400 
     96 CB         -8.6871  -26.0591  -51.8442 C.3       17 UNK        -0.1800 
     97 C          -6.5003  -27.0828  -50.9430 C.2       17 UNK         0.5000 
     98 O          -6.6510  -28.0537  -51.6869 O.2       17 UNK        -0.5000 
     99 N          -5.6221  -27.0578  -49.9320 N.am      18 UNK        -0.5000 
    100 CA        -4.6189  -28.0858  -49.6577 C.3       18 UNK         0.1400 
    101 CB        -4.2249  -28.0123  -48.1743 C.3       18 UNK        -0.1800 
    102 C         -3.3815  -27.9093  -50.5578 C.2       18 UNK         0.5000 
    103 O         -2.7146  -28.8932  -50.8799 O.2       18 UNK        -0.5000 
    104 N         -3.1207  -26.6612  -50.9607 N.am      19 UNK        -0.5000 
    105 CA        -2.1423  -26.2618  -51.9644 C.3       19 UNK         0.1400 
    106 CB        -1.0861  -25.3651  -51.2957 C.3       19 UNK        -0.1800 
    107 C         -2.8702  -25.4990  -53.0831 C.2       19 UNK         0.5000 
    108 O         -4.0289  -25.1080  -52.9156 O.2       19 UNK        -0.5000 
    109 N         -2.1726  -25.2828  -54.2024 N.am      20 UNK        -0.5000 
    110 CA        -2.6259  -24.4145  -55.2873 C.3       20 UNK         0.1400 
    111 CB        -1.8972  -24.8087  -56.5814 C.3       20 UNK        -0.1800 
    112 C         -2.3500  -22.9400  -54.9426 C.2       20 UNK         0.5000 
    113 O         -1.3321  -22.6393  -54.3135 O.2       20 UNK        -0.5000 
    114 N         -3.2400  -22.0457  -55.3864 N.am      21 UNK        -0.5000 
    115 CA        -3.0578  -20.5982  -55.2911 C.3       21 UNK         0.1400 
    116 CB        -4.4210  -19.9071  -55.4452 C.3       21 UNK        -0.1800 
    117 C         -2.0662  -20.1027  -56.3588 C.2       21 UNK         0.5000 
    118 O         -2.0663  -20.6179  -57.4798 O.2       21 UNK        -0.5000 
    119 N         -1.2544  -19.1065  -55.9924 N.am      22 UNK        -0.5000 
    120 CA        -0.2201  -18.5034  -56.8496 C.3       22 UNK         0.1400 
    121 C         -0.6868  -17.2437  -57.6385 C.2       22 UNK         0.5000 
    122 N         -1.9247  -16.7862  -57.4926 N.am      22 UNK        -0.7600 
    123 O          0.0806  -16.6831  -58.4164 O.2       22 UNK        -0.5000 
    124 C124        1.0975  -18.2701  -56.0644 C.3       23 UNK        -0.0398 
    125 S125        0.9518  -17.1384  -54.6348 S.3       23 UNK        -0.2404 
    126 C126        0.8281  -18.3100  -53.2462 C.3       23 UNK        -0.0205 
    127 H127        1.3819  -13.1478  -50.1706 H         1 UNK         0.0600 
    128 H128        0.8039  -11.8773  -49.0829 H         1 UNK         0.0600 
    129 H129        1.7281  -11.4581  -50.5300 H         1 UNK         0.0600 
    130 H130        2.8025  -14.2816  -48.8422 H         1 UNK         0.3000 
    131 H131        5.3801  -13.2939  -48.3405 H         1 UNK         0.0600 
    132 H132        4.0900  -15.7993  -47.1591 H         1 UNK         0.0800 
    133 H133        5.7984  -15.4777  -47.2312 H         1 UNK         0.0800 
    134 H134        4.3273  -18.3371  -49.6922 H         1 UNK         0.0800 
    135 H135        3.6295  -17.7130  -48.2319 H         1 UNK         0.0800 
    136 H136        3.0374  -18.4689  -51.6670 H         1 UNK         0.1150 
    137 H137       -0.8207  -16.6135  -51.8811 H         1 UNK         0.1150 
    138 H138        1.7321  -15.8711  -48.5220 H         1 UNK         0.1150 
    139 H139       -0.2897  -14.6275  -48.7204 H         1 UNK         0.0800 
    140 H140       -1.0096  -14.4857  -50.3029 H         1 UNK         0.0800 
    141 H141       -1.9640  -17.0486  -46.7669 H         1 UNK         0.0800 
    142 H142       -0.4311  -16.9591  -47.5565 H         1 UNK         0.0800 
    143 H143       -1.7427  -18.7453  -49.2391 H         1 UNK         0.0600 
    144 H144        0.3005  -19.0765  -47.2617 H         1 UNK         0.3000 
    145 H145        1.0248  -22.4534  -48.0235 H         1 UNK         0.0600 
    146 H146        3.2543  -21.5541  -48.6219 H         1 UNK         0.0600 
    147 H147        2.1173  -21.2461  -49.9273 H         1 UNK         0.0600 
    148 H148        2.5737  -19.9431  -48.8384 H         1 UNK         0.0600 
    149 H149        2.3758  -20.4935  -46.4290 H         1 UNK         0.3000 
    150 H150        0.4899  -21.0015  -43.4382 H         1 UNK         0.0600 
    151 H151        2.2602  -22.7221  -43.5558 H         1 UNK         0.0600 
    152 H152        2.8118  -21.3282  -42.6387 H         1 UNK         0.0600 
    153 H153        3.3753  -21.5801  -44.2902 H         1 UNK         0.0600 
    154 H154        0.8744  -18.8715  -43.6324 H         1 UNK         0.3000 
    155 H155        3.5688  -16.8310  -44.5793 H         1 UNK         0.0600 
    156 H156        1.7910  -15.3827  -45.4533 H         1 UNK         0.0600 
    157 H157        0.6136  -16.6882  -45.3738 H         1 UNK         0.0600 
    158 H158        1.9422  -16.7734  -46.5189 H         1 UNK         0.0600 
    159 H159        1.1671  -16.3789  -43.0689 H         1 UNK         0.3000 
    160 H160        2.4114  -17.4750  -39.9104 H         1 UNK         0.0600 
    161 H161        1.7193  -14.6896  -40.9893 H         1 UNK         0.0600 
    162 H162        3.1850  -15.1260  -40.1264 H         1 UNK         0.0600 
    163 H163        1.6353  -15.1936  -39.3022 H         1 UNK         0.0600 
    164 H164       -0.0801  -16.4097  -40.9883 H         1 UNK         0.3000 
    165 H165       -1.5862  -19.5571  -41.5794 H         1 UNK         0.0600 
    166 H166       -2.1283  -17.6670  -39.2253 H         1 UNK         0.0600 
    167 H167       -3.2806  -18.8013  -39.9311 H         1 UNK         0.0600 
    168 H168       -1.8530  -19.4007  -39.1023 H         1 UNK         0.0600 
    169 H169       -2.5647  -16.8471  -41.5058 H         1 UNK         0.3000 
    170 H170       -1.7085  -15.9905  -44.8245 H         1 UNK         0.0600 
    171 H171       -3.7674  -17.4315  -45.1006 H         1 UNK         0.0600 
    172 H172       -4.4608  -16.6957  -43.6640 H         1 UNK         0.0600 
    173 H173       -4.1476  -15.7180  -45.0985 H         1 UNK         0.0600 
    174 H174       -3.2975  -14.6250  -42.9462 H         1 UNK         0.3000 
    175 H175       -2.5395  -12.7394  -42.0725 H         1 UNK         0.0600 
    176 H176       -1.6269  -12.5270  -39.7565 H         1 UNK         0.0600 
    177 H177       -2.1828  -14.1667  -40.0532 H         1 UNK         0.0600 
    178 H178       -0.4601  -13.8065  -40.0756 H         1 UNK         0.0600 
    179 H179        0.4303  -12.4744  -42.2042 H         1 UNK         0.3000 
    180 H180        0.1987   -9.5499  -44.0415 H         1 UNK         0.0600 
    181 H181        1.0396   -9.4563  -41.0940 H         1 UNK         0.0600 
    182 H182       -0.1153   -8.3743  -41.8624 H         1 UNK         0.0600 
    183 H183        1.5688   -8.3437  -42.3572 H         1 UNK         0.0600 
    184 H184        2.4081  -10.7528  -42.6634 H         1 UNK         0.3000 
    185 H185        4.0123  -11.6349  -44.2686 H         1 UNK         0.0600 
    186 H186        4.2179  -14.0601  -43.4641 H         1 UNK         0.0600 
    187 H187        3.2757  -13.0563  -42.3760 H         1 UNK         0.0600 
    188 H188        2.4592  -14.1639  -43.4670 H         1 UNK         0.0600 
    189 H189        2.5537  -13.0569  -46.3056 H         1 UNK         0.3000 
    190 H190       -1.7814  -19.7568  -45.7992 H         1 UNK         0.3000 
    191 H191       -4.6166  -20.0912  -45.5901 H         1 UNK         0.0600 
    192 H192       -3.2940  -19.8953  -43.5639 H         1 UNK         0.0600 
    193 H193       -3.9896  -21.5020  -43.5807 H         1 UNK         0.0600 
    194 H194       -2.2935  -21.2827  -43.9914 H         1 UNK         0.0600 
    195 H195       -1.9570  -22.3296  -46.4979 H         1 UNK         0.3000 
    196 H196       -3.5557  -24.6354  -46.8998 H         1 UNK         0.0600 
    197 H197       -1.6257  -25.4790  -48.1862 H         1 UNK         0.0600 
    198 H198       -1.0628  -24.6668  -46.7330 H         1 UNK         0.0600 
    199 H199       -0.9421  -23.8630  -48.2971 H         1 UNK         0.0600 
    200 H200       -2.6592  -22.0004  -49.1862 H         1 UNK         0.3000 
    201 H201       -4.0169  -23.0343  -51.4515 H         1 UNK         0.0600 
    202 H202       -2.3310  -21.2796  -51.6761 H         1 UNK         0.0600 
    203 H203       -3.2867  -20.1605  -50.7053 H         1 UNK         0.0600 
    204 H204       -3.8655  -20.6727  -52.2834 H         1 UNK         0.0600 
    205 H205       -5.1326  -20.7726  -48.8888 H         1 UNK         0.3000 
    206 H206       -7.7459  -20.3512  -49.8926 H         1 UNK         0.0600 
    207 H207       -6.6822  -18.9066  -48.1792 H         1 UNK         0.0600 
    208 H208       -8.2158  -19.5264  -47.5855 H         1 UNK         0.0600 
    209 H209       -6.7073  -20.2264  -47.0120 H         1 UNK         0.0600 
    210 H210       -6.4827  -22.8656  -47.6888 H         1 UNK         0.3000 
    211 H211       -9.0142  -24.1765  -47.2401 H         1 UNK         0.0600 
    212 H212       -6.1265  -25.1405  -46.8640 H         1 UNK         0.0600 
    213 H213       -7.5580  -25.9162  -46.1972 H         1 UNK         0.0600 
    214 H214       -7.1001  -24.3113  -45.6506 H         1 UNK         0.0600 
    215 H215       -6.9722  -24.1115  -49.9609 H         1 UNK         0.3000 
    216 H216       -6.7354  -25.1854  -51.8533 H         1 UNK         0.0600 
    217 H217       -9.2423  -25.1316  -51.9848 H         1 UNK         0.0600 
    218 H218       -9.3079  -26.7383  -51.2596 H         1 UNK         0.0600 
    219 H219       -8.5529  -26.5077  -52.8290 H         1 UNK         0.0600 
    220 H220       -5.5143  -26.1830  -49.4271 H         1 UNK         0.3000 
    221 H221       -5.0476  -29.0707  -49.8542 H         1 UNK         0.0600 
    222 H222       -3.7825  -27.0483  -47.9214 H         1 UNK         0.0600 
    223 H223       -5.0908  -28.1622  -47.5293 H         1 UNK         0.0600 
    224 H224       -3.4954  -28.7841  -47.9260 H         1 UNK         0.0600 
    225 H225       -3.7628  -25.9294  -50.6782 H         1 UNK         0.3000 
    226 H226       -1.6554  -27.1357  -52.4020 H         1 UNK         0.0600 
    227 H227       -0.5937  -25.8833  -50.4729 H         1 UNK         0.0600 
    228 H228       -0.3101  -25.0742  -52.0045 H         1 UNK         0.0600 
    229 H229       -1.5253  -24.4483  -50.9012 H         1 UNK         0.0600 
    230 H230       -1.2131  -25.5931  -54.2521 H         1 UNK         0.3000 
    231 H231       -3.6988  -24.5531  -55.4388 H         1 UNK         0.0600 
    232 H232       -2.2236  -24.1883  -57.4172 H         1 UNK         0.0600 
    233 H233       -2.1001  -25.8461  -56.8480 H         1 UNK         0.0600 
    234 H234       -0.8169  -24.6903  -56.4883 H         1 UNK         0.0600 
    235 H235       -4.0256  -22.3624  -55.9358 H         1 UNK         0.3000 
    236 H236       -2.6580  -20.3569  -54.3042 H         1 UNK         0.0600 
    237 H237       -4.3249  -18.8255  -55.3443 H         1 UNK         0.0600 
    238 H238       -4.8671  -20.1080  -56.4202 H         1 UNK         0.0600 
    239 H239       -5.1215  -20.2426  -54.6800 H         1 UNK         0.0600 
    240 H240       -1.3379  -18.7082  -55.0691 H         1 UNK         0.3000 
    241 H241        0.0302  -19.2244  -57.6302 H         1 UNK         0.0600 
    242 H242       -2.2182  -15.9752  -58.0146 H         1 UNK         0.3800 
    243 H243       -2.5710  -17.2412  -56.8690 H         1 UNK         0.3800 
    244 H244        1.4885  -19.2299  -55.7252 H         1 UNK         0.0800 
    245 H245        1.8662  -17.8727  -56.7294 H         1 UNK         0.0800 
    246 H246       -0.1606  -18.7700  -53.2354 H         1 UNK         0.0800 
    247 H247        1.5438  -19.1218  -53.3849 H         1 UNK         0.0800 
@<TRIPOS>BOND
     1    1    2 1    
     2    1  127 1    
     3    1  128 1    
     4    1  129 1    
     5    2    3 2    
     6    2    4 am   BACKBONE|DICT|INTERRES
     7    4    5 1    
     8    4  130 1    
     9    5    6 1    
    10    5   65 1    
    11    5  131 1    
    12    6    7 1    
    13    6  132 1    
    14    6  133 1    
    15    7    8 1    
    16    8    9 1    
    17    8  134 1    
    18    8  135 1    
    19    9   10 ar   
    20    9   14 ar   
    21   10   11 ar   
    22   10  136 1    
    23   11   12 ar   
    24   11  126 1    
    25   12   13 ar   
    26   12  137 1    
    27   13   14 ar   
    28   13   15 1    
    29   14  138 1    
    30   15   16 1    
    31   15  139 1    
    32   15  140 1    
    33   16   17 1    
    34   17   18 1    
    35   17  141 1    
    36   17  142 1    
    37   18   19 1    
    38   18   67 1    
    39   18  143 1    
    40   19   20 am   BACKBONE|DICT|INTERRES
    41   19  144 1    
    42   20   21 2    
    43   20   22 1    
    44   22   23 1    
    45   22   24 1    
    46   22  145 1    
    47   23  146 1    
    48   23  147 1    
    49   23  148 1    
    50   24   25 am   BACKBONE|DICT|INTERRES
    51   24  149 1    
    52   25   26 2    
    53   25   27 1    
    54   27   28 1    
    55   27   29 1    
    56   27  150 1    
    57   28  151 1    
    58   28  152 1    
    59   28  153 1    
    60   29   30 am   BACKBONE|DICT|INTERRES
    61   29  154 1    
    62   30   31 2    
    63   30   32 1    
    64   32   33 1    
    65   32   34 1    
    66   32  155 1    
    67   33  156 1    
    68   33  157 1    
    69   33  158 1    
    70   34   35 am   BACKBONE|DICT|INTERRES
    71   34  159 1    
    72   35   36 2    
    73   35   37 1    
    74   37   38 1    
    75   37   39 1    
    76   37  160 1    
    77   38  161 1    
    78   38  162 1    
    79   38  163 1    
    80   39   40 am   BACKBONE|DICT|INTERRES
    81   39  164 1    
    82   40   41 2    
    83   40   42 1    
    84   42   43 1    
    85   42   44 1    
    86   42  165 1    
    87   43  166 1    
    88   43  167 1    
    89   43  168 1    
    90   44   45 am   BACKBONE|DICT|INTERRES
    91   44  169 1    
    92   45   46 2    
    93   45   47 1    
    94   47   48 1    
    95   47   49 1    
    96   47  170 1    
    97   48  171 1    
    98   48  172 1    
    99   48  173 1    
   100   49   50 am   BACKBONE|DICT|INTERRES
   101   49  174 1    
   102   50   51 2    
   103   50   52 1    
   104   52   53 1    
   105   52   54 1    
   106   52  175 1    
   107   53  176 1    
   108   53  177 1    
   109   53  178 1    
   110   54   55 am   BACKBONE|DICT|INTERRES
   111   54  179 1    
   112   55   56 2    
   113   55   57 1    
   114   57   58 1    
   115   57   59 1    
   116   57  180 1    
   117   58  181 1    
   118   58  182 1    
   119   58  183 1    
   120   59   60 am   BACKBONE|DICT|INTERRES
   121   59  184 1    
   122   60   61 2    
   123   60   62 1    
   124   62   63 1    
   125   62   64 1    
   126   62  185 1    
   127   63  186 1    
   128   63  187 1    
   129   63  188 1    
   130   64   65 am   BACKBONE|DICT|INTERRES
   131   64  189 1    
   132   65   66 2    
   133   67   68 2    
   134   67   69 am   BACKBONE|DICT|INTERRES
   135   69   70 1    
   136   69  190 1    
   137   70   71 1    
   138   70   72 1    
   139   70  191 1    
   140   71  192 1    
   141   71  193 1    
   142   71  194 1    
   143   72   73 2    
   144   72   74 am   BACKBONE|DICT|INTERRES
   145   74   75 1    
   146   74  195 1    
   147   75   76 1    
   148   75   77 1    
   149   75  196 1    
   150   76  197 1    
   151   76  198 1    
   152   76  199 1    
   153   77   78 2    
   154   77   79 am   BACKBONE|DICT|INTERRES
   155   79   80 1    
   156   79  200 1    
   157   80   81 1    
   158   80   82 1    
   159   80  201 1    
   160   81  202 1    
   161   81  203 1    
   162   81  204 1    
   163   82   83 2    
   164   82   84 am   BACKBONE|DICT|INTERRES
   165   84   85 1    
   166   84  205 1    
   167   85   86 1    
   168   85   87 1    
   169   85  206 1    
   170   86  207 1    
   171   86  208 1    
   172   86  209 1    
   173   87   88 2    
   174   87   89 am   BACKBONE|DICT|INTERRES
   175   89   90 1    
   176   89  210 1    
   177   90   91 1    
   178   90   92 1    
   179   90  211 1    
   180   91  212 1    
   181   91  213 1    
   182   91  214 1    
   183   92   93 2    
   184   92   94 am   BACKBONE|DICT|INTERRES
   185   94   95 1    
   186   94  215 1    
   187   95   96 1    
   188   95   97 1    
   189   95  216 1    
   190   96  217 1    
   191   96  218 1    
   192   96  219 1    
   193   97   98 2    
   194   97   99 am   BACKBONE|DICT|INTERRES
   195   99  100 1    
   196   99  220 1    
   197  100  101 1    
   198  100  102 1    
   199  100  221 1    
   200  101  222 1    
   201  101  223 1    
   202  101  224 1    
   203  102  103 2    
   204  102  104 am   BACKBONE|DICT|INTERRES
   205  104  105 1    
   206  104  225 1    
   207  105  106 1    
   208  105  107 1    
   209  105  226 1    
   210  106  227 1    
   211  106  228 1    
   212  106  229 1    
   213  107  108 2    
   214  107  109 am   BACKBONE|DICT|INTERRES
   215  109  110 1    
   216  109  230 1    
   217  110  111 1    
   218  110  112 1    
   219  110  231 1    
   220  111  232 1    
   221  111  233 1    
   222  111  234 1    
   223  112  113 2    
   224  112  114 am   BACKBONE|DICT|INTERRES
   225  114  115 1    
   226  114  235 1    
   227  115  116 1    
   228  115  117 1    
   229  115  236 1    
   230  116  237 1    
   231  116  238 1    
   232  116  239 1    
   233  117  118 2    
   234  117  119 am   BACKBONE|DICT|INTERRES
   235  119  120 1    
   236  119  240 1    
   237  120  121 1    
   238  120  124 1    
   239  120  241 1    
   240  121  122 am   BACKBONE|DICT|INTERRES
   241  121  123 2    
   242  122  242 1    
   243  122  243 1    
   244  124  125 1    
   245  124  244 1    
   246  124  245 1    
   247  125  126 1    
   248  126  246 1    
   249  126  247 1    
@<TRIPOS>SUBSTRUCTURE
     1 UNK         1 GROUP             0       ****    0 ROOT    
