@<TRIPOS>MOLECULE
3R540
247   249    1
SMALL
USER_CHARGES


@<TRIPOS>ATOM
      1 CA         -0.2337  -13.2733  -52.6883 C.3       0 UNK        -0.1800 
      2 C           0.8712  -13.2334  -51.6432 C.2       0 UNK         0.5000 
      3 O           0.6451  -13.6510  -50.5099 O.2       0 UNK        -0.5000 
      4 N           2.0557  -12.7406  -52.0312 N.am      1 UNK        -0.5000 
      5 CA          3.2816  -12.5965  -51.2337 C.3       1 UNK         0.1400 
      6 C6          4.1828  -13.8731  -51.2274 C.3       23 UNK        -0.0398 
      7 S7          3.5849  -15.3313  -50.2969 S.3       23 UNK        -0.2404 
      8 C8          2.8921  -16.3775  -51.6083 C.3       23 UNK        -0.0205 
      9 C9          1.9203  -17.3785  -51.0085 C.ar      23 UNK        -0.0193 
     10 C10         0.5723  -17.0419  -50.8725 C.ar      23 UNK        -0.1150 
     11 C11        -0.3309  -17.9280  -50.2830 C.ar      23 UNK        -0.0193 
     12 C12         0.1220  -19.1764  -49.8449 C.ar      23 UNK        -0.1150 
     13 C13         1.4715  -19.5235  -49.9716 C.ar      23 UNK        -0.0193 
     14 C14         2.3660  -18.6230  -50.5576 C.ar      23 UNK        -0.1150 
     15 C15         1.9657  -20.8656  -49.4648 C.3       23 UNK        -0.0205 
     16 S16         2.4140  -20.7778  -47.7018 S.3       23 UNK        -0.2404 
     17 C17         2.7535  -22.5395  -47.3621 C.3       23 UNK        -0.0398 
     18 CA          1.6067  -23.3116  -46.6636 C.3       11 UNK         0.1400 
     19 N           1.3681  -22.8824  -45.2795 N.am      11 UNK        -0.5000 
     20 C           0.6518  -23.6057  -44.4045 C.2       10 UNK         0.5000 
     21 O           0.1878  -24.7136  -44.6814 O.2       10 UNK        -0.5000 
     22 CA          0.3189  -22.9808  -43.0369 C.3       10 UNK         0.1400 
     23 CB          0.4247  -23.9995  -41.8835 C.3       10 UNK        -0.1800 
     24 N           1.0432  -21.7450  -42.7296 N.am      10 UNK        -0.5000 
     25 C           2.3448  -21.5951  -42.4405 C.2       9 UNK         0.5000 
     26 O           3.1648  -22.5126  -42.4839 O.2       9 UNK        -0.5000 
     27 CA          2.8182  -20.1849  -42.0247 C.3       9 UNK         0.1400 
     28 CB          3.7888  -19.6046  -43.0661 C.3       9 UNK        -0.1800 
     29 N           1.7190  -19.2391  -41.8044 N.am      9 UNK        -0.5000 
     30 C           0.8894  -19.2564  -40.7505 C.2       8 UNK         0.5000 
     31 O           1.0160  -20.0270  -39.7986 O.2       8 UNK        -0.5000 
     32 CA         -0.3038  -18.2795  -40.7757 C.3       8 UNK         0.1400 
     33 CB          0.0590  -16.9769  -40.0490 C.3       8 UNK        -0.1800 
     34 N          -0.7888  -17.9723  -42.1260 N.am      8 UNK        -0.5000 
     35 C          -1.3395  -18.8649  -42.9632 C.2       7 UNK         0.5000 
     36 O          -1.5109  -20.0504  -42.6788 O.2       7 UNK        -0.5000 
     37 CA         -1.6938  -18.3707  -44.3791 C.3       7 UNK         0.1400 
     38 CB         -3.0139  -17.5875  -44.3898 C.3       7 UNK        -0.1800 
     39 N          -0.6265  -17.5633  -44.9673 N.am      7 UNK        -0.5000 
     40 C           0.6036  -18.0245  -45.2360 C.2       6 UNK         0.5000 
     41 O           0.9348  -19.2015  -45.0887 O.2       6 UNK        -0.5000 
     42 CA          1.6533  -16.9788  -45.6543 C.3       6 UNK         0.1400 
     43 CB          1.5834  -16.6840  -47.1607 C.3       6 UNK        -0.1800 
     44 N           1.4949  -15.7401  -44.8851 N.am      6 UNK        -0.5000 
     45 C           1.8514  -15.6133  -43.5971 C.2       5 UNK         0.5000 
     46 O           2.4360  -16.4950  -42.9699 O.2       5 UNK        -0.5000 
     47 CA          1.4528  -14.3193  -42.8601 C.3       5 UNK         0.1400 
     48 CB          2.6062  -13.3102  -42.8126 C.3       5 UNK        -0.1800 
     49 N           0.2651  -13.6845  -43.4282 N.am      5 UNK        -0.5000 
     50 C          -0.9799  -14.1374  -43.2259 C.2       4 UNK         0.5000 
     51 O          -1.2405  -15.1051  -42.5120 O.2       4 UNK        -0.5000 
     52 CA         -2.1196  -13.4294  -43.9834 C.3       4 UNK         0.1400 
     53 CB         -2.6867  -12.2739  -43.1464 C.3       4 UNK        -0.1800 
     54 N          -1.7226  -12.9234  -45.2990 N.am      4 UNK        -0.5000 
     55 C          -1.2430  -13.6775  -46.2969 C.2       3 UNK         0.5000 
     56 O          -1.0978  -14.8960  -46.2072 O.2       3 UNK        -0.5000 
     57 CA         -0.8299  -12.9602  -47.5963 C.3       3 UNK         0.1400 
     58 CB         -1.4658  -11.5638  -47.7670 C.3       3 UNK        -0.1800 
     59 N           0.6242  -12.8707  -47.7602 N.am      3 UNK        -0.5000 
     60 C           1.5246  -12.3490  -46.9114 C.2       2 UNK         0.5000 
     61 O           1.2387  -11.9425  -45.7838 O.2       2 UNK        -0.5000 
     62 CA          2.9929  -12.2540  -47.3858 C.3       2 UNK         0.1400 
     63 CB          3.9268  -13.0954  -46.5011 C.3       2 UNK        -0.1800 
     64 N           3.1851  -12.6800  -48.7698 N.am      2 UNK        -0.5000 
     65 C           3.0332  -11.9216  -49.8600 C.2       1 UNK         0.5000 
     66 O           2.7076  -10.7333  -49.8222 O.2       1 UNK        -0.5000 
     67 C           0.2973  -23.3161  -47.4831 C.2       11 UNK         0.5000 
     68 O           0.1248  -24.1679  -48.3528 O.2       11 UNK        -0.5000 
     69 N          -0.6226  -22.4000  -47.1450 N.am      12 UNK        -0.5000 
     70 CA         -1.9767  -22.3200  -47.6871 C.3       12 UNK         0.1400 
     71 CB         -2.6561  -21.0597  -47.1342 C.3       12 UNK        -0.1800 
     72 C          -2.8171  -23.5665  -47.3578 C.2       12 UNK         0.5000 
     73 O          -3.5531  -24.0466  -48.2173 O.2       12 UNK        -0.5000 
     74 N          -2.6640  -24.0880  -46.1321 N.am      13 UNK        -0.5000 
     75 CA         -3.3177  -25.3119  -45.6697 C.3       13 UNK         0.1400 
     76 CB         -3.2222  -25.4039  -44.1389 C.3       13 UNK        -0.1800 
     77 C          -2.7306  -26.5672  -46.3381 C.2       13 UNK         0.5000 
     78 O          -3.4870  -27.4742  -46.6846 O.2       13 UNK        -0.5000 
     79 N          -1.4048  -26.5802  -46.5412 N.am      14 UNK        -0.5000 
     80 CA         -0.6856  -27.6355  -47.2581 C.3       14 UNK         0.1400 
     81 CB          0.8269  -27.4518  -47.0616 C.3       14 UNK        -0.1800 
     82 C          -1.0466  -27.6842  -48.7560 C.2       14 UNK         0.5000 
     83 O          -1.2467  -28.7716  -49.2982 O.2       14 UNK        -0.5000 
     84 N          -1.1520  -26.5063  -49.3875 N.am      15 UNK        -0.5000 
     85 CA         -1.5933  -26.3329  -50.7739 C.3       15 UNK         0.1400 
     86 CB         -1.2471  -24.9070  -51.2312 C.3       15 UNK        -0.1800 
     87 C          -3.0988  -26.5984  -50.9707 C.2       15 UNK         0.5000 
     88 O          -3.5167  -26.9113  -52.0863 O.2       15 UNK        -0.5000 
     89 N          -3.8814  -26.4361  -49.8956 N.am      16 UNK        -0.5000 
     90 CA         -5.3340  -26.5777  -49.7559 C.3       16 UNK         0.1400 
     91 CB         -5.8084  -27.9965  -50.1232 C.3       16 UNK        -0.1800 
     92 C          -6.1356  -25.4953  -50.5016 C.2       16 UNK         0.5000 
     93 O          -6.9732  -24.8324  -49.8889 O.2       16 UNK        -0.5000 
     94 N          -5.8655  -25.3279  -51.8014 N.am      17 UNK        -0.5000 
     95 CA         -6.4674  -24.3007  -52.6509 C.3       17 UNK         0.1400 
     96 CB         -6.3545  -24.7340  -54.1204 C.3       17 UNK        -0.1800 
     97 C          -5.8160  -22.9212  -52.4496 C.2       17 UNK         0.5000 
     98 O          -6.4934  -21.9047  -52.6068 O.2       17 UNK        -0.5000 
     99 N          -4.5077  -22.9124  -52.1398 N.am      18 UNK        -0.5000 
    100 CA        -3.6601  -21.7385  -51.8724 C.3       18 UNK         0.1400 
    101 CB        -4.0709  -21.1000  -50.5322 C.3       18 UNK        -0.1800 
    102 C         -3.6422  -20.7032  -53.0205 C.2       18 UNK         0.5000 
    103 O         -3.4873  -19.5069  -52.7692 O.2       18 UNK        -0.5000 
    104 N         -3.8824  -21.1752  -54.2555 N.am      19 UNK        -0.5000 
    105 CA        -4.1017  -20.3987  -55.4855 C.3       19 UNK         0.1400 
    106 CB        -2.7901  -19.7121  -55.9204 C.3       19 UNK        -0.1800 
    107 C         -5.2796  -19.3961  -55.3990 C.2       19 UNK         0.5000 
    108 O         -5.3448  -18.4678  -56.2061 O.2       19 UNK        -0.5000 
    109 N         -6.1624  -19.5760  -54.4011 N.am      20 UNK        -0.5000 
    110 CA        -7.2092  -18.6551  -53.9436 C.3       20 UNK         0.1400 
    111 CB        -8.3216  -18.5240  -55.0042 C.3       20 UNK        -0.1800 
    112 C         -6.6717  -17.2815  -53.4714 C.2       20 UNK         0.5000 
    113 O         -7.4389  -16.3190  -53.4102 O.2       20 UNK        -0.5000 
    114 N         -5.3704  -17.1998  -53.1562 N.am      21 UNK        -0.5000 
    115 CA        -4.6732  -15.9533  -52.8419 C.3       21 UNK         0.1400 
    116 CB        -3.2255  -16.0568  -53.3474 C.3       21 UNK        -0.1800 
    117 C         -4.7030  -15.6032  -51.3445 C.2       21 UNK         0.5000 
    118 O         -4.5465  -14.4305  -51.0022 O.2       21 UNK        -0.5000 
    119 N         -4.8942  -16.6046  -50.4792 N.am      22 UNK        -0.5000 
    120 CA        -4.9405  -16.4647  -49.0185 C.3       22 UNK         0.1400 
    121 C         -5.6778  -17.6586  -48.3511 C.2       22 UNK         0.5000 
    122 N         -5.8993  -17.6118  -47.0441 N.am      22 UNK        -0.7600 
    123 O         -6.0714  -18.6212  -49.0063 O.2       22 UNK        -0.5000 
    124 C124       -3.5494  -16.1409  -48.3947 C.3       23 UNK        -0.0398 
    125 S125       -2.3302  -17.5025  -48.3972 S.3       23 UNK        -0.2404 
    126 C126       -1.7887  -17.5220  -50.1333 C.3       23 UNK        -0.0205 
    127 H127       -0.3809  -14.2969  -53.0318 H         1 UNK         0.0600 
    128 H128       -1.1709  -12.9165  -52.2608 H         1 UNK         0.0600 
    129 H129        0.0035  -12.6526  -53.5526 H         1 UNK         0.0600 
    130 H130        2.1351  -12.3968  -52.9777 H         1 UNK         0.3000 
    131 H131        3.8576  -11.8508  -51.7843 H         1 UNK         0.0600 
    132 H132        5.1612  -13.6144  -50.8193 H         1 UNK         0.0800 
    133 H133        4.3818  -14.1771  -52.2558 H         1 UNK         0.0800 
    134 H134        3.6990  -16.8910  -52.1330 H         1 UNK         0.0800 
    135 H135        2.3803  -15.7608  -52.3481 H         1 UNK         0.0800 
    136 H136        0.2277  -16.0776  -51.2126 H         1 UNK         0.1150 
    137 H137       -0.5713  -19.8663  -49.3851 H         1 UNK         0.1150 
    138 H138        3.4118  -18.8822  -50.6452 H         1 UNK         0.1150 
    139 H139        1.1923  -21.6182  -49.6210 H         1 UNK         0.0800 
    140 H140        2.8321  -21.1906  -50.0429 H         1 UNK         0.0800 
    141 H141        3.6503  -22.5907  -46.7433 H         1 UNK         0.0800 
    142 H142        3.0208  -23.0397  -48.2945 H         1 UNK         0.0800 
    143 H143        1.9342  -24.3522  -46.6123 H         1 UNK         0.0600 
    144 H144        1.6950  -21.9629  -45.0157 H         1 UNK         0.3000 
    145 H145       -0.7295  -22.6878  -43.1046 H         1 UNK         0.0600 
    146 H146        0.1651  -23.5421  -40.9287 H         1 UNK         0.0600 
    147 H147       -0.2579  -24.8363  -42.0361 H         1 UNK         0.0600 
    148 H148        1.4294  -24.4137  -41.7968 H         1 UNK         0.0600 
    149 H149        0.4594  -20.9175  -42.6902 H         1 UNK         0.3000 
    150 H150        3.3636  -20.2953  -41.0853 H         1 UNK         0.0600 
    151 H151        4.6503  -20.2587  -43.2052 H         1 UNK         0.0600 
    152 H152        4.1701  -18.6329  -42.7521 H         1 UNK         0.0600 
    153 H153        3.3147  -19.4809  -44.0390 H         1 UNK         0.0600 
    154 H154        1.5807  -18.5364  -42.5197 H         1 UNK         0.3000 
    155 H155       -1.1252  -18.7517  -40.2330 H         1 UNK         0.0600 
    156 H156        0.9025  -16.4772  -40.5238 H         1 UNK         0.0600 
    157 H157        0.3387  -17.1743  -39.0134 H         1 UNK         0.0600 
    158 H158       -0.7815  -16.2829  -40.0314 H         1 UNK         0.0600 
    159 H159       -0.7447  -16.9989  -42.4127 H         1 UNK         0.3000 
    160 H160       -1.8213  -19.2498  -45.0109 H         1 UNK         0.0600 
    161 H161       -3.2838  -17.2918  -45.4028 H         1 UNK         0.0600 
    162 H162       -2.9583  -16.6862  -43.7809 H         1 UNK         0.0600 
    163 H163       -3.8303  -18.1970  -44.0010 H         1 UNK         0.0600 
    164 H164       -0.8379  -16.5942  -45.1830 H         1 UNK         0.3000 
    165 H165        2.6417  -17.3929  -45.4441 H         1 UNK         0.0600 
    166 H166        2.3069  -15.9245  -47.4542 H         1 UNK         0.0600 
    167 H167        1.8077  -17.5823  -47.7360 H         1 UNK         0.0600 
    168 H168        0.5964  -16.3448  -47.4736 H         1 UNK         0.0600 
    169 H169        0.9382  -15.0133  -45.3139 H         1 UNK         0.3000 
    170 H170        1.2331  -14.5958  -41.8277 H         1 UNK         0.0600 
    171 H171        3.5355  -13.7826  -42.4915 H         1 UNK         0.0600 
    172 H172        2.7795  -12.8578  -43.7846 H         1 UNK         0.0600 
    173 H173        2.3903  -12.5053  -42.1098 H         1 UNK         0.0600 
    174 H174        0.4161  -12.9130  -44.0696 H         1 UNK         0.3000 
    175 H175       -2.9141  -14.1620  -44.1385 H         1 UNK         0.0600 
    176 H176       -3.5519  -11.8220  -43.6319 H         1 UNK         0.0600 
    177 H177       -3.0120  -12.6250  -42.1662 H         1 UNK         0.0600 
    178 H178       -1.9439  -11.4915  -42.9854 H         1 UNK         0.0600 
    179 H179       -1.7785  -11.9249  -45.4370 H         1 UNK         0.3000 
    180 H180       -1.1914  -13.5875  -48.4124 H         1 UNK         0.0600 
    181 H181       -1.0952  -10.8471  -47.0334 H         1 UNK         0.0600 
    182 H182       -2.5517  -11.6103  -47.6737 H         1 UNK         0.0600 
    183 H183       -1.2473  -11.1611  -48.7563 H         1 UNK         0.0600 
    184 H184        0.9524  -13.1956  -48.6666 H         1 UNK         0.3000 
    185 H185        3.2972  -11.2090  -47.2986 H         1 UNK         0.0600 
    186 H186        3.5411  -14.1024  -46.3393 H         1 UNK         0.0600 
    187 H187        4.9199  -13.1855  -46.9420 H         1 UNK         0.0600 
    188 H188        4.0632  -12.6249  -45.5296 H         1 UNK         0.0600 
    189 H189        3.3994  -13.6597  -48.9132 H         1 UNK         0.3000 
    190 H190       -0.3734  -21.7191  -46.4419 H         1 UNK         0.3000 
    191 H191       -1.8985  -22.2334  -48.7724 H         1 UNK         0.0600 
    192 H192       -2.8071  -21.1244  -46.0563 H         1 UNK         0.0600 
    193 H193       -3.6344  -20.9026  -47.5893 H         1 UNK         0.0600 
    194 H194       -2.0566  -20.1733  -47.3354 H         1 UNK         0.0600 
    195 H195       -2.0082  -23.6574  -45.4990 H         1 UNK         0.3000 
    196 H196       -4.3749  -25.2550  -45.9382 H         1 UNK         0.0600 
    197 H197       -3.7543  -26.2816  -43.7700 H         1 UNK         0.0600 
    198 H198       -3.6674  -24.5306  -43.6621 H         1 UNK         0.0600 
    199 H199       -2.1899  -25.4829  -43.7983 H         1 UNK         0.0600 
    200 H200       -0.8503  -25.8161  -46.1726 H         1 UNK         0.3000 
    201 H201       -0.9693  -28.5926  -46.8154 H         1 UNK         0.0600 
    202 H202        1.0891  -27.4362  -46.0035 H         1 UNK         0.0600 
    203 H203        1.1837  -26.5243  -47.5087 H         1 UNK         0.0600 
    204 H204        1.3805  -28.2704  -47.5231 H         1 UNK         0.0600 
    205 H205       -0.8839  -25.6604  -48.8904 H         1 UNK         0.3000 
    206 H206       -1.0466  -27.0394  -51.4017 H         1 UNK         0.0600 
    207 H207       -0.1739  -24.7248  -51.1713 H         1 UNK         0.0600 
    208 H208       -1.5471  -24.7405  -52.2665 H         1 UNK         0.0600 
    209 H209       -1.7463  -24.1580  -50.6153 H         1 UNK         0.0600 
    210 H210       -3.4282  -26.0743  -49.0659 H         1 UNK         0.3000 
    211 H211       -5.5335  -26.4358  -48.6924 H         1 UNK         0.0600 
    212 H212       -5.6581  -28.2213  -51.1793 H         1 UNK         0.0600 
    213 H213       -6.8723  -28.1148  -49.9146 H         1 UNK         0.0600 
    214 H214       -5.2769  -28.7495  -49.5410 H         1 UNK         0.0600 
    215 H215       -5.1498  -25.9219  -52.2114 H         1 UNK         0.3000 
    216 H216       -7.5271  -24.2095  -52.4029 H         1 UNK         0.0600 
    217 H217       -6.8018  -23.9915  -54.7828 H         1 UNK         0.0600 
    218 H218       -6.8742  -25.6766  -54.2927 H         1 UNK         0.0600 
    219 H219       -5.3153  -24.8646  -54.4250 H         1 UNK         0.0600 
    220 H220       -4.0540  -23.8088  -52.0462 H         1 UNK         0.3000 
    221 H221       -2.6382  -22.1052  -51.7713 H         1 UNK         0.0600 
    222 H222       -5.0240  -20.5765  -50.6134 H         1 UNK         0.0600 
    223 H223       -4.1785  -21.8543  -49.7545 H         1 UNK         0.0600 
    224 H224       -3.3278  -20.3789  -50.1915 H         1 UNK         0.0600 
    225 H225       -4.0121  -22.1724  -54.3479 H         1 UNK         0.3000 
    226 H226       -4.3738  -21.1187  -56.2584 H         1 UNK         0.0600 
    227 H227       -1.9704  -20.4281  -55.9786 H         1 UNK         0.0600 
    228 H228       -2.8918  -19.2581  -56.9067 H         1 UNK         0.0600 
    229 H229       -2.4976  -18.9230  -55.2268 H         1 UNK         0.0600 
    230 H230       -6.0435  -20.3929  -53.8087 H         1 UNK         0.3000 
    231 H231       -7.6491  -19.1216  -53.0611 H         1 UNK         0.0600 
    232 H232       -8.6858  -19.5029  -55.3160 H         1 UNK         0.0600 
    233 H233       -7.9748  -17.9957  -55.8926 H         1 UNK         0.0600 
    234 H234       -9.1762  -17.9729  -54.6102 H         1 UNK         0.0600 
    235 H235       -4.7990  -18.0388  -53.1901 H         1 UNK         0.3000 
    236 H236       -5.1493  -15.1286  -53.3766 H         1 UNK         0.0600 
    237 H237       -2.6697  -15.1451  -53.1279 H         1 UNK         0.0600 
    238 H238       -2.6921  -16.8883  -52.8873 H         1 UNK         0.0600 
    239 H239       -3.1975  -16.2030  -54.4274 H         1 UNK         0.0600 
    240 H240       -5.0608  -17.5416  -50.8212 H         1 UNK         0.3000 
    241 H241       -5.5874  -15.6072  -48.8239 H         1 UNK         0.0600 
    242 H242       -6.3839  -18.3812  -46.6100 H         1 UNK         0.3800 
    243 H243       -5.6136  -16.8275  -46.4811 H         1 UNK         0.3800 
    244 H244       -3.1033  -15.2755  -48.8849 H         1 UNK         0.0800 
    245 H245       -3.6790  -15.8305  -47.3577 H         1 UNK         0.0800 
    246 H246       -2.4171  -18.2083  -50.6995 H         1 UNK         0.0800 
    247 H247       -1.9415  -16.5322  -50.5642 H         1 UNK         0.0800 
@<TRIPOS>BOND
     1    1    2 1    
     2    1  127 1    
     3    1  128 1    
     4    1  129 1    
     5    2    3 2    
     6    2    4 am   BACKBONE|DICT|INTERRES
     7    4    5 1    
     8    4  130 1    
     9    5    6 1    
    10    5   65 1    
    11    5  131 1    
    12    6    7 1    
    13    6  132 1    
    14    6  133 1    
    15    7    8 1    
    16    8    9 1    
    17    8  134 1    
    18    8  135 1    
    19    9   10 ar   
    20    9   14 ar   
    21   10   11 ar   
    22   10  136 1    
    23   11   12 ar   
    24   11  126 1    
    25   12   13 ar   
    26   12  137 1    
    27   13   14 ar   
    28   13   15 1    
    29   14  138 1    
    30   15   16 1    
    31   15  139 1    
    32   15  140 1    
    33   16   17 1    
    34   17   18 1    
    35   17  141 1    
    36   17  142 1    
    37   18   19 1    
    38   18   67 1    
    39   18  143 1    
    40   19   20 am   BACKBONE|DICT|INTERRES
    41   19  144 1    
    42   20   21 2    
    43   20   22 1    
    44   22   23 1    
    45   22   24 1    
    46   22  145 1    
    47   23  146 1    
    48   23  147 1    
    49   23  148 1    
    50   24   25 am   BACKBONE|DICT|INTERRES
    51   24  149 1    
    52   25   26 2    
    53   25   27 1    
    54   27   28 1    
    55   27   29 1    
    56   27  150 1    
    57   28  151 1    
    58   28  152 1    
    59   28  153 1    
    60   29   30 am   BACKBONE|DICT|INTERRES
    61   29  154 1    
    62   30   31 2    
    63   30   32 1    
    64   32   33 1    
    65   32   34 1    
    66   32  155 1    
    67   33  156 1    
    68   33  157 1    
    69   33  158 1    
    70   34   35 am   BACKBONE|DICT|INTERRES
    71   34  159 1    
    72   35   36 2    
    73   35   37 1    
    74   37   38 1    
    75   37   39 1    
    76   37  160 1    
    77   38  161 1    
    78   38  162 1    
    79   38  163 1    
    80   39   40 am   BACKBONE|DICT|INTERRES
    81   39  164 1    
    82   40   41 2    
    83   40   42 1    
    84   42   43 1    
    85   42   44 1    
    86   42  165 1    
    87   43  166 1    
    88   43  167 1    
    89   43  168 1    
    90   44   45 am   BACKBONE|DICT|INTERRES
    91   44  169 1    
    92   45   46 2    
    93   45   47 1    
    94   47   48 1    
    95   47   49 1    
    96   47  170 1    
    97   48  171 1    
    98   48  172 1    
    99   48  173 1    
   100   49   50 am   BACKBONE|DICT|INTERRES
   101   49  174 1    
   102   50   51 2    
   103   50   52 1    
   104   52   53 1    
   105   52   54 1    
   106   52  175 1    
   107   53  176 1    
   108   53  177 1    
   109   53  178 1    
   110   54   55 am   BACKBONE|DICT|INTERRES
   111   54  179 1    
   112   55   56 2    
   113   55   57 1    
   114   57   58 1    
   115   57   59 1    
   116   57  180 1    
   117   58  181 1    
   118   58  182 1    
   119   58  183 1    
   120   59   60 am   BACKBONE|DICT|INTERRES
   121   59  184 1    
   122   60   61 2    
   123   60   62 1    
   124   62   63 1    
   125   62   64 1    
   126   62  185 1    
   127   63  186 1    
   128   63  187 1    
   129   63  188 1    
   130   64   65 am   BACKBONE|DICT|INTERRES
   131   64  189 1    
   132   65   66 2    
   133   67   68 2    
   134   67   69 am   BACKBONE|DICT|INTERRES
   135   69   70 1    
   136   69  190 1    
   137   70   71 1    
   138   70   72 1    
   139   70  191 1    
   140   71  192 1    
   141   71  193 1    
   142   71  194 1    
   143   72   73 2    
   144   72   74 am   BACKBONE|DICT|INTERRES
   145   74   75 1    
   146   74  195 1    
   147   75   76 1    
   148   75   77 1    
   149   75  196 1    
   150   76  197 1    
   151   76  198 1    
   152   76  199 1    
   153   77   78 2    
   154   77   79 am   BACKBONE|DICT|INTERRES
   155   79   80 1    
   156   79  200 1    
   157   80   81 1    
   158   80   82 1    
   159   80  201 1    
   160   81  202 1    
   161   81  203 1    
   162   81  204 1    
   163   82   83 2    
   164   82   84 am   BACKBONE|DICT|INTERRES
   165   84   85 1    
   166   84  205 1    
   167   85   86 1    
   168   85   87 1    
   169   85  206 1    
   170   86  207 1    
   171   86  208 1    
   172   86  209 1    
   173   87   88 2    
   174   87   89 am   BACKBONE|DICT|INTERRES
   175   89   90 1    
   176   89  210 1    
   177   90   91 1    
   178   90   92 1    
   179   90  211 1    
   180   91  212 1    
   181   91  213 1    
   182   91  214 1    
   183   92   93 2    
   184   92   94 am   BACKBONE|DICT|INTERRES
   185   94   95 1    
   186   94  215 1    
   187   95   96 1    
   188   95   97 1    
   189   95  216 1    
   190   96  217 1    
   191   96  218 1    
   192   96  219 1    
   193   97   98 2    
   194   97   99 am   BACKBONE|DICT|INTERRES
   195   99  100 1    
   196   99  220 1    
   197  100  101 1    
   198  100  102 1    
   199  100  221 1    
   200  101  222 1    
   201  101  223 1    
   202  101  224 1    
   203  102  103 2    
   204  102  104 am   BACKBONE|DICT|INTERRES
   205  104  105 1    
   206  104  225 1    
   207  105  106 1    
   208  105  107 1    
   209  105  226 1    
   210  106  227 1    
   211  106  228 1    
   212  106  229 1    
   213  107  108 2    
   214  107  109 am   BACKBONE|DICT|INTERRES
   215  109  110 1    
   216  109  230 1    
   217  110  111 1    
   218  110  112 1    
   219  110  231 1    
   220  111  232 1    
   221  111  233 1    
   222  111  234 1    
   223  112  113 2    
   224  112  114 am   BACKBONE|DICT|INTERRES
   225  114  115 1    
   226  114  235 1    
   227  115  116 1    
   228  115  117 1    
   229  115  236 1    
   230  116  237 1    
   231  116  238 1    
   232  116  239 1    
   233  117  118 2    
   234  117  119 am   BACKBONE|DICT|INTERRES
   235  119  120 1    
   236  119  240 1    
   237  120  121 1    
   238  120  124 1    
   239  120  241 1    
   240  121  122 am   BACKBONE|DICT|INTERRES
   241  121  123 2    
   242  122  242 1    
   243  122  243 1    
   244  124  125 1    
   245  124  244 1    
   246  124  245 1    
   247  125  126 1    
   248  126  246 1    
   249  126  247 1    
@<TRIPOS>SUBSTRUCTURE
     1 UNK         1 GROUP             0       ****    0 ROOT    
