@<TRIPOS>MOLECULE
3R540
247   249    1
SMALL
USER_CHARGES


@<TRIPOS>ATOM
      1 CA         -0.1624  -14.3115  -50.9024 C.3       0 UNK        -0.1800 
      2 C           0.9271  -14.2502  -49.8419 C.2       0 UNK         0.5000 
      3 O           2.1109  -14.2289  -50.1784 O.2       0 UNK        -0.5000 
      4 N           0.5299  -14.2201  -48.5643 N.am      1 UNK        -0.5000 
      5 CA          1.4205  -14.1269  -47.4019 C.3       1 UNK         0.1400 
      6 C6          0.6971  -14.4930  -46.0810 C.3       23 UNK        -0.0398 
      7 S7         -0.8623  -13.5824  -45.7872 S.3       23 UNK        -0.2404 
      8 C8         -2.0918  -14.9233  -45.8215 C.3       23 UNK        -0.0205 
      9 C9         -2.3216  -15.4669  -47.2228 C.ar      23 UNK        -0.0193 
     10 C10        -3.2285  -14.8381  -48.0788 C.ar      23 UNK        -0.1150 
     11 C11        -3.4626  -15.3404  -49.3614 C.ar      23 UNK        -0.0193 
     12 C12        -2.7778  -16.4893  -49.7771 C.ar      23 UNK        -0.1150 
     13 C13        -1.8499  -17.1204  -48.9442 C.ar      23 UNK        -0.0193 
     14 C14        -1.6372  -16.6045  -47.6595 C.ar      23 UNK        -0.1150 
     15 C15        -1.0728  -18.3177  -49.4969 C.3       23 UNK        -0.0205 
     16 S16        -0.2310  -19.3579  -48.2548 S.3       23 UNK        -0.2404 
     17 C17        -1.6446  -20.2048  -47.4742 C.3       23 UNK        -0.0398 
     18 CA         -1.3166  -21.6862  -47.1815 C.3       11 UNK         0.1400 
     19 N          -0.3100  -21.8423  -46.1284 N.am      11 UNK        -0.5000 
     20 C           0.2674  -23.0027  -45.7882 C.2       10 UNK         0.5000 
     21 O           0.0437  -24.0706  -46.3557 O.2       10 UNK        -0.5000 
     22 CA          1.2045  -22.9779  -44.5700 C.3       10 UNK         0.1400 
     23 CB          2.5912  -22.4323  -44.9442 C.3       10 UNK        -0.1800 
     24 N           0.6399  -22.1961  -43.4706 N.am      10 UNK        -0.5000 
     25 C          -0.4390  -22.5589  -42.7627 C.2       9 UNK         0.5000 
     26 O          -1.0488  -23.6145  -42.9365 O.2       9 UNK        -0.5000 
     27 CA         -0.9432  -21.5525  -41.7126 C.3       9 UNK         0.1400 
     28 CB         -0.1470  -21.6851  -40.4061 C.3       9 UNK        -0.1800 
     29 N          -0.8743  -20.1686  -42.1831 N.am      9 UNK        -0.5000 
     30 C          -1.6241  -19.6698  -43.1771 C.2       8 UNK         0.5000 
     31 O          -2.4691  -20.3207  -43.7897 O.2       8 UNK        -0.5000 
     32 CA         -1.3500  -18.2113  -43.5899 C.3       8 UNK         0.1400 
     33 CB         -2.1342  -17.2589  -42.6738 C.3       8 UNK        -0.1800 
     34 N           0.0731  -17.8575  -43.5663 N.am      8 UNK        -0.5000 
     35 C           1.0378  -18.5151  -44.2318 C.2       7 UNK         0.5000 
     36 O           0.8053  -19.4448  -45.0023 O.2       7 UNK        -0.5000 
     37 CA          2.5074  -18.1253  -43.9724 C.3       7 UNK         0.1400 
     38 CB          3.1244  -17.4671  -45.2153 C.3       7 UNK        -0.1800 
     39 N           2.6996  -17.2563  -42.8097 N.am      7 UNK        -0.5000 
     40 C           2.4809  -17.6182  -41.5352 C.2       6 UNK         0.5000 
     41 O           2.1374  -18.7543  -41.2041 O.2       6 UNK        -0.5000 
     42 CA          2.6160  -16.5257  -40.4521 C.3       6 UNK         0.1400 
     43 CB          3.9856  -16.6222  -39.7638 C.3       6 UNK        -0.1800 
     44 N           2.4325  -15.1602  -40.9528 N.am      6 UNK        -0.5000 
     45 C           1.3309  -14.6923  -41.5575 C.2       5 UNK         0.5000 
     46 O           0.3027  -15.3538  -41.6980 O.2       5 UNK        -0.5000 
     47 CA          1.4043  -13.2736  -42.1583 C.3       5 UNK         0.1400 
     48 CB          0.7727  -12.2526  -41.2014 C.3       5 UNK        -0.1800 
     49 N           2.7495  -12.8115  -42.5239 N.am      5 UNK        -0.5000 
     50 C           3.6198  -13.4339  -43.3318 C.2       4 UNK         0.5000 
     51 O           3.4349  -14.5604  -43.7935 O.2       4 UNK        -0.5000 
     52 CA          4.8992  -12.6511  -43.6801 C.3       4 UNK         0.1400 
     53 CB          5.8646  -13.4542  -44.5705 C.3       4 UNK        -0.1800 
     54 N           4.5638  -11.3958  -44.3522 N.am      4 UNK        -0.5000 
     55 C           4.2743  -10.2425  -43.7340 C.2       3 UNK         0.5000 
     56 O           4.2547  -10.1221  -42.5082 O.2       3 UNK        -0.5000 
     57 CA          3.9369   -9.0246  -44.6174 C.3       3 UNK         0.1400 
     58 CB          5.1767   -8.1354  -44.7983 C.3       3 UNK        -0.1800 
     59 N           3.4184   -9.3893  -45.9370 N.am      3 UNK        -0.5000 
     60 C           2.1945   -9.8841  -46.1630 C.2       2 UNK         0.5000 
     61 O           1.3533  -10.0440  -45.2766 O.2       2 UNK        -0.5000 
     62 CA          1.8415  -10.2824  -47.6140 C.3       2 UNK         0.1400 
     63 CB          2.9548   -9.9945  -48.6471 C.3       2 UNK        -0.1800 
     64 N           1.4229  -11.6844  -47.6941 N.am      2 UNK        -0.5000 
     65 C           2.1241  -12.7569  -47.2936 C.2       1 UNK         0.5000 
     66 O           3.2753  -12.7009  -46.8586 O.2       1 UNK        -0.5000 
     67 C          -2.5960  -22.4882  -46.8772 C.2       11 UNK         0.5000 
     68 O          -3.1178  -23.1365  -47.7830 O.2       11 UNK        -0.5000 
     69 N          -3.0563  -22.4751  -45.6178 N.am      12 UNK        -0.5000 
     70 CA         -4.1919  -23.2712  -45.1493 C.3       12 UNK         0.1400 
     71 CB         -4.5537  -22.8747  -43.7101 C.3       12 UNK        -0.1800 
     72 C          -3.9352  -24.7852  -45.2568 C.2       12 UNK         0.5000 
     73 O          -4.7885  -25.5061  -45.7749 O.2       12 UNK        -0.5000 
     74 N          -2.7489  -25.2319  -44.8179 N.am      13 UNK        -0.5000 
     75 CA         -2.2976  -26.6236  -44.9124 C.3       13 UNK         0.1400 
     76 CB         -0.9779  -26.7862  -44.1433 C.3       13 UNK        -0.1800 
     77 C          -2.1468  -27.1157  -46.3657 C.2       13 UNK         0.5000 
     78 O          -2.4777  -28.2651  -46.6577 O.2       13 UNK        -0.5000 
     79 N          -1.6847  -26.2264  -47.2537 N.am      14 UNK        -0.5000 
     80 CA         -1.5408  -26.4594  -48.6913 C.3       14 UNK         0.1400 
     81 CB         -0.4801  -25.4901  -49.2390 C.3       14 UNK        -0.1800 
     82 C          -2.8582  -26.3157  -49.4821 C.2       14 UNK         0.5000 
     83 O          -2.8353  -26.4879  -50.7015 O.2       14 UNK        -0.5000 
     84 N          -3.9646  -25.9632  -48.8085 N.am      15 UNK        -0.5000 
     85 CA         -5.2980  -25.7077  -49.3676 C.3       15 UNK         0.1400 
     86 CB         -5.9261  -27.0169  -49.8897 C.3       15 UNK        -0.1800 
     87 C          -5.2889  -24.5810  -50.4232 C.2       15 UNK         0.5000 
     88 O          -5.8739  -24.7303  -51.4967 O.2       15 UNK        -0.5000 
     89 N          -4.5793  -23.4897  -50.1000 N.am      16 UNK        -0.5000 
     90 CA         -4.2822  -22.3318  -50.9475 C.3       16 UNK         0.1400 
     91 CB         -5.5690  -21.5639  -51.3166 C.3       16 UNK        -0.1800 
     92 C          -3.4346  -22.7133  -52.1765 C.2       16 UNK         0.5000 
     93 O          -3.6799  -22.2075  -53.2694 O.2       16 UNK        -0.5000 
     94 N          -2.4632  -23.6178  -51.9802 N.am      17 UNK        -0.5000 
     95 CA         -1.6247  -24.2364  -53.0161 C.3       17 UNK         0.1400 
     96 CB         -0.6947  -23.1924  -53.6714 C.3       17 UNK        -0.1800 
     97 C          -2.4761  -25.0245  -54.0349 C.2       17 UNK         0.5000 
     98 O          -2.3160  -24.8443  -55.2431 O.2       17 UNK        -0.5000 
     99 N          -3.3985  -25.8303  -53.4854 N.am      18 UNK        -0.5000 
    100 CA        -4.4487  -26.6660  -54.0839 C.3       18 UNK         0.1400 
    101 CB        -4.0973  -28.1398  -53.8073 C.3       18 UNK        -0.1800 
    102 C         -4.7991  -26.4133  -55.5725 C.2       18 UNK         0.5000 
    103 O         -4.4976  -27.2618  -56.4126 O.2       18 UNK        -0.5000 
    104 N         -5.4197  -25.2846  -55.9408 N.am      19 UNK        -0.5000 
    105 CA        -5.7913  -24.1276  -55.1266 C.3       19 UNK         0.1400 
    106 CB        -7.2807  -24.2183  -54.7496 C.3       19 UNK        -0.1800 
    107 C         -5.4367  -22.8668  -55.9358 C.2       19 UNK         0.5000 
    108 O         -6.3175  -22.0846  -56.2962 O.2       19 UNK        -0.5000 
    109 N         -4.1501  -22.7522  -56.2897 N.am      20 UNK        -0.5000 
    110 CA        -3.6068  -21.7266  -57.1795 C.3       20 UNK         0.1400 
    111 CB        -2.2226  -22.1867  -57.6633 C.3       20 UNK        -0.1800 
    112 C         -3.5142  -20.3150  -56.5661 C.2       20 UNK         0.5000 
    113 O         -3.5331  -19.3396  -57.3195 O.2       20 UNK        -0.5000 
    114 N         -3.3849  -20.2152  -55.2373 N.am      21 UNK        -0.5000 
    115 CA        -3.2721  -18.9496  -54.5109 C.3       21 UNK         0.1400 
    116 CB        -2.4417  -19.1747  -53.2331 C.3       21 UNK        -0.1800 
    117 C         -4.6549  -18.3600  -54.1727 C.2       21 UNK         0.5000 
    118 O         -5.6855  -19.0047  -54.3790 O.2       21 UNK        -0.5000 
    119 N         -4.6421  -17.1371  -53.6306 N.am      22 UNK        -0.5000 
    120 CA        -5.8218  -16.4017  -53.1423 C.3       22 UNK         0.1400 
    121 C         -6.5478  -17.0278  -51.9133 C.2       22 UNK         0.5000 
    122 N         -5.9425  -17.9523  -51.1785 N.am      22 UNK        -0.7600 
    123 O         -7.6830  -16.6619  -51.6215 O.2       22 UNK        -0.5000 
    124 C124       -5.5068  -14.8952  -52.9109 C.3       23 UNK        -0.0398 
    125 S125       -3.9438  -14.5705  -52.0145 S.3       23 UNK        -0.2404 
    126 C126       -4.4758  -14.6477  -50.2691 C.3       23 UNK        -0.0205 
    127 H127        0.0759  -13.6446  -51.7308 H         1 UNK         0.0600 
    128 H128       -1.1296  -14.0116  -50.4995 H         1 UNK         0.0600 
    129 H129       -0.2525  -15.3252  -51.2925 H         1 UNK         0.0600 
    130 H130       -0.4570  -14.2650  -48.3486 H         1 UNK         0.3000 
    131 H131        2.2131  -14.8647  -47.5456 H         1 UNK         0.0600 
    132 H132        0.4998  -15.5636  -46.0639 H         1 UNK         0.0800 
    133 H133        1.3500  -14.3192  -45.2277 H         1 UNK         0.0800 
    134 H134       -3.0326  -14.5509  -45.4135 H         1 UNK         0.0800 
    135 H135       -1.7679  -15.7222  -45.1575 H         1 UNK         0.0800 
    136 H136       -3.7576  -13.9581  -47.7400 H         1 UNK         0.1150 
    137 H137       -2.9524  -16.8861  -50.7662 H         1 UNK         0.1150 
    138 H138       -0.9299  -17.0761  -46.9945 H         1 UNK         0.1150 
    139 H139       -1.7336  -18.9477  -50.0943 H         1 UNK         0.0800 
    140 H140       -0.3151  -17.9355  -50.1821 H         1 UNK         0.0800 
    141 H141       -2.5077  -20.1262  -48.1379 H         1 UNK         0.0800 
    142 H142       -1.9132  -19.6763  -46.5585 H         1 UNK         0.0800 
    143 H143       -0.8947  -22.1196  -48.0911 H         1 UNK         0.0600 
    144 H144       -0.0222  -20.9933  -45.6468 H         1 UNK         0.3000 
    145 H145        1.3293  -24.0062  -44.2242 H         1 UNK         0.0600 
    146 H146        3.2656  -22.4484  -44.0880 H         1 UNK         0.0600 
    147 H147        3.0465  -23.0391  -45.7278 H         1 UNK         0.0600 
    148 H148        2.5424  -21.4081  -45.3137 H         1 UNK         0.0600 
    149 H149        1.0455  -21.2875  -43.3026 H         1 UNK         0.3000 
    150 H150       -1.9883  -21.7880  -41.5008 H         1 UNK         0.0600 
    151 H151       -0.1879  -22.7065  -40.0256 H         1 UNK         0.0600 
    152 H152       -0.5508  -21.0334  -39.6311 H         1 UNK         0.0600 
    153 H153        0.9037  -21.4272  -40.5460 H         1 UNK         0.0600 
    154 H154       -0.1784  -19.5739  -41.7534 H         1 UNK         0.3000 
    155 H155       -1.7056  -18.0836  -44.6138 H         1 UNK         0.0600 
    156 H156       -3.2047  -17.4622  -42.7241 H         1 UNK         0.0600 
    157 H157       -1.9890  -16.2161  -42.9521 H         1 UNK         0.0600 
    158 H158       -1.8285  -17.3634  -41.6319 H         1 UNK         0.0600 
    159 H159        0.3357  -17.0989  -42.9474 H         1 UNK         0.3000 
    160 H160        3.0500  -19.0538  -43.7837 H         1 UNK         0.0600 
    161 H161        2.6362  -16.5246  -45.4563 H         1 UNK         0.0600 
    162 H162        3.0350  -18.1150  -46.0884 H         1 UNK         0.0600 
    163 H163        4.1852  -17.2637  -45.0681 H         1 UNK         0.0600 
    164 H164        2.9693  -16.2969  -43.0104 H         1 UNK         0.3000 
    165 H165        1.8409  -16.7110  -39.7058 H         1 UNK         0.0600 
    166 H166        4.0632  -15.9159  -38.9370 H         1 UNK         0.0600 
    167 H167        4.1474  -17.6198  -39.3530 H         1 UNK         0.0600 
    168 H168        4.8000  -16.4175  -40.4599 H         1 UNK         0.0600 
    169 H169        3.2329  -14.5483  -40.8956 H         1 UNK         0.3000 
    170 H170        0.8114  -13.2863  -43.0743 H         1 UNK         0.0600 
    171 H171        0.7112  -11.2664  -41.6622 H         1 UNK         0.0600 
    172 H172       -0.2423  -12.5459  -40.9294 H         1 UNK         0.0600 
    173 H173        1.3469  -12.1583  -40.2789 H         1 UNK         0.0600 
    174 H174        3.0041  -11.8843  -42.2046 H         1 UNK         0.3000 
    175 H175        5.4175  -12.4386  -42.7428 H         1 UNK         0.0600 
    176 H176        5.4106  -13.7167  -45.5266 H         1 UNK         0.0600 
    177 H177        6.7736  -12.8888  -44.7757 H         1 UNK         0.0600 
    178 H178        6.1632  -14.3834  -44.0837 H         1 UNK         0.0600 
    179 H179        4.4517  -11.4515  -45.3569 H         1 UNK         0.3000 
    180 H180        3.1744   -8.4419  -44.0960 H         1 UNK         0.0600 
    181 H181        5.9742   -8.6588  -45.3271 H         1 UNK         0.0600 
    182 H182        5.5752   -7.8195  -43.8332 H         1 UNK         0.0600 
    183 H183        4.9364   -7.2324  -45.3599 H         1 UNK         0.0600 
    184 H184        4.0538   -9.2963  -46.7162 H         1 UNK         0.3000 
    185 H185        0.9726   -9.6834  -47.8898 H         1 UNK         0.0600 
    186 H186        2.6281  -10.2637  -49.6517 H         1 UNK         0.0600 
    187 H187        3.2089   -8.9340  -48.6700 H         1 UNK         0.0600 
    188 H188        3.8673  -10.5548  -48.4403 H         1 UNK         0.0600 
    189 H189        0.4751  -11.8407  -48.0056 H         1 UNK         0.3000 
    190 H190       -2.6162  -21.8664  -44.9335 H         1 UNK         0.3000 
    191 H191       -5.0465  -23.0357  -45.7870 H         1 UNK         0.0600 
    192 H192       -4.8304  -21.8220  -43.6503 H         1 UNK         0.0600 
    193 H193       -5.4029  -23.4546  -43.3466 H         1 UNK         0.0600 
    194 H194       -3.7239  -23.0412  -43.0234 H         1 UNK         0.0600 
    195 H195       -2.1110  -24.5773  -44.3757 H         1 UNK         0.3000 
    196 H196       -3.0507  -27.2495  -44.4294 H         1 UNK         0.0600 
    197 H197       -0.6306  -27.8196  -44.1760 H         1 UNK         0.0600 
    198 H198       -1.0977  -26.5160  -43.0940 H         1 UNK         0.0600 
    199 H199       -0.1887  -26.1604  -44.5608 H         1 UNK         0.0600 
    200 H200       -1.3650  -25.3245  -46.9118 H         1 UNK         0.3000 
    201 H201       -1.1810  -27.4783  -48.8469 H         1 UNK         0.0600 
    202 H202        0.4645  -25.5989  -48.7057 H         1 UNK         0.0600 
    203 H203       -0.7983  -24.4514  -49.1447 H         1 UNK         0.0600 
    204 H204       -0.2756  -25.6814  -50.2925 H         1 UNK         0.0600 
    205 H205       -3.8790  -25.8088  -47.8116 H         1 UNK         0.3000 
    206 H206       -5.9144  -25.3499  -48.5417 H         1 UNK         0.0600 
    207 H207       -5.9322  -27.7856  -49.1170 H         1 UNK         0.0600 
    208 H208       -6.9602  -26.8580  -50.1974 H         1 UNK         0.0600 
    209 H209       -5.3868  -27.4117  -50.7511 H         1 UNK         0.0600 
    210 H210       -4.1161  -23.4782  -49.1907 H         1 UNK         0.3000 
    211 H211       -3.6618  -21.6643  -50.3479 H         1 UNK         0.0600 
    212 H212       -6.2274  -22.1532  -51.9552 H         1 UNK         0.0600 
    213 H213       -5.3354  -20.6487  -51.8602 H         1 UNK         0.0600 
    214 H214       -6.1292  -21.2800  -50.4260 H         1 UNK         0.0600 
    215 H215       -2.3720  -24.0102  -51.0548 H         1 UNK         0.3000 
    216 H216       -0.9936  -24.9695  -52.5128 H         1 UNK         0.0600 
    217 H217        0.0066  -23.6720  -54.3550 H         1 UNK         0.0600 
    218 H218       -1.2494  -22.4497  -54.2451 H         1 UNK         0.0600 
    219 H219       -0.1068  -22.6637  -52.9212 H         1 UNK         0.0600 
    220 H220       -3.3756  -25.8852  -52.4708 H         1 UNK         0.3000 
    221 H221       -5.3594  -26.4554  -53.5224 H         1 UNK         0.0600 
    222 H222       -3.1567  -28.4215  -54.2821 H         1 UNK         0.0600 
    223 H223       -3.9994  -28.3276  -52.7378 H         1 UNK         0.0600 
    224 H224       -4.8727  -28.8087  -54.1829 H         1 UNK         0.0600 
    225 H225       -5.5965  -25.1583  -56.9271 H         1 UNK         0.3000 
    226 H226       -5.2195  -24.0860  -54.2030 H         1 UNK         0.0600 
    227 H227       -7.4816  -25.1066  -54.1507 H         1 UNK         0.0600 
    228 H228       -7.5825  -23.3547  -54.1557 H         1 UNK         0.0600 
    229 H229       -7.9204  -24.2555  -55.6320 H         1 UNK         0.0600 
    230 H230       -3.4933  -23.4517  -55.9544 H         1 UNK         0.3000 
    231 H231       -4.2616  -21.6578  -58.0507 H         1 UNK         0.0600 
    232 H232       -1.5264  -22.3034  -56.8317 H         1 UNK         0.0600 
    233 H233       -1.7890  -21.4658  -58.3576 H         1 UNK         0.0600 
    234 H234       -2.2841  -23.1426  -58.1838 H         1 UNK         0.0600 
    235 H235       -3.4662  -21.0534  -54.6643 H         1 UNK         0.3000 
    236 H236       -2.7400  -18.2280  -55.1344 H         1 UNK         0.0600 
    237 H237       -1.5200  -19.7157  -53.4488 H         1 UNK         0.0600 
    238 H238       -2.1565  -18.2261  -52.7775 H         1 UNK         0.0600 
    239 H239       -2.9939  -19.7413  -52.4842 H         1 UNK         0.0600 
    240 H240       -3.7595  -16.6675  -53.4877 H         1 UNK         0.3000 
    241 H241       -6.5590  -16.4449  -53.9465 H         1 UNK         0.0600 
    242 H242       -5.0144  -18.2603  -51.4085 H         1 UNK         0.3800 
    243 H243       -6.4262  -18.3453  -50.3874 H         1 UNK         0.3800 
    244 H244       -6.3313  -14.3803  -52.4140 H         1 UNK         0.0800 
    245 H245       -5.4147  -14.4083  -53.8825 H         1 UNK         0.0800 
    246 H246       -5.4257  -15.1711  -50.1741 H         1 UNK         0.0800 
    247 H247       -4.6577  -13.6273  -49.9285 H         1 UNK         0.0800 
@<TRIPOS>BOND
     1    1    2 1    
     2    1  127 1    
     3    1  128 1    
     4    1  129 1    
     5    2    3 2    
     6    2    4 am   BACKBONE|DICT|INTERRES
     7    4    5 1    
     8    4  130 1    
     9    5    6 1    
    10    5   65 1    
    11    5  131 1    
    12    6    7 1    
    13    6  132 1    
    14    6  133 1    
    15    7    8 1    
    16    8    9 1    
    17    8  134 1    
    18    8  135 1    
    19    9   10 ar   
    20    9   14 ar   
    21   10   11 ar   
    22   10  136 1    
    23   11   12 ar   
    24   11  126 1    
    25   12   13 ar   
    26   12  137 1    
    27   13   14 ar   
    28   13   15 1    
    29   14  138 1    
    30   15   16 1    
    31   15  139 1    
    32   15  140 1    
    33   16   17 1    
    34   17   18 1    
    35   17  141 1    
    36   17  142 1    
    37   18   19 1    
    38   18   67 1    
    39   18  143 1    
    40   19   20 am   BACKBONE|DICT|INTERRES
    41   19  144 1    
    42   20   21 2    
    43   20   22 1    
    44   22   23 1    
    45   22   24 1    
    46   22  145 1    
    47   23  146 1    
    48   23  147 1    
    49   23  148 1    
    50   24   25 am   BACKBONE|DICT|INTERRES
    51   24  149 1    
    52   25   26 2    
    53   25   27 1    
    54   27   28 1    
    55   27   29 1    
    56   27  150 1    
    57   28  151 1    
    58   28  152 1    
    59   28  153 1    
    60   29   30 am   BACKBONE|DICT|INTERRES
    61   29  154 1    
    62   30   31 2    
    63   30   32 1    
    64   32   33 1    
    65   32   34 1    
    66   32  155 1    
    67   33  156 1    
    68   33  157 1    
    69   33  158 1    
    70   34   35 am   BACKBONE|DICT|INTERRES
    71   34  159 1    
    72   35   36 2    
    73   35   37 1    
    74   37   38 1    
    75   37   39 1    
    76   37  160 1    
    77   38  161 1    
    78   38  162 1    
    79   38  163 1    
    80   39   40 am   BACKBONE|DICT|INTERRES
    81   39  164 1    
    82   40   41 2    
    83   40   42 1    
    84   42   43 1    
    85   42   44 1    
    86   42  165 1    
    87   43  166 1    
    88   43  167 1    
    89   43  168 1    
    90   44   45 am   BACKBONE|DICT|INTERRES
    91   44  169 1    
    92   45   46 2    
    93   45   47 1    
    94   47   48 1    
    95   47   49 1    
    96   47  170 1    
    97   48  171 1    
    98   48  172 1    
    99   48  173 1    
   100   49   50 am   BACKBONE|DICT|INTERRES
   101   49  174 1    
   102   50   51 2    
   103   50   52 1    
   104   52   53 1    
   105   52   54 1    
   106   52  175 1    
   107   53  176 1    
   108   53  177 1    
   109   53  178 1    
   110   54   55 am   BACKBONE|DICT|INTERRES
   111   54  179 1    
   112   55   56 2    
   113   55   57 1    
   114   57   58 1    
   115   57   59 1    
   116   57  180 1    
   117   58  181 1    
   118   58  182 1    
   119   58  183 1    
   120   59   60 am   BACKBONE|DICT|INTERRES
   121   59  184 1    
   122   60   61 2    
   123   60   62 1    
   124   62   63 1    
   125   62   64 1    
   126   62  185 1    
   127   63  186 1    
   128   63  187 1    
   129   63  188 1    
   130   64   65 am   BACKBONE|DICT|INTERRES
   131   64  189 1    
   132   65   66 2    
   133   67   68 2    
   134   67   69 am   BACKBONE|DICT|INTERRES
   135   69   70 1    
   136   69  190 1    
   137   70   71 1    
   138   70   72 1    
   139   70  191 1    
   140   71  192 1    
   141   71  193 1    
   142   71  194 1    
   143   72   73 2    
   144   72   74 am   BACKBONE|DICT|INTERRES
   145   74   75 1    
   146   74  195 1    
   147   75   76 1    
   148   75   77 1    
   149   75  196 1    
   150   76  197 1    
   151   76  198 1    
   152   76  199 1    
   153   77   78 2    
   154   77   79 am   BACKBONE|DICT|INTERRES
   155   79   80 1    
   156   79  200 1    
   157   80   81 1    
   158   80   82 1    
   159   80  201 1    
   160   81  202 1    
   161   81  203 1    
   162   81  204 1    
   163   82   83 2    
   164   82   84 am   BACKBONE|DICT|INTERRES
   165   84   85 1    
   166   84  205 1    
   167   85   86 1    
   168   85   87 1    
   169   85  206 1    
   170   86  207 1    
   171   86  208 1    
   172   86  209 1    
   173   87   88 2    
   174   87   89 am   BACKBONE|DICT|INTERRES
   175   89   90 1    
   176   89  210 1    
   177   90   91 1    
   178   90   92 1    
   179   90  211 1    
   180   91  212 1    
   181   91  213 1    
   182   91  214 1    
   183   92   93 2    
   184   92   94 am   BACKBONE|DICT|INTERRES
   185   94   95 1    
   186   94  215 1    
   187   95   96 1    
   188   95   97 1    
   189   95  216 1    
   190   96  217 1    
   191   96  218 1    
   192   96  219 1    
   193   97   98 2    
   194   97   99 am   BACKBONE|DICT|INTERRES
   195   99  100 1    
   196   99  220 1    
   197  100  101 1    
   198  100  102 1    
   199  100  221 1    
   200  101  222 1    
   201  101  223 1    
   202  101  224 1    
   203  102  103 2    
   204  102  104 am   BACKBONE|DICT|INTERRES
   205  104  105 1    
   206  104  225 1    
   207  105  106 1    
   208  105  107 1    
   209  105  226 1    
   210  106  227 1    
   211  106  228 1    
   212  106  229 1    
   213  107  108 2    
   214  107  109 am   BACKBONE|DICT|INTERRES
   215  109  110 1    
   216  109  230 1    
   217  110  111 1    
   218  110  112 1    
   219  110  231 1    
   220  111  232 1    
   221  111  233 1    
   222  111  234 1    
   223  112  113 2    
   224  112  114 am   BACKBONE|DICT|INTERRES
   225  114  115 1    
   226  114  235 1    
   227  115  116 1    
   228  115  117 1    
   229  115  236 1    
   230  116  237 1    
   231  116  238 1    
   232  116  239 1    
   233  117  118 2    
   234  117  119 am   BACKBONE|DICT|INTERRES
   235  119  120 1    
   236  119  240 1    
   237  120  121 1    
   238  120  124 1    
   239  120  241 1    
   240  121  122 am   BACKBONE|DICT|INTERRES
   241  121  123 2    
   242  122  242 1    
   243  122  243 1    
   244  124  125 1    
   245  124  244 1    
   246  124  245 1    
   247  125  126 1    
   248  126  246 1    
   249  126  247 1    
@<TRIPOS>SUBSTRUCTURE
     1 UNK         1 GROUP             0       ****    0 ROOT    
