@<TRIPOS>MOLECULE
3R540
247   249    1
SMALL
USER_CHARGES


@<TRIPOS>ATOM
      1 CA          4.5469  -17.0559  -46.7802 C.3       0 UNK        -0.1800 
      2 C           4.1226  -17.2759  -48.2315 C.2       0 UNK         0.5000 
      3 O           4.5015  -18.2878  -48.8164 O.2       0 UNK        -0.5000 
      4 N           3.3391  -16.3856  -48.8580 N.am      1 UNK        -0.5000 
      5 CA          2.8870  -15.0754  -48.3747 C.3       1 UNK         0.1400 
      6 C6          1.8659  -14.4362  -49.3522 C.3       23 UNK        -0.0398 
      7 S7          0.1338  -14.9006  -49.0104 S.3       23 UNK        -0.2404 
      8 C8          0.0728  -16.6687  -49.4426 C.3       23 UNK        -0.0205 
      9 C9         -1.3493  -17.1150  -49.7608 C.ar      23 UNK        -0.0193 
     10 C10        -1.6792  -17.5387  -51.0524 C.ar      23 UNK        -0.1150 
     11 C11        -2.9839  -17.9453  -51.3652 C.ar      23 UNK        -0.0193 
     12 C12        -3.9624  -17.8929  -50.3689 C.ar      23 UNK        -0.1150 
     13 C13        -3.6520  -17.4671  -49.0754 C.ar      23 UNK        -0.0193 
     14 C14        -2.3387  -17.0952  -48.7723 C.ar      23 UNK        -0.1150 
     15 C15        -4.7498  -17.3761  -48.0245 C.3       23 UNK        -0.0205 
     16 S16        -5.1936  -19.0047  -47.3420 S.3       23 UNK        -0.2404 
     17 C17        -3.7136  -19.3915  -46.3545 C.3       23 UNK        -0.0398 
     18 CA         -2.7769  -20.3987  -47.0635 C.3       11 UNK         0.1400 
     19 N          -1.3942  -20.2830  -46.5963 N.am      11 UNK        -0.5000 
     20 C          -0.3631  -21.0259  -47.0210 C.2       10 UNK         0.5000 
     21 O          -0.4481  -21.8769  -47.9070 O.2       10 UNK        -0.5000 
     22 CA          0.9802  -20.8324  -46.2990 C.3       10 UNK         0.1400 
     23 CB          1.8050  -19.7395  -46.9898 C.3       10 UNK        -0.1800 
     24 N           0.8423  -20.5192  -44.8744 N.am      10 UNK        -0.5000 
     25 C           0.2676  -21.3140  -43.9596 C.2       9 UNK         0.5000 
     26 O          -0.2319  -22.4089  -44.2201 O.2       9 UNK        -0.5000 
     27 CA          0.1929  -20.7739  -42.5207 C.3       9 UNK         0.1400 
     28 CB          1.5711  -20.8029  -41.8429 C.3       9 UNK        -0.1800 
     29 N          -0.3587  -19.4207  -42.4694 N.am      9 UNK        -0.5000 
     30 C          -1.6197  -19.1085  -42.8021 C.2       8 UNK         0.5000 
     31 O          -2.4701  -19.9393  -43.1245 O.2       8 UNK        -0.5000 
     32 CA         -1.9820  -17.6119  -42.8195 C.3       8 UNK         0.1400 
     33 CB         -2.3095  -17.1137  -41.4041 C.3       8 UNK        -0.1800 
     34 N          -0.9329  -16.7756  -43.4061 N.am      8 UNK        -0.5000 
     35 C          -0.4940  -16.8858  -44.6683 C.2       7 UNK         0.5000 
     36 O          -0.9409  -17.6902  -45.4820 O.2       7 UNK        -0.5000 
     37 CA          0.6805  -15.9896  -45.0822 C.3       7 UNK         0.1400 
     38 CB          0.2103  -14.5512  -45.3448 C.3       7 UNK        -0.1800 
     39 N           1.7564  -15.9854  -44.0951 N.am      7 UNK        -0.5000 
     40 C           2.4575  -17.0611  -43.7114 C.2       6 UNK         0.5000 
     41 O           2.3156  -18.1822  -44.1952 O.2       6 UNK        -0.5000 
     42 CA          3.4570  -16.8534  -42.5635 C.3       6 UNK         0.1400 
     43 CB          4.7577  -16.2134  -43.0743 C.3       6 UNK        -0.1800 
     44 N           2.8860  -16.0342  -41.4952 N.am      6 UNK        -0.5000 
     45 C           1.8801  -16.4237  -40.6986 C.2       5 UNK         0.5000 
     46 O           1.3493  -17.5334  -40.7564 O.2       5 UNK        -0.5000 
     47 CA          1.3583  -15.3798  -39.6946 C.3       5 UNK         0.1400 
     48 CB          2.2300  -15.3600  -38.4302 C.3       5 UNK        -0.1800 
     49 N           1.2998  -14.0327  -40.2662 N.am      5 UNK        -0.5000 
     50 C           0.4479  -13.6628  -41.2326 C.2       4 UNK         0.5000 
     51 O          -0.3907  -14.4149  -41.7289 O.2       4 UNK        -0.5000 
     52 CA          0.5906  -12.2246  -41.7672 C.3       4 UNK         0.1400 
     53 CB         -0.1457  -11.2327  -40.8545 C.3       4 UNK        -0.1800 
     54 N           1.9815  -11.7890  -41.9415 N.am      4 UNK        -0.5000 
     55 C           2.8718  -12.3971  -42.7358 C.2       3 UNK         0.5000 
     56 O           2.6344  -13.4414  -43.3464 O.2       3 UNK        -0.5000 
     57 CA          4.2711  -11.7597  -42.8397 C.3       3 UNK         0.1400 
     58 CB          5.1286  -12.1644  -41.6304 C.3       3 UNK        -0.1800 
     59 N           4.9542  -12.1907  -44.0613 N.am      3 UNK        -0.5000 
     60 C           4.5820  -11.8522  -45.3026 C.2       2 UNK         0.5000 
     61 O           3.7403  -10.9877  -45.5525 O.2       2 UNK        -0.5000 
     62 CA          5.1918  -12.6560  -46.4606 C.3       2 UNK         0.1400 
     63 CB          6.4577  -13.4591  -46.0848 C.3       2 UNK        -0.1800 
     64 N           4.1450  -13.5553  -46.9311 N.am      2 UNK        -0.5000 
     65 C           4.0899  -14.1385  -48.1324 C.2       1 UNK         0.5000 
     66 O           4.9296  -13.9765  -49.0201 O.2       1 UNK        -0.5000 
     67 C          -3.3167  -21.8378  -46.9351 C.2       11 UNK         0.5000 
     68 O          -3.9234  -22.3507  -47.8750 O.2       11 UNK        -0.5000 
     69 N          -3.0474  -22.4734  -45.7885 N.am      12 UNK        -0.5000 
     70 CA         -3.3966  -23.8634  -45.5250 C.3       12 UNK         0.1400 
     71 CB         -3.5376  -24.0709  -44.0090 C.3       12 UNK        -0.1800 
     72 C          -2.3603  -24.8310  -46.1197 C.2       12 UNK         0.5000 
     73 O          -2.7391  -25.7623  -46.8293 O.2       12 UNK        -0.5000 
     74 N          -1.0794  -24.6086  -45.7969 N.am      13 UNK        -0.5000 
     75 CA          0.0075  -25.5572  -46.0367 C.3       13 UNK         0.1400 
     76 CB          1.2158  -25.1687  -45.1703 C.3       13 UNK        -0.1800 
     77 C           0.4316  -25.6900  -47.5082 C.2       13 UNK         0.5000 
     78 O           0.7400  -26.8016  -47.9405 O.2       13 UNK        -0.5000 
     79 N           0.4724  -24.5689  -48.2379 N.am      14 UNK        -0.5000 
     80 CA          0.9743  -24.5036  -49.6103 C.3       14 UNK         0.1400 
     81 CB          2.0186  -23.3796  -49.7214 C.3       14 UNK        -0.1800 
     82 C          -0.1673  -24.2875  -50.6110 C.2       14 UNK         0.5000 
     83 O          -0.2127  -24.9758  -51.6311 O.2       14 UNK        -0.5000 
     84 N          -1.0711  -23.3457  -50.3079 N.am      15 UNK        -0.5000 
     85 CA         -2.1701  -22.9607  -51.1960 C.3       15 UNK         0.1400 
     86 CB         -2.5182  -21.4849  -50.9726 C.3       15 UNK        -0.1800 
     87 C          -3.4206  -23.8521  -51.0702 C.2       15 UNK         0.5000 
     88 O          -4.3638  -23.6524  -51.8363 O.2       15 UNK        -0.5000 
     89 N          -3.4095  -24.8102  -50.1303 N.am      16 UNK        -0.5000 
     90 CA         -4.4335  -25.8357  -49.8979 C.3       16 UNK         0.1400 
     91 CB         -4.4921  -26.8152  -51.0893 C.3       16 UNK        -0.1800 
     92 C          -5.8104  -25.2433  -49.5330 C.2       16 UNK         0.5000 
     93 O          -6.8221  -25.6040  -50.1345 O.2       16 UNK        -0.5000 
     94 N          -5.8095  -24.3201  -48.5622 N.am      17 UNK        -0.5000 
     95 CA         -6.9444  -23.5160  -48.0936 C.3       17 UNK         0.1400 
     96 CB         -8.0642  -24.3972  -47.5013 C.3       17 UNK        -0.1800 
     97 C          -7.4286  -22.5422  -49.1857 C.2       17 UNK         0.5000 
     98 O          -8.6294  -22.4238  -49.4330 O.2       17 UNK        -0.5000 
     99 N          -6.4538  -21.8877  -49.8340 N.am      18 UNK        -0.5000 
    100 CA        -6.5786  -20.9292  -50.9393 C.3       18 UNK         0.1400 
    101 CB        -7.4144  -19.7013  -50.5223 C.3       18 UNK        -0.1800 
    102 C         -7.0815  -21.5253  -52.2725 C.2       18 UNK         0.5000 
    103 O         -7.2796  -20.7681  -53.2244 O.2       18 UNK        -0.5000 
    104 N         -7.2448  -22.8541  -52.3536 N.am      19 UNK        -0.5000 
    105 CA        -7.7125  -23.5832  -53.5370 C.3       19 UNK         0.1400 
    106 CB        -7.9213  -25.0596  -53.1733 C.3       19 UNK        -0.1800 
    107 C         -6.7820  -23.4581  -54.7591 C.2       19 UNK         0.5000 
    108 O         -7.2518  -23.5815  -55.8909 O.2       19 UNK        -0.5000 
    109 N         -5.4927  -23.1848  -54.5159 N.am      20 UNK        -0.5000 
    110 CA        -4.4880  -22.8906  -55.5384 C.3       20 UNK         0.1400 
    111 CB        -3.0998  -22.8955  -54.8815 C.3       20 UNK        -0.1800 
    112 C         -4.7141  -21.5560  -56.2808 C.2       20 UNK         0.5000 
    113 O         -4.1169  -21.3618  -57.3405 O.2       20 UNK        -0.5000 
    114 N         -5.5315  -20.6531  -55.7130 N.am      21 UNK        -0.5000 
    115 CA        -5.9038  -19.3076  -56.1810 C.3       21 UNK         0.1400 
    116 CB        -6.5945  -19.3588  -57.5567 C.3       21 UNK        -0.1800 
    117 C         -4.7560  -18.2759  -56.1687 C.2       21 UNK         0.5000 
    118 O         -4.9845  -17.1275  -55.7882 O.2       21 UNK        -0.5000 
    119 N         -3.5476  -18.7082  -56.5438 N.am      22 UNK        -0.5000 
    120 CA        -2.2666  -17.9840  -56.4558 C.3       22 UNK         0.1400 
    121 C         -2.1118  -16.7900  -57.4465 C.2       22 UNK         0.5000 
    122 N         -2.9544  -16.6609  -58.4640 N.am      22 UNK        -0.7600 
    123 O         -1.1955  -15.9829  -57.3142 O.2       22 UNK        -0.5000 
    124 C124       -1.8686  -17.6037  -54.9989 C.3       23 UNK        -0.0398 
    125 S125       -2.0252  -18.9997  -53.8255 S.3       23 UNK        -0.2404 
    126 C126       -3.3955  -18.4236  -52.7590 C.3       23 UNK        -0.0205 
    127 H127        3.8093  -16.4938  -46.2128 H         1 UNK         0.0600 
    128 H128        5.4960  -16.5217  -46.7413 H         1 UNK         0.0600 
    129 H129        4.6797  -18.0137  -46.2770 H         1 UNK         0.0600 
    130 H130        3.1121  -16.5749  -49.8226 H         1 UNK         0.3000 
    131 H131        2.3882  -15.2249  -47.4188 H         1 UNK         0.0600 
    132 H132        1.8895  -13.3465  -49.2839 H         1 UNK         0.0800 
    133 H133        2.1099  -14.6641  -50.3912 H         1 UNK         0.0800 
    134 H134        0.4595  -17.2579  -48.6105 H         1 UNK         0.0800 
    135 H135        0.7293  -16.8579  -50.2929 H         1 UNK         0.0800 
    136 H136       -0.9115  -17.5451  -51.8118 H         1 UNK         0.1150 
    137 H137       -4.9780  -18.1776  -50.6012 H         1 UNK         0.1150 
    138 H138       -2.0880  -16.7634  -47.7745 H         1 UNK         0.1150 
    139 H139       -4.4578  -16.7041  -47.2159 H         1 UNK         0.0800 
    140 H140       -5.6397  -16.9342  -48.4751 H         1 UNK         0.0800 
    141 H141       -4.0247  -19.7535  -45.3731 H         1 UNK         0.0800 
    142 H142       -3.1944  -18.4554  -46.1626 H         1 UNK         0.0800 
    143 H143       -2.7460  -20.1441  -48.1229 H         1 UNK         0.0600 
    144 H144       -1.2070  -19.5438  -45.9247 H         1 UNK         0.3000 
    145 H145        1.5294  -21.7725  -46.3778 H         1 UNK         0.0600 
    146 H146        2.8082  -19.6841  -46.5680 H         1 UNK         0.0600 
    147 H147        1.9123  -19.9389  -48.0569 H         1 UNK         0.0600 
    148 H148        1.3420  -18.7587  -46.8811 H         1 UNK         0.0600 
    149 H149        1.2448  -19.6345  -44.5711 H         1 UNK         0.3000 
    150 H150       -0.4727  -21.4293  -41.9552 H         1 UNK         0.0600 
    151 H151        1.9917  -21.8091  -41.8572 H         1 UNK         0.0600 
    152 H152        1.5020  -20.4933  -40.7999 H         1 UNK         0.0600 
    153 H153        2.2826  -20.1423  -42.3384 H         1 UNK         0.0600 
    154 H154        0.2709  -18.6802  -42.1808 H         1 UNK         0.3000 
    155 H155       -2.8767  -17.4974  -43.4350 H         1 UNK         0.0600 
    156 H156       -1.4383  -17.1584  -40.7499 H         1 UNK         0.0600 
    157 H157       -3.0954  -17.7174  -40.9486 H         1 UNK         0.0600 
    158 H158       -2.6611  -16.0820  -41.4217 H         1 UNK         0.0600 
    159 H159       -0.5383  -16.0552  -42.8084 H         1 UNK         0.3000 
    160 H160        1.0807  -16.3989  -46.0104 H         1 UNK         0.0600 
    161 H161       -0.1606  -14.0766  -44.4367 H         1 UNK         0.0600 
    162 H162       -0.5987  -14.5319  -46.0757 H         1 UNK         0.0600 
    163 H163        1.0184  -13.9332  -45.7352 H         1 UNK         0.0600 
    164 H164        1.9750  -15.0871  -43.6678 H         1 UNK         0.3000 
    165 H165        3.6997  -17.8336  -42.1477 H         1 UNK         0.0600 
    166 H166        5.4752  -16.0778  -42.2651 H         1 UNK         0.0600 
    167 H167        5.2323  -16.8468  -43.8246 H         1 UNK         0.0600 
    168 H168        4.5819  -15.2408  -43.5332 H         1 UNK         0.0600 
    169 H169        3.2238  -15.0871  -41.4179 H         1 UNK         0.3000 
    170 H170        0.3464  -15.6728  -39.4063 H         1 UNK         0.0600 
    171 H171        2.2783  -16.3500  -37.9747 H         1 UNK         0.0600 
    172 H172        3.2523  -15.0484  -38.6481 H         1 UNK         0.0600 
    173 H173        1.8235  -14.6790  -37.6822 H         1 UNK         0.0600 
    174 H174        1.9600  -13.3541  -39.9168 H         1 UNK         0.3000 
    175 H175        0.1148  -12.1955  -42.7496 H         1 UNK         0.0600 
    176 H176        0.3097  -11.1797  -39.8648 H         1 UNK         0.0600 
    177 H177       -0.1435  -10.2289  -41.2797 H         1 UNK         0.0600 
    178 H178       -1.1884  -11.5247  -40.7211 H         1 UNK         0.0600 
    179 H179        2.2516  -10.9441  -41.4587 H         1 UNK         0.3000 
    180 H180        4.1646  -10.6732  -42.8592 H         1 UNK         0.0600 
    181 H181        5.2566  -13.2461  -41.5698 H         1 UNK         0.0600 
    182 H182        4.6730  -11.8347  -40.6959 H         1 UNK         0.0600 
    183 H183        6.1195  -11.7127  -41.6821 H         1 UNK         0.0600 
    184 H184        5.6349  -12.9274  -43.9538 H         1 UNK         0.3000 
    185 H185        5.4441  -11.9460  -47.2509 H         1 UNK         0.0600 
    186 H186        7.2217  -12.8115  -45.6527 H         1 UNK         0.0600 
    187 H187        6.2429  -14.2537  -45.3693 H         1 UNK         0.0600 
    188 H188        6.8994  -13.9257  -46.9654 H         1 UNK         0.0600 
    189 H189        3.3916  -13.6959  -46.2710 H         1 UNK         0.3000 
    190 H190       -2.4962  -21.9992  -45.0849 H         1 UNK         0.3000 
    191 H191       -4.3649  -24.0844  -45.9788 H         1 UNK         0.0600 
    192 H192       -2.6149  -23.8332  -43.4780 H         1 UNK         0.0600 
    193 H193       -3.7934  -25.1058  -43.7783 H         1 UNK         0.0600 
    194 H194       -4.3279  -23.4416  -43.5994 H         1 UNK         0.0600 
    195 H195       -0.8486  -23.8002  -45.2220 H         1 UNK         0.3000 
    196 H196       -0.3335  -26.5411  -45.7069 H         1 UNK         0.0600 
    197 H197        2.0303  -25.8843  -45.2897 H         1 UNK         0.0600 
    198 H198        0.9529  -25.1492  -44.1125 H         1 UNK         0.0600 
    199 H199        1.6019  -24.1842  -45.4368 H         1 UNK         0.0600 
    200 H200        0.1486  -23.6951  -47.8350 H         1 UNK         0.3000 
    201 H201        1.4737  -25.4361  -49.8814 H         1 UNK         0.0600 
    202 H202        2.8482  -23.5456  -49.0341 H         1 UNK         0.0600 
    203 H203        1.5946  -22.3999  -49.5012 H         1 UNK         0.0600 
    204 H204        2.4350  -23.3351  -50.7285 H         1 UNK         0.0600 
    205 H205       -0.9566  -22.8055  -49.4534 H         1 UNK         0.3000 
    206 H206       -1.8236  -23.0523  -52.2266 H         1 UNK         0.0600 
    207 H207       -1.6384  -20.8466  -51.0567 H         1 UNK         0.0600 
    208 H208       -3.2351  -21.1502  -51.7200 H         1 UNK         0.0600 
    209 H209       -2.9668  -21.3162  -49.9987 H         1 UNK         0.0600 
    210 H210       -2.5994  -24.8579  -49.5289 H         1 UNK         0.3000 
    211 H211       -4.1099  -26.4067  -49.0274 H         1 UNK         0.0600 
    212 H212       -4.8244  -26.3244  -52.0043 H         1 UNK         0.0600 
    213 H213       -5.1827  -27.6350  -50.8885 H         1 UNK         0.0600 
    214 H214       -3.5142  -27.2557  -51.2836 H         1 UNK         0.0600 
    215 H215       -4.9080  -24.0072  -48.2153 H         1 UNK         0.3000 
    216 H216       -6.5628  -22.8939  -47.2828 H         1 UNK         0.0600 
    217 H217       -8.8301  -23.7823  -47.0275 H         1 UNK         0.0600 
    218 H218       -7.6731  -25.0722  -46.7401 H         1 UNK         0.0600 
    219 H219       -8.5593  -24.9997  -48.2631 H         1 UNK         0.0600 
    220 H220       -5.5055  -22.0789  -49.5342 H         1 UNK         0.3000 
    221 H221       -5.5640  -20.5825  -51.1344 H         1 UNK         0.0600 
    222 H222       -8.4692  -19.9495  -50.4035 H         1 UNK         0.0600 
    223 H223       -7.0634  -19.2801  -49.5819 H         1 UNK         0.0600 
    224 H224       -7.3514  -18.9119  -51.2722 H         1 UNK         0.0600 
    225 H225       -7.0071  -23.4145  -51.5465 H         1 UNK         0.3000 
    226 H226       -8.6790  -23.1615  -53.8196 H         1 UNK         0.0600 
    227 H227       -8.6209  -25.1680  -52.3442 H         1 UNK         0.0600 
    228 H228       -8.3277  -25.6177  -54.0176 H         1 UNK         0.0600 
    229 H229       -6.9835  -25.5357  -52.8860 H         1 UNK         0.0600 
    230 H230       -5.1797  -23.1732  -53.5484 H         1 UNK         0.3000 
    231 H231       -4.5191  -23.6888  -56.2826 H         1 UNK         0.0600 
    232 H232       -2.8957  -23.8499  -54.3957 H         1 UNK         0.0600 
    233 H233       -3.0126  -22.1073  -54.1330 H         1 UNK         0.0600 
    234 H234       -2.3141  -22.7330  -55.6203 H         1 UNK         0.0600 
    235 H235       -5.9658  -20.9135  -54.8340 H         1 UNK         0.3000 
    236 H236       -6.6431  -18.9515  -55.4616 H         1 UNK         0.0600 
    237 H237       -5.9144  -19.6801  -58.3458 H         1 UNK         0.0600 
    238 H238       -7.4428  -20.0432  -57.5453 H         1 UNK         0.0600 
    239 H239       -6.9738  -18.3752  -57.8364 H         1 UNK         0.0600 
    240 H240       -3.4920  -19.6661  -56.8785 H         1 UNK         0.3000 
    241 H241       -1.5255  -18.7071  -56.7975 H         1 UNK         0.0600 
    242 H242       -2.8443  -15.8935  -59.1084 H         1 UNK         0.3800 
    243 H243       -3.7060  -17.3200  -58.5893 H         1 UNK         0.3800 
    244 H244       -2.4536  -16.7503  -54.6543 H         1 UNK         0.0800 
    245 H245       -0.8287  -17.2748  -54.9714 H         1 UNK         0.0800 
    246 H246       -4.1025  -19.2476  -52.6637 H         1 UNK         0.0800 
    247 H247       -3.9522  -17.6238  -53.2468 H         1 UNK         0.0800 
@<TRIPOS>BOND
     1    1    2 1    
     2    1  127 1    
     3    1  128 1    
     4    1  129 1    
     5    2    3 2    
     6    2    4 am   BACKBONE|DICT|INTERRES
     7    4    5 1    
     8    4  130 1    
     9    5    6 1    
    10    5   65 1    
    11    5  131 1    
    12    6    7 1    
    13    6  132 1    
    14    6  133 1    
    15    7    8 1    
    16    8    9 1    
    17    8  134 1    
    18    8  135 1    
    19    9   10 ar   
    20    9   14 ar   
    21   10   11 ar   
    22   10  136 1    
    23   11   12 ar   
    24   11  126 1    
    25   12   13 ar   
    26   12  137 1    
    27   13   14 ar   
    28   13   15 1    
    29   14  138 1    
    30   15   16 1    
    31   15  139 1    
    32   15  140 1    
    33   16   17 1    
    34   17   18 1    
    35   17  141 1    
    36   17  142 1    
    37   18   19 1    
    38   18   67 1    
    39   18  143 1    
    40   19   20 am   BACKBONE|DICT|INTERRES
    41   19  144 1    
    42   20   21 2    
    43   20   22 1    
    44   22   23 1    
    45   22   24 1    
    46   22  145 1    
    47   23  146 1    
    48   23  147 1    
    49   23  148 1    
    50   24   25 am   BACKBONE|DICT|INTERRES
    51   24  149 1    
    52   25   26 2    
    53   25   27 1    
    54   27   28 1    
    55   27   29 1    
    56   27  150 1    
    57   28  151 1    
    58   28  152 1    
    59   28  153 1    
    60   29   30 am   BACKBONE|DICT|INTERRES
    61   29  154 1    
    62   30   31 2    
    63   30   32 1    
    64   32   33 1    
    65   32   34 1    
    66   32  155 1    
    67   33  156 1    
    68   33  157 1    
    69   33  158 1    
    70   34   35 am   BACKBONE|DICT|INTERRES
    71   34  159 1    
    72   35   36 2    
    73   35   37 1    
    74   37   38 1    
    75   37   39 1    
    76   37  160 1    
    77   38  161 1    
    78   38  162 1    
    79   38  163 1    
    80   39   40 am   BACKBONE|DICT|INTERRES
    81   39  164 1    
    82   40   41 2    
    83   40   42 1    
    84   42   43 1    
    85   42   44 1    
    86   42  165 1    
    87   43  166 1    
    88   43  167 1    
    89   43  168 1    
    90   44   45 am   BACKBONE|DICT|INTERRES
    91   44  169 1    
    92   45   46 2    
    93   45   47 1    
    94   47   48 1    
    95   47   49 1    
    96   47  170 1    
    97   48  171 1    
    98   48  172 1    
    99   48  173 1    
   100   49   50 am   BACKBONE|DICT|INTERRES
   101   49  174 1    
   102   50   51 2    
   103   50   52 1    
   104   52   53 1    
   105   52   54 1    
   106   52  175 1    
   107   53  176 1    
   108   53  177 1    
   109   53  178 1    
   110   54   55 am   BACKBONE|DICT|INTERRES
   111   54  179 1    
   112   55   56 2    
   113   55   57 1    
   114   57   58 1    
   115   57   59 1    
   116   57  180 1    
   117   58  181 1    
   118   58  182 1    
   119   58  183 1    
   120   59   60 am   BACKBONE|DICT|INTERRES
   121   59  184 1    
   122   60   61 2    
   123   60   62 1    
   124   62   63 1    
   125   62   64 1    
   126   62  185 1    
   127   63  186 1    
   128   63  187 1    
   129   63  188 1    
   130   64   65 am   BACKBONE|DICT|INTERRES
   131   64  189 1    
   132   65   66 2    
   133   67   68 2    
   134   67   69 am   BACKBONE|DICT|INTERRES
   135   69   70 1    
   136   69  190 1    
   137   70   71 1    
   138   70   72 1    
   139   70  191 1    
   140   71  192 1    
   141   71  193 1    
   142   71  194 1    
   143   72   73 2    
   144   72   74 am   BACKBONE|DICT|INTERRES
   145   74   75 1    
   146   74  195 1    
   147   75   76 1    
   148   75   77 1    
   149   75  196 1    
   150   76  197 1    
   151   76  198 1    
   152   76  199 1    
   153   77   78 2    
   154   77   79 am   BACKBONE|DICT|INTERRES
   155   79   80 1    
   156   79  200 1    
   157   80   81 1    
   158   80   82 1    
   159   80  201 1    
   160   81  202 1    
   161   81  203 1    
   162   81  204 1    
   163   82   83 2    
   164   82   84 am   BACKBONE|DICT|INTERRES
   165   84   85 1    
   166   84  205 1    
   167   85   86 1    
   168   85   87 1    
   169   85  206 1    
   170   86  207 1    
   171   86  208 1    
   172   86  209 1    
   173   87   88 2    
   174   87   89 am   BACKBONE|DICT|INTERRES
   175   89   90 1    
   176   89  210 1    
   177   90   91 1    
   178   90   92 1    
   179   90  211 1    
   180   91  212 1    
   181   91  213 1    
   182   91  214 1    
   183   92   93 2    
   184   92   94 am   BACKBONE|DICT|INTERRES
   185   94   95 1    
   186   94  215 1    
   187   95   96 1    
   188   95   97 1    
   189   95  216 1    
   190   96  217 1    
   191   96  218 1    
   192   96  219 1    
   193   97   98 2    
   194   97   99 am   BACKBONE|DICT|INTERRES
   195   99  100 1    
   196   99  220 1    
   197  100  101 1    
   198  100  102 1    
   199  100  221 1    
   200  101  222 1    
   201  101  223 1    
   202  101  224 1    
   203  102  103 2    
   204  102  104 am   BACKBONE|DICT|INTERRES
   205  104  105 1    
   206  104  225 1    
   207  105  106 1    
   208  105  107 1    
   209  105  226 1    
   210  106  227 1    
   211  106  228 1    
   212  106  229 1    
   213  107  108 2    
   214  107  109 am   BACKBONE|DICT|INTERRES
   215  109  110 1    
   216  109  230 1    
   217  110  111 1    
   218  110  112 1    
   219  110  231 1    
   220  111  232 1    
   221  111  233 1    
   222  111  234 1    
   223  112  113 2    
   224  112  114 am   BACKBONE|DICT|INTERRES
   225  114  115 1    
   226  114  235 1    
   227  115  116 1    
   228  115  117 1    
   229  115  236 1    
   230  116  237 1    
   231  116  238 1    
   232  116  239 1    
   233  117  118 2    
   234  117  119 am   BACKBONE|DICT|INTERRES
   235  119  120 1    
   236  119  240 1    
   237  120  121 1    
   238  120  124 1    
   239  120  241 1    
   240  121  122 am   BACKBONE|DICT|INTERRES
   241  121  123 2    
   242  122  242 1    
   243  122  243 1    
   244  124  125 1    
   245  124  244 1    
   246  124  245 1    
   247  125  126 1    
   248  126  246 1    
   249  126  247 1    
@<TRIPOS>SUBSTRUCTURE
     1 UNK         1 GROUP             0       ****    0 ROOT    
