@<TRIPOS>MOLECULE
3R540
247   249    1
SMALL
USER_CHARGES


@<TRIPOS>ATOM
      1 CA          4.9973  -11.1496  -53.9827 C.3       0 UNK        -0.1800 
      2 C           5.4109  -11.5349  -52.5689 C.2       0 UNK         0.5000 
      3 O           6.3588  -10.9615  -52.0307 O.2       0 UNK        -0.5000 
      4 N           4.7108  -12.5074  -51.9717 N.am      1 UNK        -0.5000 
      5 CA          4.9153  -12.9618  -50.5921 C.3       1 UNK         0.1400 
      6 C6          4.3514  -14.3915  -50.3869 C.3       23 UNK        -0.0398 
      7 S7          5.2801  -15.3169  -49.1165 S.3       23 UNK        -0.2404 
      8 C8          3.9738  -15.7141  -47.9164 C.3       23 UNK        -0.0205 
      9 C9          3.1293  -16.8926  -48.3745 C.ar      23 UNK        -0.0193 
     10 C10         1.8588  -16.6870  -48.9189 C.ar      23 UNK        -0.1150 
     11 C11         1.0770  -17.7719  -49.3275 C.ar      23 UNK        -0.0193 
     12 C12         1.5808  -19.0692  -49.1967 C.ar      23 UNK        -0.1150 
     13 C13         2.8449  -19.2883  -48.6454 C.ar      23 UNK        -0.0193 
     14 C14         3.6168  -18.1957  -48.2404 C.ar      23 UNK        -0.1150 
     15 C15         3.3741  -20.7056  -48.4895 C.3       23 UNK        -0.0205 
     16 S16         3.5259  -21.1945  -46.7427 S.3       23 UNK        -0.2404 
     17 C17         1.7900  -21.1897  -46.1789 C.3       23 UNK        -0.0398 
     18 CA          1.1690  -22.6103  -46.1874 C.3       11 UNK         0.1400 
     19 N           0.3998  -22.8830  -44.9714 N.am      11 UNK        -0.5000 
     20 C           0.0788  -24.1095  -44.5391 C.2       10 UNK         0.5000 
     21 O           0.4088  -25.1462  -45.1155 O.2       10 UNK        -0.5000 
     22 CA         -0.7827  -24.1831  -43.2649 C.3       10 UNK         0.1400 
     23 CB          0.0962  -24.0774  -42.0098 C.3       10 UNK        -0.1800 
     24 N          -1.8152  -23.1450  -43.2245 N.am      10 UNK        -0.5000 
     25 C          -2.8712  -23.1106  -44.0483 C.2       9 UNK         0.5000 
     26 O          -3.0910  -23.9610  -44.9087 O.2       9 UNK        -0.5000 
     27 CA         -3.8207  -21.9063  -43.9213 C.3       9 UNK         0.1400 
     28 CB         -4.8690  -22.1599  -42.8279 C.3       9 UNK        -0.1800 
     29 N          -3.1502  -20.6292  -43.6640 N.am      9 UNK        -0.5000 
     30 C          -2.2199  -20.0736  -44.4510 C.2       8 UNK         0.5000 
     31 O          -1.7353  -20.6267  -45.4386 O.2       8 UNK        -0.5000 
     32 CA         -1.7540  -18.6576  -44.0771 C.3       8 UNK         0.1400 
     33 CB         -0.2192  -18.5819  -44.0310 C.3       8 UNK        -0.1800 
     34 N          -2.2666  -17.6768  -45.0343 N.am      8 UNK        -0.5000 
     35 C          -3.5584  -17.3256  -45.1454 C.2       7 UNK         0.5000 
     36 O          -4.4353  -17.7458  -44.3884 O.2       7 UNK        -0.5000 
     37 CA         -3.9206  -16.3154  -46.2521 C.3       7 UNK         0.1400 
     38 CB         -5.2172  -15.5352  -45.9634 C.3       7 UNK        -0.1800 
     39 N          -2.8203  -15.3789  -46.4620 N.am      7 UNK        -0.5000 
     40 C          -2.4232  -14.8974  -47.6444 C.2       6 UNK         0.5000 
     41 O          -3.0379  -15.0830  -48.6947 O.2       6 UNK        -0.5000 
     42 CA         -1.1180  -14.0718  -47.6771 C.3       6 UNK         0.1400 
     43 CB         -1.3787  -12.6442  -48.1802 C.3       6 UNK        -0.1800 
     44 N          -0.3780  -14.0010  -46.4109 N.am      6 UNK        -0.5000 
     45 C           0.2306  -15.0296  -45.8022 C.2       5 UNK         0.5000 
     46 O           0.1301  -16.1908  -46.1930 O.2       5 UNK        -0.5000 
     47 CA          1.0541  -14.7341  -44.5339 C.3       5 UNK         0.1400 
     48 CB          2.4910  -15.2646  -44.6604 C.3       5 UNK        -0.1800 
     49 N           1.1172  -13.3048  -44.2311 N.am      5 UNK        -0.5000 
     50 C           0.5463  -12.7104  -43.1749 C.2       4 UNK         0.5000 
     51 O          -0.1239  -13.3087  -42.3328 O.2       4 UNK        -0.5000 
     52 CA          0.7579  -11.1896  -43.0228 C.3       4 UNK         0.1400 
     53 CB          1.8508  -10.9039  -41.9813 C.3       4 UNK        -0.1800 
     54 N           1.1141  -10.5169  -44.2736 N.am      4 UNK        -0.5000 
     55 C           0.2926  -10.3607  -45.3201 C.2       3 UNK         0.5000 
     56 O          -0.8763  -10.7453  -45.3329 O.2       3 UNK        -0.5000 
     57 CA          0.8923   -9.7057  -46.5784 C.3       3 UNK         0.1400 
     58 CB          0.6606   -8.1875  -46.5529 C.3       3 UNK        -0.1800 
     59 N           2.3225   -9.9702  -46.7703 N.am      3 UNK        -0.5000 
     60 C           2.8774  -11.1799  -46.9301 C.2       2 UNK         0.5000 
     61 O           2.2581  -12.2421  -46.8396 O.2       2 UNK        -0.5000 
     62 CA          4.3948  -11.2037  -47.1902 C.3       2 UNK         0.1400 
     63 CB          5.1382  -11.6729  -45.9298 C.3       2 UNK        -0.1800 
     64 N           4.7723  -12.0661  -48.3117 N.am      2 UNK        -0.5000 
     65 C           4.3385  -11.9482  -49.5743 C.2       1 UNK         0.5000 
     66 O           3.5336  -11.0880  -49.9440 O.2       1 UNK        -0.5000 
     67 C           0.3187  -22.8696  -47.4471 C.2       11 UNK         0.5000 
     68 O           0.8201  -23.4380  -48.4165 O.2       11 UNK        -0.5000 
     69 N          -0.9704  -22.5066  -47.3856 N.am      12 UNK        -0.5000 
     70 CA         -1.9797  -22.8233  -48.3922 C.3       12 UNK         0.1400 
     71 CB         -3.3063  -22.1484  -48.0247 C.3       12 UNK        -0.1800 
     72 C          -2.1717  -24.3389  -48.5605 C.2       12 UNK         0.5000 
     73 O          -2.1665  -24.8183  -49.6913 O.2       12 UNK        -0.5000 
     74 N          -2.2764  -25.0730  -47.4429 N.am      13 UNK        -0.5000 
     75 CA         -2.3768  -26.5332  -47.4195 C.3       13 UNK         0.1400 
     76 CB         -2.6376  -27.0180  -45.9860 C.3       13 UNK        -0.1800 
     77 C          -1.1397  -27.2283  -48.0164 C.2       13 UNK         0.5000 
     78 O          -1.2958  -28.1899  -48.7687 O.2       13 UNK        -0.5000 
     79 N           0.0588  -26.7005  -47.7254 N.am      14 UNK        -0.5000 
     80 CA          1.3252  -27.1457  -48.3153 C.3       14 UNK         0.1400 
     81 CB          2.4976  -26.4728  -47.5854 C.3       14 UNK        -0.1800 
     82 C           1.4041  -26.8928  -49.8356 C.2       14 UNK         0.5000 
     83 O           1.9748  -27.7097  -50.5587 O.2       14 UNK        -0.5000 
     84 N           0.7954  -25.7916  -50.2956 N.am      15 UNK        -0.5000 
     85 CA          0.6335  -25.4366  -51.7078 C.3       15 UNK         0.1400 
     86 CB          0.4509  -23.9124  -51.8131 C.3       15 UNK        -0.1800 
     87 C          -0.5317  -26.1789  -52.4026 C.2       15 UNK         0.5000 
     88 O          -0.7004  -26.0200  -53.6124 O.2       15 UNK        -0.5000 
     89 N          -1.3109  -26.9613  -51.6393 N.am      16 UNK        -0.5000 
     90 CA         -2.5145  -27.7013  -52.0345 C.3       16 UNK         0.1400 
     91 CB         -2.1772  -28.8017  -53.0626 C.3       16 UNK        -0.1800 
     92 C          -3.6769  -26.7845  -52.4772 C.2       16 UNK         0.5000 
     93 O          -4.4328  -27.1369  -53.3852 O.2       16 UNK        -0.5000 
     94 N          -3.8031  -25.6284  -51.8179 N.am      17 UNK        -0.5000 
     95 CA         -4.8468  -24.6287  -52.0199 C.3       17 UNK         0.1400 
     96 CB         -4.1640  -23.2804  -52.3050 C.3       17 UNK        -0.1800 
     97 C          -5.7266  -24.5137  -50.7635 C.2       17 UNK         0.5000 
     98 O          -5.3430  -24.9717  -49.6842 O.2       17 UNK        -0.5000 
     99 N          -6.8850  -23.8615  -50.9178 N.am      18 UNK        -0.5000 
    100 CA        -7.7192  -23.4031  -49.8061 C.3       18 UNK         0.1400 
    101 CB        -9.1143  -23.0491  -50.3435 C.3       18 UNK        -0.1800 
    102 C         -7.0801  -22.1712  -49.1417 C.2       18 UNK         0.5000 
    103 O         -6.4269  -21.3878  -49.8336 O.2       18 UNK        -0.5000 
    104 N         -7.3059  -21.9897  -47.8340 N.am      19 UNK        -0.5000 
    105 CA        -6.7299  -20.9043  -47.0281 C.3       19 UNK         0.1400 
    106 CB        -7.1526  -21.0829  -45.5626 C.3       19 UNK        -0.1800 
    107 C         -7.0850  -19.4886  -47.5218 C.2       19 UNK         0.5000 
    108 O         -6.2488  -18.5900  -47.4428 O.2       19 UNK        -0.5000 
    109 N         -8.3078  -19.3280  -48.0452 N.am      20 UNK        -0.5000 
    110 CA        -8.8037  -18.0772  -48.6208 C.3       20 UNK         0.1400 
    111 CB       -10.3358  -18.1471  -48.7139 C.3       20 UNK        -0.1800 
    112 C         -8.1958  -17.7580  -50.0012 C.2       20 UNK         0.5000 
    113 O         -8.1328  -16.5853  -50.3721 O.2       20 UNK        -0.5000 
    114 N         -7.7753  -18.7947  -50.7386 N.am      21 UNK        -0.5000 
    115 CA        -7.1286  -18.6714  -52.0442 C.3       21 UNK         0.1400 
    116 CB        -7.4431  -19.9171  -52.8900 C.3       21 UNK        -0.1800 
    117 C         -5.6116  -18.4809  -51.8874 C.2       21 UNK         0.5000 
    118 O         -5.0446  -17.5757  -52.5009 O.2       21 UNK        -0.5000 
    119 N         -5.0038  -19.3266  -51.0456 N.am      22 UNK        -0.5000 
    120 CA        -3.5691  -19.4125  -50.7504 C.3       22 UNK         0.1400 
    121 C         -2.7030  -19.9430  -51.9344 C.2       22 UNK         0.5000 
    122 N         -1.4650  -20.3354  -51.6686 N.am      22 UNK        -0.7600 
    123 O         -3.1326  -20.0333  -53.0821 O.2       22 UNK        -0.5000 
    124 C124       -3.0271  -18.1032  -50.1134 C.3       23 UNK        -0.0398 
    125 S125       -1.6161  -18.3716  -48.9870 S.3       23 UNK        -0.2404 
    126 C126       -0.2978  -17.5462  -49.9362 C.3       23 UNK        -0.0205 
    127 H127        4.1559  -11.7460  -54.3363 H         1 UNK         0.0600 
    128 H128        5.8301  -11.2956  -54.6706 H         1 UNK         0.0600 
    129 H129        4.7068  -10.0995  -54.0151 H         1 UNK         0.0600 
    130 H130        3.9212  -12.9111  -52.4548 H         1 UNK         0.3000 
    131 H131        5.9958  -12.9965  -50.4336 H         1 UNK         0.0600 
    132 H132        4.4457  -14.9693  -51.3076 H         1 UNK         0.0800 
    133 H133        3.2839  -14.3722  -50.1614 H         1 UNK         0.0800 
    134 H134        3.3532  -14.8340  -47.7385 H         1 UNK         0.0800 
    135 H135        4.4414  -15.9594  -46.9620 H         1 UNK         0.0800 
    136 H136        1.4788  -15.6813  -49.0185 H         1 UNK         0.1150 
    137 H137        0.9810  -19.9103  -49.5137 H         1 UNK         0.1150 
    138 H138        4.5969  -18.3609  -47.8152 H         1 UNK         0.1150 
    139 H139        2.7372  -21.4226  -49.0102 H         1 UNK         0.0800 
    140 H140        4.3558  -20.7714  -48.9604 H         1 UNK         0.0800 
    141 H141        1.1930  -20.4702  -46.7420 H         1 UNK         0.0800 
    142 H142        1.8144  -20.7962  -45.1620 H         1 UNK         0.0800 
    143 H143        1.9805  -23.3416  -46.2039 H         1 UNK         0.0600 
    144 H144        0.0266  -22.0837  -44.4811 H         1 UNK         0.3000 
    145 H145       -1.2764  -25.1572  -43.2534 H         1 UNK         0.0600 
    146 H146       -0.4951  -24.2054  -41.1029 H         1 UNK         0.0600 
    147 H147        0.8654  -24.8509  -42.0066 H         1 UNK         0.0600 
    148 H148        0.6007  -23.1123  -41.9488 H         1 UNK         0.0600 
    149 H149       -1.7056  -22.4080  -42.5435 H         1 UNK         0.3000 
    150 H150       -4.3421  -21.8062  -44.8744 H         1 UNK         0.0600 
    151 H151       -5.4109  -23.0882  -43.0141 H         1 UNK         0.0600 
    152 H152       -5.6058  -21.3573  -42.7922 H         1 UNK         0.0600 
    153 H153       -4.4111  -22.2388  -41.8412 H         1 UNK         0.0600 
    154 H154       -3.5069  -20.0891  -42.8887 H         1 UNK         0.3000 
    155 H155       -2.1329  -18.4079  -43.0839 H         1 UNK         0.0600 
    156 H156        0.2217  -18.7228  -45.0189 H         1 UNK         0.0600 
    157 H157        0.1935  -19.3473  -43.3728 H         1 UNK         0.0600 
    158 H158        0.1150  -17.6173  -43.6521 H         1 UNK         0.0600 
    159 H159       -1.5948  -17.3173  -45.7047 H         1 UNK         0.3000 
    160 H160       -4.0703  -16.9072  -47.1571 H         1 UNK         0.0600 
    161 H161       -5.1354  -14.9472  -45.0488 H         1 UNK         0.0600 
    162 H162       -6.0650  -16.2118  -45.8492 H         1 UNK         0.0600 
    163 H163       -5.4574  -14.8554  -46.7810 H         1 UNK         0.0600 
    164 H164       -2.2523  -15.1743  -45.6526 H         1 UNK         0.3000 
    165 H165       -0.4685  -14.5615  -48.4033 H         1 UNK         0.0600 
    166 H166       -0.4414  -12.1107  -48.3344 H         1 UNK         0.0600 
    167 H167       -1.9035  -12.6506  -49.1364 H         1 UNK         0.0600 
    168 H168       -1.9857  -12.0745  -47.4761 H         1 UNK         0.0600 
    169 H169       -0.2729  -13.0806  -46.0081 H         1 UNK         0.3000 
    170 H170        0.5681  -15.2762  -43.7213 H         1 UNK         0.0600 
    171 H171        2.5087  -16.3086  -44.9768 H         1 UNK         0.0600 
    172 H172        3.0640  -14.6852  -45.3831 H         1 UNK         0.0600 
    173 H173        3.0123  -15.2072  -43.7049 H         1 UNK         0.0600 
    174 H174        1.6216  -12.7384  -44.9045 H         1 UNK         0.3000 
    175 H175       -0.1802  -10.7627  -42.6619 H         1 UNK         0.0600 
    176 H176        2.8190  -11.2952  -42.2966 H         1 UNK         0.0600 
    177 H177        1.9606   -9.8333  -41.8073 H         1 UNK         0.0600 
    178 H178        1.6075  -11.3637  -41.0224 H         1 UNK         0.0600 
    179 H179        2.0595  -10.1721  -44.3517 H         1 UNK         0.3000 
    180 H180        0.3649  -10.1118  -47.4426 H         1 UNK         0.0600 
    181 H181        1.1935   -7.7123  -45.7284 H         1 UNK         0.0600 
    182 H182       -0.3990   -7.9556  -46.4360 H         1 UNK         0.0600 
    183 H183        0.9920   -7.7216  -47.4811 H         1 UNK         0.0600 
    184 H184        2.9136   -9.1550  -46.8474 H         1 UNK         0.3000 
    185 H185        4.7277  -10.1920  -47.4306 H         1 UNK         0.0600 
    186 H186        4.8971  -11.0411  -45.0738 H         1 UNK         0.0600 
    187 H187        4.8739  -12.6980  -45.6655 H         1 UNK         0.0600 
    188 H188        6.2186  -11.6302  -46.0688 H         1 UNK         0.0600 
    189 H189        5.4039  -12.8232  -48.0930 H         1 UNK         0.3000 
    190 H190       -1.2891  -21.9751  -46.5777 H         1 UNK         0.3000 
    191 H191       -1.6387  -22.4145  -49.3452 H         1 UNK         0.0600 
    192 H192       -3.7375  -22.5729  -47.1191 H         1 UNK         0.0600 
    193 H193       -4.0362  -22.2804  -48.8234 H         1 UNK         0.0600 
    194 H194       -3.1783  -21.0783  -47.8613 H         1 UNK         0.0600 
    195 H195       -2.3358  -24.6008  -46.5451 H         1 UNK         0.3000 
    196 H196       -3.2375  -26.8104  -48.0320 H         1 UNK         0.0600 
    197 H197       -2.7206  -28.1049  -45.9496 H         1 UNK         0.0600 
    198 H198       -3.5696  -26.6087  -45.5962 H         1 UNK         0.0600 
    199 H199       -1.8347  -26.7264  -45.3088 H         1 UNK         0.0600 
    200 H200        0.1077  -25.9377  -47.0591 H         1 UNK         0.3000 
    201 H201        1.4034  -28.2232  -48.1567 H         1 UNK         0.0600 
    202 H202        2.4748  -26.6906  -46.5175 H         1 UNK         0.0600 
    203 H203        2.4821  -25.3899  -47.7060 H         1 UNK         0.0600 
    204 H204        3.4530  -26.8310  -47.9707 H         1 UNK         0.0600 
    205 H205        0.3953  -25.1450  -49.6245 H         1 UNK         0.3000 
    206 H206        1.5486  -25.7027  -52.2404 H         1 UNK         0.0600 
    207 H207        1.2806  -23.3816  -51.3457 H         1 UNK         0.0600 
    208 H208        0.4072  -23.5935  -52.8550 H         1 UNK         0.0600 
    209 H209       -0.4696  -23.5812  -51.3325 H         1 UNK         0.0600 
    210 H210       -1.0951  -27.0007  -50.6514 H         1 UNK         0.3000 
    211 H211       -2.8634  -28.2014  -51.1301 H         1 UNK         0.0600 
    212 H212       -1.8860  -28.3831  -54.0262 H         1 UNK         0.0600 
    213 H213       -3.0366  -29.4504  -53.2359 H         1 UNK         0.0600 
    214 H214       -1.3619  -29.4333  -52.7099 H         1 UNK         0.0600 
    215 H215       -3.1695  -25.4320  -51.0432 H         1 UNK         0.3000 
    216 H216       -5.4829  -24.8944  -52.8665 H         1 UNK         0.0600 
    217 H217       -4.8958  -22.4908  -52.4805 H         1 UNK         0.0600 
    218 H218       -3.5310  -23.3377  -53.1907 H         1 UNK         0.0600 
    219 H219       -3.5371  -22.9642  -51.4700 H         1 UNK         0.0600 
    220 H220       -7.1161  -23.4899  -51.8271 H         1 UNK         0.3000 
    221 H221       -7.8123  -24.2038  -49.0693 H         1 UNK         0.0600 
    222 H222       -9.0729  -22.2427  -51.0772 H         1 UNK         0.0600 
    223 H223       -9.5829  -23.9107  -50.8193 H         1 UNK         0.0600 
    224 H224       -9.7745  -22.7260  -49.5377 H         1 UNK         0.0600 
    225 H225       -7.8696  -22.6646  -47.3373 H         1 UNK         0.3000 
    226 H226       -5.6447  -20.9955  -47.0784 H         1 UNK         0.0600 
    227 H227       -6.8445  -22.0548  -45.1774 H         1 UNK         0.0600 
    228 H228       -6.6940  -20.3210  -44.9303 H         1 UNK         0.0600 
    229 H229       -8.2337  -21.0025  -45.4426 H         1 UNK         0.0600 
    230 H230       -8.9322  -20.1207  -48.0653 H         1 UNK         0.3000 
    231 H231       -8.5403  -17.2586  -47.9474 H         1 UNK         0.0600 
    232 H232      -10.7843  -18.3018  -47.7324 H         1 UNK         0.0600 
    233 H233      -10.6633  -18.9583  -49.3656 H         1 UNK         0.0600 
    234 H234      -10.7456  -17.2188  -49.1142 H         1 UNK         0.0600 
    235 H235       -7.7928  -19.7184  -50.3292 H         1 UNK         0.3000 
    236 H236       -7.5284  -17.8017  -52.5702 H         1 UNK         0.0600 
    237 H237       -6.9801  -19.8441  -53.8748 H         1 UNK         0.0600 
    238 H238       -7.0754  -20.8315  -52.4238 H         1 UNK         0.0600 
    239 H239       -8.5168  -20.0281  -53.0422 H         1 UNK         0.0600 
    240 H240       -5.5690  -20.0532  -50.6095 H         1 UNK         0.3000 
    241 H241       -3.5245  -20.1933  -49.9946 H         1 UNK         0.0600 
    242 H242       -1.0827  -20.2486  -50.7410 H         1 UNK         0.3800 
    243 H243       -0.8942  -20.6884  -52.4200 H         1 UNK         0.3800 
    244 H244       -3.8092  -17.6394  -49.5107 H         1 UNK         0.0800 
    245 H245       -2.7784  -17.3675  -50.8799 H         1 UNK         0.0800 
    246 H246       -0.5250  -16.4809  -49.9947 H         1 UNK         0.0800 
    247 H247       -0.2889  -17.9150  -50.9622 H         1 UNK         0.0800 
@<TRIPOS>BOND
     1    1    2 1    
     2    1  127 1    
     3    1  128 1    
     4    1  129 1    
     5    2    3 2    
     6    2    4 am   BACKBONE|DICT|INTERRES
     7    4    5 1    
     8    4  130 1    
     9    5    6 1    
    10    5   65 1    
    11    5  131 1    
    12    6    7 1    
    13    6  132 1    
    14    6  133 1    
    15    7    8 1    
    16    8    9 1    
    17    8  134 1    
    18    8  135 1    
    19    9   10 ar   
    20    9   14 ar   
    21   10   11 ar   
    22   10  136 1    
    23   11   12 ar   
    24   11  126 1    
    25   12   13 ar   
    26   12  137 1    
    27   13   14 ar   
    28   13   15 1    
    29   14  138 1    
    30   15   16 1    
    31   15  139 1    
    32   15  140 1    
    33   16   17 1    
    34   17   18 1    
    35   17  141 1    
    36   17  142 1    
    37   18   19 1    
    38   18   67 1    
    39   18  143 1    
    40   19   20 am   BACKBONE|DICT|INTERRES
    41   19  144 1    
    42   20   21 2    
    43   20   22 1    
    44   22   23 1    
    45   22   24 1    
    46   22  145 1    
    47   23  146 1    
    48   23  147 1    
    49   23  148 1    
    50   24   25 am   BACKBONE|DICT|INTERRES
    51   24  149 1    
    52   25   26 2    
    53   25   27 1    
    54   27   28 1    
    55   27   29 1    
    56   27  150 1    
    57   28  151 1    
    58   28  152 1    
    59   28  153 1    
    60   29   30 am   BACKBONE|DICT|INTERRES
    61   29  154 1    
    62   30   31 2    
    63   30   32 1    
    64   32   33 1    
    65   32   34 1    
    66   32  155 1    
    67   33  156 1    
    68   33  157 1    
    69   33  158 1    
    70   34   35 am   BACKBONE|DICT|INTERRES
    71   34  159 1    
    72   35   36 2    
    73   35   37 1    
    74   37   38 1    
    75   37   39 1    
    76   37  160 1    
    77   38  161 1    
    78   38  162 1    
    79   38  163 1    
    80   39   40 am   BACKBONE|DICT|INTERRES
    81   39  164 1    
    82   40   41 2    
    83   40   42 1    
    84   42   43 1    
    85   42   44 1    
    86   42  165 1    
    87   43  166 1    
    88   43  167 1    
    89   43  168 1    
    90   44   45 am   BACKBONE|DICT|INTERRES
    91   44  169 1    
    92   45   46 2    
    93   45   47 1    
    94   47   48 1    
    95   47   49 1    
    96   47  170 1    
    97   48  171 1    
    98   48  172 1    
    99   48  173 1    
   100   49   50 am   BACKBONE|DICT|INTERRES
   101   49  174 1    
   102   50   51 2    
   103   50   52 1    
   104   52   53 1    
   105   52   54 1    
   106   52  175 1    
   107   53  176 1    
   108   53  177 1    
   109   53  178 1    
   110   54   55 am   BACKBONE|DICT|INTERRES
   111   54  179 1    
   112   55   56 2    
   113   55   57 1    
   114   57   58 1    
   115   57   59 1    
   116   57  180 1    
   117   58  181 1    
   118   58  182 1    
   119   58  183 1    
   120   59   60 am   BACKBONE|DICT|INTERRES
   121   59  184 1    
   122   60   61 2    
   123   60   62 1    
   124   62   63 1    
   125   62   64 1    
   126   62  185 1    
   127   63  186 1    
   128   63  187 1    
   129   63  188 1    
   130   64   65 am   BACKBONE|DICT|INTERRES
   131   64  189 1    
   132   65   66 2    
   133   67   68 2    
   134   67   69 am   BACKBONE|DICT|INTERRES
   135   69   70 1    
   136   69  190 1    
   137   70   71 1    
   138   70   72 1    
   139   70  191 1    
   140   71  192 1    
   141   71  193 1    
   142   71  194 1    
   143   72   73 2    
   144   72   74 am   BACKBONE|DICT|INTERRES
   145   74   75 1    
   146   74  195 1    
   147   75   76 1    
   148   75   77 1    
   149   75  196 1    
   150   76  197 1    
   151   76  198 1    
   152   76  199 1    
   153   77   78 2    
   154   77   79 am   BACKBONE|DICT|INTERRES
   155   79   80 1    
   156   79  200 1    
   157   80   81 1    
   158   80   82 1    
   159   80  201 1    
   160   81  202 1    
   161   81  203 1    
   162   81  204 1    
   163   82   83 2    
   164   82   84 am   BACKBONE|DICT|INTERRES
   165   84   85 1    
   166   84  205 1    
   167   85   86 1    
   168   85   87 1    
   169   85  206 1    
   170   86  207 1    
   171   86  208 1    
   172   86  209 1    
   173   87   88 2    
   174   87   89 am   BACKBONE|DICT|INTERRES
   175   89   90 1    
   176   89  210 1    
   177   90   91 1    
   178   90   92 1    
   179   90  211 1    
   180   91  212 1    
   181   91  213 1    
   182   91  214 1    
   183   92   93 2    
   184   92   94 am   BACKBONE|DICT|INTERRES
   185   94   95 1    
   186   94  215 1    
   187   95   96 1    
   188   95   97 1    
   189   95  216 1    
   190   96  217 1    
   191   96  218 1    
   192   96  219 1    
   193   97   98 2    
   194   97   99 am   BACKBONE|DICT|INTERRES
   195   99  100 1    
   196   99  220 1    
   197  100  101 1    
   198  100  102 1    
   199  100  221 1    
   200  101  222 1    
   201  101  223 1    
   202  101  224 1    
   203  102  103 2    
   204  102  104 am   BACKBONE|DICT|INTERRES
   205  104  105 1    
   206  104  225 1    
   207  105  106 1    
   208  105  107 1    
   209  105  226 1    
   210  106  227 1    
   211  106  228 1    
   212  106  229 1    
   213  107  108 2    
   214  107  109 am   BACKBONE|DICT|INTERRES
   215  109  110 1    
   216  109  230 1    
   217  110  111 1    
   218  110  112 1    
   219  110  231 1    
   220  111  232 1    
   221  111  233 1    
   222  111  234 1    
   223  112  113 2    
   224  112  114 am   BACKBONE|DICT|INTERRES
   225  114  115 1    
   226  114  235 1    
   227  115  116 1    
   228  115  117 1    
   229  115  236 1    
   230  116  237 1    
   231  116  238 1    
   232  116  239 1    
   233  117  118 2    
   234  117  119 am   BACKBONE|DICT|INTERRES
   235  119  120 1    
   236  119  240 1    
   237  120  121 1    
   238  120  124 1    
   239  120  241 1    
   240  121  122 am   BACKBONE|DICT|INTERRES
   241  121  123 2    
   242  122  242 1    
   243  122  243 1    
   244  124  125 1    
   245  124  244 1    
   246  124  245 1    
   247  125  126 1    
   248  126  246 1    
   249  126  247 1    
@<TRIPOS>SUBSTRUCTURE
     1 UNK         1 GROUP             0       ****    0 ROOT    
