@<TRIPOS>MOLECULE
3R540
247   249    1
SMALL
USER_CHARGES


@<TRIPOS>ATOM
      1 CA         -0.6896   -8.5717  -43.3444 C.3       0 UNK        -0.1800 
      2 C          -0.1157   -9.8490  -43.9377 C.2       0 UNK         0.5000 
      3 O           1.0860  -10.0893  -43.8233 O.2       0 UNK        -0.5000 
      4 N          -0.9689  -10.6842  -44.5449 N.am      1 UNK        -0.5000 
      5 CA         -0.6126  -11.9267  -45.2505 C.3       1 UNK         0.1400 
      6 C6         -1.8361  -12.5510  -45.9697 C.3       23 UNK        -0.0398 
      7 S7         -2.6098  -11.4177  -47.1700 S.3       23 UNK        -0.2404 
      8 C8         -1.9528  -12.0587  -48.7489 C.3       23 UNK        -0.0205 
      9 C9         -2.6393  -13.3000  -49.3299 C.ar      23 UNK        -0.0193 
     10 C10        -2.2145  -13.7431  -50.5865 C.ar      23 UNK        -0.1150 
     11 C11        -2.8294  -14.8304  -51.2093 C.ar      23 UNK        -0.0193 
     12 C12        -3.8831  -15.4811  -50.5675 C.ar      23 UNK        -0.1150 
     13 C13        -4.3040  -15.0855  -49.2947 C.ar      23 UNK        -0.0193 
     14 C14        -3.6785  -13.9905  -48.6855 C.ar      23 UNK        -0.1150 
     15 C15        -5.4578  -15.7888  -48.5764 C.3       23 UNK        -0.0205 
     16 S16        -5.7529  -17.5277  -49.0742 S.3       23 UNK        -0.2404 
     17 C17        -4.2893  -18.3633  -48.3781 C.3       23 UNK        -0.0398 
     18 CA         -3.5890  -19.3521  -49.3493 C.3       11 UNK         0.1400 
     19 N          -2.2132  -19.6072  -48.9147 N.am      11 UNK        -0.5000 
     20 C          -1.3336  -20.4790  -49.4256 C.2       10 UNK         0.5000 
     21 O          -1.5448  -21.1528  -50.4345 O.2       10 UNK        -0.5000 
     22 CA         -0.0069  -20.6534  -48.6526 C.3       10 UNK         0.1400 
     23 CB          1.1336  -19.8677  -49.3101 C.3       10 UNK        -0.1800 
     24 N          -0.0858  -20.2644  -47.2412 N.am      10 UNK        -0.5000 
     25 C          -0.8385  -20.8687  -46.3100 C.2       9 UNK         0.5000 
     26 O          -1.5679  -21.8331  -46.5349 O.2       9 UNK        -0.5000 
     27 CA         -0.8105  -20.2499  -44.9043 C.3       9 UNK         0.1400 
     28 CB          0.4605  -20.6563  -44.1422 C.3       9 UNK        -0.1800 
     29 N          -0.9045  -18.7924  -44.9796 N.am      9 UNK        -0.5000 
     30 C          -2.0533  -18.1298  -45.1738 C.2       8 UNK         0.5000 
     31 O          -3.1542  -18.6767  -45.2288 O.2       8 UNK        -0.5000 
     32 CA         -1.9648  -16.6016  -45.3466 C.3       8 UNK         0.1400 
     33 CB         -2.0843  -15.9208  -43.9768 C.3       8 UNK        -0.1800 
     34 N          -0.7374  -16.1558  -46.0112 N.am      8 UNK        -0.5000 
     35 C          -0.4031  -16.4552  -47.2742 C.2       7 UNK         0.5000 
     36 O          -1.1143  -17.1081  -48.0319 O.2       7 UNK        -0.5000 
     37 CA          0.9891  -16.0141  -47.7555 C.3       7 UNK         0.1400 
     38 CB          0.9414  -14.6088  -48.3697 C.3       7 UNK        -0.1800 
     39 N           2.0111  -16.0571  -46.7101 N.am      7 UNK        -0.5000 
     40 C           2.3855  -17.1465  -46.0231 C.2       6 UNK         0.5000 
     41 O           1.8536  -18.2483  -46.1723 O.2       6 UNK        -0.5000 
     42 CA          3.5475  -16.9794  -45.0190 C.3       6 UNK         0.1400 
     43 CB          4.4494  -18.2254  -44.9849 C.3       6 UNK        -0.1800 
     44 N           4.3670  -15.8098  -45.3508 N.am      6 UNK        -0.5000 
     45 C           4.2538  -14.6033  -44.7844 C.2       5 UNK         0.5000 
     46 O           3.5541  -14.3713  -43.7963 O.2       5 UNK        -0.5000 
     47 CA          5.0183  -13.4596  -45.4714 C.3       5 UNK         0.1400 
     48 CB          4.6533  -13.3503  -46.9685 C.3       5 UNK        -0.1800 
     49 N           4.6866  -12.2114  -44.7973 N.am      5 UNK        -0.5000 
     50 C           5.3591  -11.0593  -44.8769 C.2       4 UNK         0.5000 
     51 O           6.3990  -10.9180  -45.5219 O.2       4 UNK        -0.5000 
     52 CA          4.7659   -9.8540  -44.1239 C.3       4 UNK         0.1400 
     53 CB          4.0686   -8.9015  -45.1080 C.3       4 UNK        -0.1800 
     54 N           3.8037  -10.2412  -43.0911 N.am      4 UNK        -0.5000 
     55 C           4.1346  -10.6782  -41.8693 C.2       3 UNK         0.5000 
     56 O           5.2962  -10.8201  -41.4855 O.2       3 UNK        -0.5000 
     57 CA          2.9763  -11.0140  -40.9196 C.3       3 UNK         0.1400 
     58 CB          2.3294   -9.7267  -40.3820 C.3       3 UNK        -0.1800 
     59 N           1.9538  -11.8184  -41.5895 N.am      3 UNK        -0.5000 
     60 C           1.6947  -13.1051  -41.3164 C.2       2 UNK         0.5000 
     61 O           2.3329  -13.7662  -40.4955 O.2       2 UNK        -0.5000 
     62 CA          0.4982  -13.7663  -42.0321 C.3       2 UNK         0.1400 
     63 CB         -0.5827  -14.1435  -41.0036 C.3       2 UNK        -0.1800 
     64 N          -0.1126  -12.8918  -43.0352 N.am      2 UNK        -0.5000 
     65 C           0.0673  -12.9905  -44.3585 C.2       1 UNK         0.5000 
     66 O           0.7162  -13.8883  -44.8942 O.2       1 UNK        -0.5000 
     67 C          -4.4157  -20.6496  -49.4920 C.2       11 UNK         0.5000 
     68 O          -5.0877  -20.8322  -50.5078 O.2       11 UNK        -0.5000 
     69 N          -4.3202  -21.5362  -48.4918 N.am      12 UNK        -0.5000 
     70 CA         -5.1111  -22.7599  -48.3766 C.3       12 UNK         0.1400 
     71 CB         -6.3952  -22.4679  -47.5782 C.3       12 UNK        -0.1800 
     72 C          -4.2675  -23.8957  -47.7740 C.2       12 UNK         0.5000 
     73 O          -4.7447  -24.6216  -46.8984 O.2       12 UNK        -0.5000 
     74 N          -3.0220  -24.0326  -48.2482 N.am      13 UNK        -0.5000 
     75 CA         -2.0651  -25.0378  -47.7810 C.3       13 UNK         0.1400 
     76 CB         -0.7012  -24.7953  -48.4427 C.3       13 UNK        -0.1800 
     77 C          -2.5380  -26.4831  -48.0239 C.2       13 UNK         0.5000 
     78 O          -3.2971  -26.7375  -48.9634 O.2       13 UNK        -0.5000 
     79 N          -2.0736  -27.3975  -47.1601 N.am      14 UNK        -0.5000 
     80 CA         -2.3814  -28.8332  -47.1492 C.3       14 UNK         0.1400 
     81 CB         -1.7494  -29.5271  -48.3748 C.3       14 UNK        -0.1800 
     82 C          -3.8924  -29.1182  -47.0059 C.2       14 UNK         0.5000 
     83 O          -4.4227  -29.9915  -47.6915 O.2       14 UNK        -0.5000 
     84 N          -4.5669  -28.3390  -46.1450 N.am      15 UNK        -0.5000 
     85 CA         -6.0212  -28.3274  -45.9295 C.3       15 UNK         0.1400 
     86 CB         -6.4887  -29.6323  -45.2510 C.3       15 UNK        -0.1800 
     87 C          -6.7938  -28.0034  -47.2272 C.2       15 UNK         0.5000 
     88 O          -7.7639  -28.6814  -47.5690 O.2       15 UNK        -0.5000 
     89 N          -6.3014  -26.9800  -47.9375 N.am      16 UNK        -0.5000 
     90 CA         -6.7497  -26.4675  -49.2338 C.3       16 UNK         0.1400 
     91 CB         -8.2153  -25.9907  -49.1777 C.3       16 UNK        -0.1800 
     92 C          -6.4753  -27.3926  -50.4386 C.2       16 UNK         0.5000 
     93 O          -6.8951  -27.0578  -51.5472 O.2       16 UNK        -0.5000 
     94 N          -5.7428  -28.5008  -50.2486 N.am      17 UNK        -0.5000 
     95 CA         -5.3112  -29.3827  -51.3393 C.3       17 UNK         0.1400 
     96 CB         -4.8679  -30.7390  -50.7728 C.3       17 UNK        -0.1800 
     97 C          -4.1911  -28.7639  -52.1998 C.2       17 UNK         0.5000 
     98 O          -4.0481  -29.1400  -53.3637 O.2       17 UNK        -0.5000 
     99 N          -3.4368  -27.8197  -51.6245 N.am      18 UNK        -0.5000 
    100 CA        -2.3881  -27.0414  -52.2768 C.3       18 UNK         0.1400 
    101 CB        -1.0251  -27.4342  -51.6770 C.3       18 UNK        -0.1800 
    102 C         -2.6946  -25.5389  -52.1326 C.2       18 UNK         0.5000 
    103 O         -1.7854  -24.7428  -51.8988 O.2       18 UNK        -0.5000 
    104 N         -3.9794  -25.1734  -52.2551 N.am      19 UNK        -0.5000 
    105 CA        -4.4627  -23.7941  -52.1910 C.3       19 UNK         0.1400 
    106 CB        -5.9990  -23.7927  -52.2297 C.3       19 UNK        -0.1800 
    107 C         -3.8996  -22.9010  -53.3117 C.2       19 UNK         0.5000 
    108 O         -3.5834  -23.3925  -54.3983 O.2       19 UNK        -0.5000 
    109 N         -3.8186  -21.5976  -53.0159 N.am      20 UNK        -0.5000 
    110 CA        -3.2928  -20.5274  -53.8678 C.3       20 UNK         0.1400 
    111 CB        -4.2020  -20.3032  -55.0937 C.3       20 UNK        -0.1800 
    112 C         -1.8042  -20.7065  -54.2431 C.2       20 UNK         0.5000 
    113 O         -1.3815  -20.2744  -55.3171 O.2       20 UNK        -0.5000 
    114 N         -1.0155  -21.2974  -53.3326 N.am      21 UNK        -0.5000 
    115 CA         0.4419  -21.4332  -53.4503 C.3       21 UNK         0.1400 
    116 CB         0.9231  -22.5378  -52.4957 C.3       21 UNK        -0.1800 
    117 C          1.1889  -20.1074  -53.1864 C.2       21 UNK         0.5000 
    118 O          2.3925  -20.0214  -53.4303 O.2       21 UNK        -0.5000 
    119 N          0.4533  -19.1043  -52.6947 N.am      22 UNK        -0.5000 
    120 CA         0.8601  -17.7130  -52.4582 C.3       22 UNK         0.1400 
    121 C          1.3237  -16.9195  -53.7177 C.2       22 UNK         0.5000 
    122 N          1.0260  -17.3621  -54.9339 N.am      22 UNK        -0.7600 
    123 O          1.9701  -15.8843  -53.5841 O.2       22 UNK        -0.5000 
    124 C124       -0.2631  -16.9553  -51.7016 C.3       23 UNK        -0.0398 
    125 S125       -1.8740  -17.0436  -52.5666 S.3       23 UNK        -0.2404 
    126 C126       -2.3797  -15.2966  -52.5854 C.3       23 UNK        -0.0205 
    127 H127       -0.1971   -7.7032  -43.7815 H         1 UNK         0.0600 
    128 H128       -0.5248   -8.5521  -42.2672 H         1 UNK         0.0600 
    129 H129       -1.7607   -8.4846  -43.5281 H         1 UNK         0.0600 
    130 H130       -1.9435  -10.4247  -44.6064 H         1 UNK         0.3000 
    131 H131        0.1220  -11.6574  -46.0123 H         1 UNK         0.0600 
    132 H132       -2.6010  -12.8302  -45.2437 H         1 UNK         0.0800 
    133 H133       -1.5598  -13.4714  -46.4865 H         1 UNK         0.0800 
    134 H134       -0.8854  -12.2508  -48.6387 H         1 UNK         0.0800 
    135 H135       -2.0387  -11.2552  -49.4819 H         1 UNK         0.0800 
    136 H136       -1.4104  -13.2252  -51.0907 H         1 UNK         0.1150 
    137 H137       -4.3651  -16.3061  -51.0710 H         1 UNK         0.1150 
    138 H138       -4.0257  -13.6727  -47.7139 H         1 UNK         0.1150 
    139 H139       -5.2960  -15.7611  -47.4976 H         1 UNK         0.0800 
    140 H140       -6.3691  -15.2204  -48.7652 H         1 UNK         0.0800 
    141 H141       -4.5830  -18.8596  -47.4518 H         1 UNK         0.0800 
    142 H142       -3.5873  -17.5869  -48.0792 H         1 UNK         0.0800 
    143 H143       -3.5188  -18.8859  -50.3341 H         1 UNK         0.0600 
    144 H144       -1.8791  -19.0128  -48.1653 H         1 UNK         0.3000 
    145 H145        0.2548  -21.7107  -48.6899 H         1 UNK         0.0600 
    146 H146        2.0594  -19.9613  -48.7418 H         1 UNK         0.0600 
    147 H147        1.3359  -20.2419  -50.3113 H         1 UNK         0.0600 
    148 H148        0.8968  -18.8089  -49.3896 H         1 UNK         0.0600 
    149 H149        0.5033  -19.4897  -46.9513 H         1 UNK         0.3000 
    150 H150       -1.6688  -20.6342  -44.3486 H         1 UNK         0.0600 
    151 H151        0.5161  -21.7401  -44.0337 H         1 UNK         0.0600 
    152 H152        0.4719  -20.2285  -43.1397 H         1 UNK         0.0600 
    153 H153        1.3675  -20.3344  -44.6537 H         1 UNK         0.0600 
    154 H154       -0.0317  -18.2825  -45.0107 H         1 UNK         0.3000 
    155 H155       -2.8120  -16.2891  -45.9609 H         1 UNK         0.0600 
    156 H156       -1.2110  -16.1227  -43.3559 H         1 UNK         0.0600 
    157 H157       -2.9620  -16.2764  -43.4352 H         1 UNK         0.0600 
    158 H158       -2.1891  -14.8428  -44.0750 H         1 UNK         0.0600 
    159 H159       -0.0964  -15.5800  -45.4733 H         1 UNK         0.3000 
    160 H160        1.2985  -16.7073  -48.5384 H         1 UNK         0.0600 
    161 H161        0.6966  -13.8511  -47.6258 H         1 UNK         0.0600 
    162 H162        0.1905  -14.5557  -49.1582 H         1 UNK         0.0600 
    163 H163        1.8987  -14.3417  -48.8174 H         1 UNK         0.0600 
    164 H164        2.4409  -15.1773  -46.4679 H         1 UNK         0.3000 
    165 H165        3.0997  -16.8602  -44.0304 H         1 UNK         0.0600 
    166 H166        5.2683  -18.0988  -44.2766 H         1 UNK         0.0600 
    167 H167        3.8894  -19.1087  -44.6747 H         1 UNK         0.0600 
    168 H168        4.8813  -18.4366  -45.9639 H         1 UNK         0.0600 
    169 H169        4.9669  -15.9121  -46.1573 H         1 UNK         0.3000 
    170 H170        6.0869  -13.6543  -45.3622 H         1 UNK         0.0600 
    171 H171        4.9102  -14.2575  -47.5158 H         1 UNK         0.0600 
    172 H172        3.5864  -13.1703  -47.1068 H         1 UNK         0.0600 
    173 H173        5.1900  -12.5333  -47.4505 H         1 UNK         0.0600 
    174 H174        3.8797  -12.2728  -44.1886 H         1 UNK         0.3000 
    175 H175        5.5926   -9.3155  -43.6557 H         1 UNK         0.0600 
    176 H176        3.2331   -9.3880  -45.6134 H         1 UNK         0.0600 
    177 H177        3.6822   -8.0197  -44.5967 H         1 UNK         0.0600 
    178 H178        4.7612   -8.5549  -45.8760 H         1 UNK         0.0600 
    179 H179        2.8203  -10.1508  -43.3397 H         1 UNK         0.3000 
    180 H180        3.3961  -11.5535  -40.0681 H         1 UNK         0.0600 
    181 H181        1.5455   -9.9543  -39.6595 H         1 UNK         0.0600 
    182 H182        1.8847   -9.1308  -41.1800 H         1 UNK         0.0600 
    183 H183        3.0660   -9.1013  -39.8762 H         1 UNK         0.0600 
    184 H184        1.4332  -11.3596  -42.3279 H         1 UNK         0.3000 
    185 H185        0.8643  -14.6830  -42.4994 H         1 UNK         0.0600 
    186 H186       -1.4489  -14.6000  -41.4806 H         1 UNK         0.0600 
    187 H187       -0.1991  -14.8609  -40.2771 H         1 UNK         0.0600 
    188 H188       -0.9315  -13.2709  -40.4499 H         1 UNK         0.0600 
    189 H189       -0.6810  -12.1337  -42.6861 H         1 UNK         0.3000 
    190 H190       -3.6722  -21.3575  -47.7338 H         1 UNK         0.3000 
    191 H191       -5.4125  -23.1024  -49.3661 H         1 UNK         0.0600 
    192 H192       -7.0217  -23.3570  -47.4999 H         1 UNK         0.0600 
    193 H193       -6.9926  -21.6945  -48.0613 H         1 UNK         0.0600 
    194 H194       -6.1684  -22.1327  -46.5655 H         1 UNK         0.0600 
    195 H195       -2.6997  -23.4057  -48.9707 H         1 UNK         0.3000 
    196 H196       -1.9497  -24.8977  -46.7041 H         1 UNK         0.0600 
    197 H197       -0.7702  -24.7962  -49.5293 H         1 UNK         0.0600 
    198 H198       -0.2848  -23.8393  -48.1316 H         1 UNK         0.0600 
    199 H199        0.0194  -25.5638  -48.1602 H         1 UNK         0.0600 
    200 H200       -1.4572  -27.0862  -46.4222 H         1 UNK         0.3000 
    201 H201       -1.9096  -29.2470  -46.2570 H         1 UNK         0.0600 
    202 H202       -2.1969  -29.1890  -49.3092 H         1 UNK         0.0600 
    203 H203       -1.8781  -30.6088  -48.3233 H         1 UNK         0.0600 
    204 H204       -0.6787  -29.3310  -48.4294 H         1 UNK         0.0600 
    205 H205       -4.0461  -27.6321  -45.6449 H         1 UNK         0.3000 
    206 H206       -6.2258  -27.5068  -45.2402 H         1 UNK         0.0600 
    207 H207       -5.9329  -29.8194  -44.3323 H         1 UNK         0.0600 
    208 H208       -7.5448  -29.5758  -44.9850 H         1 UNK         0.0600 
    209 H209       -6.3626  -30.4982  -45.9015 H         1 UNK         0.0600 
    210 H210       -5.4983  -26.4928  -47.5544 H         1 UNK         0.3000 
    211 H211       -6.1329  -25.5872  -49.4103 H         1 UNK         0.0600 
    212 H212       -8.4828  -25.4407  -50.0806 H         1 UNK         0.0600 
    213 H213       -8.3825  -25.3234  -48.3325 H         1 UNK         0.0600 
    214 H214       -8.9107  -26.8256  -49.0899 H         1 UNK         0.0600 
    215 H215       -5.4142  -28.7270  -49.3181 H         1 UNK         0.3000 
    216 H216       -6.1686  -29.5605  -51.9919 H         1 UNK         0.0600 
    217 H217       -3.9497  -30.6535  -50.1925 H         1 UNK         0.0600 
    218 H218       -4.6767  -31.4505  -51.5769 H         1 UNK         0.0600 
    219 H219       -5.6348  -31.1716  -50.1300 H         1 UNK         0.0600 
    220 H220       -3.6217  -27.5565  -50.6587 H         1 UNK         0.3000 
    221 H221       -2.3629  -27.2507  -53.3478 H         1 UNK         0.0600 
    222 H222       -0.8379  -28.5018  -51.7924 H         1 UNK         0.0600 
    223 H223       -0.9713  -27.1991  -50.6138 H         1 UNK         0.0600 
    224 H224       -0.2102  -26.9060  -52.1733 H         1 UNK         0.0600 
    225 H225       -4.6650  -25.8853  -52.4627 H         1 UNK         0.3000 
    226 H226       -4.1290  -23.3808  -51.2385 H         1 UNK         0.0600 
    227 H227       -6.3777  -24.2578  -53.1406 H         1 UNK         0.0600 
    228 H228       -6.4206  -24.3273  -51.3810 H         1 UNK         0.0600 
    229 H229       -6.3926  -22.7760  -52.1921 H         1 UNK         0.0600 
    230 H230       -4.1597  -21.2982  -52.1056 H         1 UNK         0.3000 
    231 H231       -3.3396  -19.6223  -53.2616 H         1 UNK         0.0600 
    232 H232       -4.1597  -21.1417  -55.7893 H         1 UNK         0.0600 
    233 H233       -3.9047  -19.4087  -55.6422 H         1 UNK         0.0600 
    234 H234       -5.2411  -20.1669  -54.7940 H         1 UNK         0.0600 
    235 H235       -1.4190  -21.5852  -52.4462 H         1 UNK         0.3000 
    236 H236        0.6816  -21.7409  -54.4701 H         1 UNK         0.0600 
    237 H237        0.4763  -23.4979  -52.7530 H         1 UNK         0.0600 
    238 H238        2.0053  -22.6614  -52.5495 H         1 UNK         0.0600 
    239 H239        0.6680  -22.3200  -51.4589 H         1 UNK         0.0600 
    240 H240       -0.5258  -19.2909  -52.5378 H         1 UNK         0.3000 
    241 H241        1.7295  -17.7544  -51.7998 H         1 UNK         0.0600 
    242 H242        1.3338  -16.8426  -55.7407 H         1 UNK         0.3800 
    243 H243        0.4799  -18.2011  -55.0553 H         1 UNK         0.3800 
    244 H244        0.0194  -15.9160  -51.5247 H         1 UNK         0.0800 
    245 H245       -0.4046  -17.3888  -50.7118 H         1 UNK         0.0800 
    246 H246       -3.2090  -15.1781  -53.2839 H         1 UNK         0.0800 
    247 H247       -1.5627  -14.6831  -52.9686 H         1 UNK         0.0800 
@<TRIPOS>BOND
     1    1    2 1    
     2    1  127 1    
     3    1  128 1    
     4    1  129 1    
     5    2    3 2    
     6    2    4 am   BACKBONE|DICT|INTERRES
     7    4    5 1    
     8    4  130 1    
     9    5    6 1    
    10    5   65 1    
    11    5  131 1    
    12    6    7 1    
    13    6  132 1    
    14    6  133 1    
    15    7    8 1    
    16    8    9 1    
    17    8  134 1    
    18    8  135 1    
    19    9   10 ar   
    20    9   14 ar   
    21   10   11 ar   
    22   10  136 1    
    23   11   12 ar   
    24   11  126 1    
    25   12   13 ar   
    26   12  137 1    
    27   13   14 ar   
    28   13   15 1    
    29   14  138 1    
    30   15   16 1    
    31   15  139 1    
    32   15  140 1    
    33   16   17 1    
    34   17   18 1    
    35   17  141 1    
    36   17  142 1    
    37   18   19 1    
    38   18   67 1    
    39   18  143 1    
    40   19   20 am   BACKBONE|DICT|INTERRES
    41   19  144 1    
    42   20   21 2    
    43   20   22 1    
    44   22   23 1    
    45   22   24 1    
    46   22  145 1    
    47   23  146 1    
    48   23  147 1    
    49   23  148 1    
    50   24   25 am   BACKBONE|DICT|INTERRES
    51   24  149 1    
    52   25   26 2    
    53   25   27 1    
    54   27   28 1    
    55   27   29 1    
    56   27  150 1    
    57   28  151 1    
    58   28  152 1    
    59   28  153 1    
    60   29   30 am   BACKBONE|DICT|INTERRES
    61   29  154 1    
    62   30   31 2    
    63   30   32 1    
    64   32   33 1    
    65   32   34 1    
    66   32  155 1    
    67   33  156 1    
    68   33  157 1    
    69   33  158 1    
    70   34   35 am   BACKBONE|DICT|INTERRES
    71   34  159 1    
    72   35   36 2    
    73   35   37 1    
    74   37   38 1    
    75   37   39 1    
    76   37  160 1    
    77   38  161 1    
    78   38  162 1    
    79   38  163 1    
    80   39   40 am   BACKBONE|DICT|INTERRES
    81   39  164 1    
    82   40   41 2    
    83   40   42 1    
    84   42   43 1    
    85   42   44 1    
    86   42  165 1    
    87   43  166 1    
    88   43  167 1    
    89   43  168 1    
    90   44   45 am   BACKBONE|DICT|INTERRES
    91   44  169 1    
    92   45   46 2    
    93   45   47 1    
    94   47   48 1    
    95   47   49 1    
    96   47  170 1    
    97   48  171 1    
    98   48  172 1    
    99   48  173 1    
   100   49   50 am   BACKBONE|DICT|INTERRES
   101   49  174 1    
   102   50   51 2    
   103   50   52 1    
   104   52   53 1    
   105   52   54 1    
   106   52  175 1    
   107   53  176 1    
   108   53  177 1    
   109   53  178 1    
   110   54   55 am   BACKBONE|DICT|INTERRES
   111   54  179 1    
   112   55   56 2    
   113   55   57 1    
   114   57   58 1    
   115   57   59 1    
   116   57  180 1    
   117   58  181 1    
   118   58  182 1    
   119   58  183 1    
   120   59   60 am   BACKBONE|DICT|INTERRES
   121   59  184 1    
   122   60   61 2    
   123   60   62 1    
   124   62   63 1    
   125   62   64 1    
   126   62  185 1    
   127   63  186 1    
   128   63  187 1    
   129   63  188 1    
   130   64   65 am   BACKBONE|DICT|INTERRES
   131   64  189 1    
   132   65   66 2    
   133   67   68 2    
   134   67   69 am   BACKBONE|DICT|INTERRES
   135   69   70 1    
   136   69  190 1    
   137   70   71 1    
   138   70   72 1    
   139   70  191 1    
   140   71  192 1    
   141   71  193 1    
   142   71  194 1    
   143   72   73 2    
   144   72   74 am   BACKBONE|DICT|INTERRES
   145   74   75 1    
   146   74  195 1    
   147   75   76 1    
   148   75   77 1    
   149   75  196 1    
   150   76  197 1    
   151   76  198 1    
   152   76  199 1    
   153   77   78 2    
   154   77   79 am   BACKBONE|DICT|INTERRES
   155   79   80 1    
   156   79  200 1    
   157   80   81 1    
   158   80   82 1    
   159   80  201 1    
   160   81  202 1    
   161   81  203 1    
   162   81  204 1    
   163   82   83 2    
   164   82   84 am   BACKBONE|DICT|INTERRES
   165   84   85 1    
   166   84  205 1    
   167   85   86 1    
   168   85   87 1    
   169   85  206 1    
   170   86  207 1    
   171   86  208 1    
   172   86  209 1    
   173   87   88 2    
   174   87   89 am   BACKBONE|DICT|INTERRES
   175   89   90 1    
   176   89  210 1    
   177   90   91 1    
   178   90   92 1    
   179   90  211 1    
   180   91  212 1    
   181   91  213 1    
   182   91  214 1    
   183   92   93 2    
   184   92   94 am   BACKBONE|DICT|INTERRES
   185   94   95 1    
   186   94  215 1    
   187   95   96 1    
   188   95   97 1    
   189   95  216 1    
   190   96  217 1    
   191   96  218 1    
   192   96  219 1    
   193   97   98 2    
   194   97   99 am   BACKBONE|DICT|INTERRES
   195   99  100 1    
   196   99  220 1    
   197  100  101 1    
   198  100  102 1    
   199  100  221 1    
   200  101  222 1    
   201  101  223 1    
   202  101  224 1    
   203  102  103 2    
   204  102  104 am   BACKBONE|DICT|INTERRES
   205  104  105 1    
   206  104  225 1    
   207  105  106 1    
   208  105  107 1    
   209  105  226 1    
   210  106  227 1    
   211  106  228 1    
   212  106  229 1    
   213  107  108 2    
   214  107  109 am   BACKBONE|DICT|INTERRES
   215  109  110 1    
   216  109  230 1    
   217  110  111 1    
   218  110  112 1    
   219  110  231 1    
   220  111  232 1    
   221  111  233 1    
   222  111  234 1    
   223  112  113 2    
   224  112  114 am   BACKBONE|DICT|INTERRES
   225  114  115 1    
   226  114  235 1    
   227  115  116 1    
   228  115  117 1    
   229  115  236 1    
   230  116  237 1    
   231  116  238 1    
   232  116  239 1    
   233  117  118 2    
   234  117  119 am   BACKBONE|DICT|INTERRES
   235  119  120 1    
   236  119  240 1    
   237  120  121 1    
   238  120  124 1    
   239  120  241 1    
   240  121  122 am   BACKBONE|DICT|INTERRES
   241  121  123 2    
   242  122  242 1    
   243  122  243 1    
   244  124  125 1    
   245  124  244 1    
   246  124  245 1    
   247  125  126 1    
   248  126  246 1    
   249  126  247 1    
@<TRIPOS>SUBSTRUCTURE
     1 UNK         1 GROUP             0       ****    0 ROOT    
