@<TRIPOS>MOLECULE
3R540
247   249    1
SMALL
USER_CHARGES


@<TRIPOS>ATOM
      1 CA          2.5174  -14.2000  -53.0277 C.3       0 UNK        -0.1800 
      2 C           2.2810  -13.9467  -51.5448 C.2       0 UNK         0.5000 
      3 O           2.9807  -13.1358  -50.9383 O.2       0 UNK        -0.5000 
      4 N           1.2994  -14.6382  -50.9627 N.am      1 UNK        -0.5000 
      5 CA          0.8890  -14.5544  -49.5654 C.3       1 UNK         0.1400 
      6 C6          1.9009  -15.2218  -48.5903 C.3       23 UNK        -0.0398 
      7 S7          2.0361  -17.0430  -48.7115 S.3       23 UNK        -0.2404 
      8 C8          3.5098  -17.2676  -49.7557 C.3       23 UNK        -0.0205 
      9 C9          3.2403  -18.2915  -50.8465 C.ar      23 UNK        -0.0193 
     10 C10         2.4443  -17.9374  -51.9360 C.ar      23 UNK        -0.1150 
     11 C11         2.1594  -18.8576  -52.9430 C.ar      23 UNK        -0.0193 
     12 C12         2.6857  -20.1493  -52.8631 C.ar      23 UNK        -0.1150 
     13 C13         3.4877  -20.5206  -51.7788 C.ar      23 UNK        -0.0193 
     14 C14         3.7662  -19.5854  -50.7740 C.ar      23 UNK        -0.1150 
     15 C15         4.0546  -21.9313  -51.7046 C.3       23 UNK        -0.0205 
     16 S16         2.8318  -23.1304  -51.0831 S.3       23 UNK        -0.2404 
     17 C17         2.8190  -22.7181  -49.3078 C.3       23 UNK        -0.0398 
     18 CA          1.6961  -23.4274  -48.5119 C.3       11 UNK         0.1400 
     19 N           1.9991  -23.4125  -47.0795 N.am      11 UNK        -0.5000 
     20 C           1.2740  -23.9738  -46.1014 C.2       10 UNK         0.5000 
     21 O           0.2714  -24.6612  -46.2938 O.2       10 UNK        -0.5000 
     22 CA          1.7252  -23.6622  -44.6574 C.3       10 UNK         0.1400 
     23 CB          2.6582  -24.7648  -44.1369 C.3       10 UNK        -0.1800 
     24 N           2.3895  -22.3610  -44.5130 N.am      10 UNK        -0.5000 
     25 C           1.8586  -21.1792  -44.8532 C.2       9 UNK         0.5000 
     26 O           0.7147  -21.0485  -45.2972 O.2       9 UNK        -0.5000 
     27 CA          2.7871  -19.9596  -44.7259 C.3       9 UNK         0.1400 
     28 CB          2.4319  -18.8634  -45.7425 C.3       9 UNK        -0.1800 
     29 N           2.7610  -19.3947  -43.3808 N.am      9 UNK        -0.5000 
     30 C           3.4354  -19.8809  -42.3298 C.2       8 UNK         0.5000 
     31 O           4.1251  -20.9005  -42.3778 O.2       8 UNK        -0.5000 
     32 CA          3.3343  -19.0968  -41.0103 C.3       8 UNK         0.1400 
     33 CB          4.2358  -17.8528  -41.0536 C.3       8 UNK        -0.1800 
     34 N           1.9574  -18.6802  -40.7547 N.am      8 UNK        -0.5000 
     35 C           1.1725  -19.1644  -39.7814 C.2       7 UNK         0.5000 
     36 O           1.5558  -19.9565  -38.9196 O.2       7 UNK        -0.5000 
     37 CA         -0.3013  -18.7023  -39.7761 C.3       7 UNK         0.1400 
     38 CB         -0.4868  -17.5030  -38.8346 C.3       7 UNK        -0.1800 
     39 N          -0.7897  -18.3408  -41.1076 N.am      7 UNK        -0.5000 
     40 C          -0.8908  -19.1931  -42.1382 C.2       6 UNK         0.5000 
     41 O          -0.7412  -20.4085  -42.0234 O.2       6 UNK        -0.5000 
     42 CA         -1.1485  -18.5923  -43.5346 C.3       6 UNK         0.1400 
     43 CB         -2.5358  -18.9812  -44.0567 C.3       6 UNK        -0.1800 
     44 N          -0.9897  -17.1361  -43.6064 N.am      6 UNK        -0.5000 
     45 C           0.1711  -16.4807  -43.4445 C.2       5 UNK         0.5000 
     46 O           1.2311  -17.0443  -43.1696 O.2       5 UNK        -0.5000 
     47 CA          0.1504  -14.9456  -43.5674 C.3       5 UNK         0.1400 
     48 CB          0.6090  -14.5258  -44.9692 C.3       5 UNK        -0.1800 
     49 N          -1.1602  -14.3574  -43.2875 N.am      5 UNK        -0.5000 
     50 C          -1.7514  -14.3703  -42.0832 C.2       4 UNK         0.5000 
     51 O          -1.2241  -14.8417  -41.0748 O.2       4 UNK        -0.5000 
     52 CA         -3.1812  -13.8001  -41.9872 C.3       4 UNK         0.1400 
     53 CB         -3.1481  -12.3602  -41.4532 C.3       4 UNK        -0.1800 
     54 N          -3.9374  -13.8231  -43.2435 N.am      4 UNK        -0.5000 
     55 C          -4.2195  -14.9157  -43.9666 C.2       3 UNK         0.5000 
     56 O          -3.8242  -16.0428  -43.6701 O.2       3 UNK        -0.5000 
     57 CA         -5.0574  -14.7298  -45.2487 C.3       3 UNK         0.1400 
     58 CB         -5.6239  -13.3038  -45.4338 C.3       3 UNK        -0.1800 
     59 N          -4.3239  -15.1393  -46.4502 N.am      3 UNK        -0.5000 
     60 C          -3.1473  -14.6628  -46.8773 C.2       2 UNK         0.5000 
     61 O          -2.4574  -13.8475  -46.2562 O.2       2 UNK        -0.5000 
     62 CA         -2.6903  -15.1571  -48.2569 C.3       2 UNK         0.1400 
     63 CB         -3.6269  -14.6138  -49.3580 C.3       2 UNK        -0.1800 
     64 N          -1.3170  -14.7180  -48.4919 N.am      2 UNK        -0.5000 
     65 C          -0.5301  -15.1480  -49.4826 C.2       1 UNK         0.5000 
     66 O          -0.8874  -15.9746  -50.3265 O.2       1 UNK        -0.5000 
     67 C           0.3090  -22.8199  -48.8221 C.2       11 UNK         0.5000 
     68 O          -0.4616  -23.4228  -49.5675 O.2       11 UNK        -0.5000 
     69 N           0.0005  -21.6659  -48.2103 N.am      12 UNK        -0.5000 
     70 CA         -1.2957  -21.0011  -48.3371 C.3       12 UNK         0.1400 
     71 CB         -1.1594  -19.5160  -47.9636 C.3       12 UNK        -0.1800 
     72 C          -2.3657  -21.6863  -47.4727 C.2       12 UNK         0.5000 
     73 O          -3.5080  -21.8198  -47.9147 O.2       12 UNK        -0.5000 
     74 N          -1.9815  -22.1281  -46.2646 N.am      13 UNK        -0.5000 
     75 CA         -2.8519  -22.8139  -45.3011 C.3       13 UNK         0.1400 
     76 CB         -2.0690  -23.1136  -44.0169 C.3       13 UNK        -0.1800 
     77 C          -3.4788  -24.1093  -45.8485 C.2       13 UNK         0.5000 
     78 O          -4.6280  -24.4094  -45.5243 O.2       13 UNK        -0.5000 
     79 N          -2.7400  -24.8150  -46.7163 N.am      14 UNK        -0.5000 
     80 CA         -3.1861  -26.0026  -47.4491 C.3       14 UNK         0.1400 
     81 CB         -2.0006  -26.5646  -48.2480 C.3       14 UNK        -0.1800 
     82 C          -4.3947  -25.7585  -48.3795 C.2       14 UNK         0.5000 
     83 O          -5.1109  -26.7103  -48.6914 O.2       14 UNK        -0.5000 
     84 N          -4.6152  -24.4997  -48.7820 N.am      15 UNK        -0.5000 
     85 CA         -5.7591  -24.0452  -49.5714 C.3       15 UNK         0.1400 
     86 CB         -5.2389  -23.3344  -50.8289 C.3       15 UNK        -0.1800 
     87 C          -6.6805  -23.1331  -48.7398 C.2       15 UNK         0.5000 
     88 O          -7.3382  -22.2579  -49.3023 O.2       15 UNK        -0.5000 
     89 N          -6.7009  -23.3276  -47.4121 N.am      16 UNK        -0.5000 
     90 CA         -7.5063  -22.5914  -46.4300 C.3       16 UNK         0.1400 
     91 CB         -9.0064  -22.9062  -46.6094 C.3       16 UNK        -0.1800 
     92 C          -7.2039  -21.0774  -46.4117 C.2       16 UNK         0.5000 
     93 O          -8.1133  -20.2659  -46.2345 O.2       16 UNK        -0.5000 
     94 N          -5.9204  -20.7403  -46.6059 N.am      17 UNK        -0.5000 
     95 CA         -5.3265  -19.4008  -46.6426 C.3       17 UNK         0.1400 
     96 CB         -5.6998  -18.5706  -45.3995 C.3       17 UNK        -0.1800 
     97 C          -5.5705  -18.6291  -47.9535 C.2       17 UNK         0.5000 
     98 O          -5.1400  -17.4785  -48.0517 O.2       17 UNK        -0.5000 
     99 N          -6.2019  -19.2590  -48.9540 N.am      18 UNK        -0.5000 
    100 CA        -6.5258  -18.6627  -50.2524 C.3       18 UNK         0.1400 
    101 CB        -7.8558  -19.2517  -50.7556 C.3       18 UNK        -0.1800 
    102 C         -5.3809  -18.8242  -51.2762 C.2       18 UNK         0.5000 
    103 O         -5.6284  -19.2080  -52.4203 O.2       18 UNK        -0.5000 
    104 N         -4.1447  -18.5370  -50.8445 N.am      19 UNK        -0.5000 
    105 CA        -2.8799  -18.4682  -51.5978 C.3       19 UNK         0.1400 
    106 CB        -2.9427  -17.3524  -52.6583 C.3       19 UNK        -0.1800 
    107 C         -2.3662  -19.7749  -52.2403 C.2       19 UNK         0.5000 
    108 O         -1.1578  -19.9021  -52.4265 O.2       19 UNK        -0.5000 
    109 N         -3.2629  -20.7030  -52.5949 N.am      20 UNK        -0.5000 
    110 CA        -3.0512  -22.0086  -53.2390 C.3       20 UNK         0.1400 
    111 CB        -2.0908  -22.8951  -52.4227 C.3       20 UNK        -0.1800 
    112 C         -2.6163  -21.9479  -54.7169 C.2       20 UNK         0.5000 
    113 O         -3.0204  -22.8131  -55.4953 O.2       20 UNK        -0.5000 
    114 N         -1.8264  -20.9389  -55.0879 N.am      21 UNK        -0.5000 
    115 CA        -1.3471  -20.6723  -56.4393 C.3       21 UNK         0.1400 
    116 CB        -0.0981  -21.5333  -56.7306 C.3       21 UNK        -0.1800 
    117 C         -1.1185  -19.1570  -56.5859 C.2       21 UNK         0.5000 
    118 O         -1.8596  -18.3747  -55.9871 O.2       21 UNK        -0.5000 
    119 N         -0.0901  -18.7681  -57.3512 N.am      22 UNK        -0.5000 
    120 CA         0.3657  -17.3796  -57.5619 C.3       22 UNK         0.1400 
    121 C         -0.6056  -16.4914  -58.4013 C.2       22 UNK         0.5000 
    122 N         -1.5725  -17.0570  -59.1136 N.am      22 UNK        -0.7600 
    123 O         -0.4641  -15.2719  -58.4401 O.2       22 UNK        -0.5000 
    124 C124        0.8256  -16.6792  -56.2492 C.3       23 UNK        -0.0398 
    125 S125        2.1744  -17.5585  -55.3838 S.3       23 UNK        -0.2404 
    126 C126        1.2553  -18.4496  -54.0908 C.3       23 UNK        -0.0205 
    127 H127        2.5079  -13.2589  -53.5775 H         1 UNK         0.0600 
    128 H128        1.7529  -14.8493  -53.4556 H         1 UNK         0.0600 
    129 H129        3.4872  -14.6748  -53.1769 H         1 UNK         0.0600 
    130 H130        0.7172  -15.2732  -51.4960 H         1 UNK         0.3000 
    131 H131        0.8114  -13.4956  -49.3096 H         1 UNK         0.0600 
    132 H132        2.8886  -14.7749  -48.7063 H         1 UNK         0.0800 
    133 H133        1.6111  -14.9918  -47.5668 H         1 UNK         0.0800 
    134 H134        4.3481  -17.5764  -49.1297 H         1 UNK         0.0800 
    135 H135        3.8010  -16.3242  -50.2190 H         1 UNK         0.0800 
    136 H136        2.0288  -16.9451  -51.9951 H         1 UNK         0.1150 
    137 H137        2.4619  -20.8697  -53.6373 H         1 UNK         0.1150 
    138 H138        4.3844  -19.8663  -49.9330 H         1 UNK         0.1150 
    139 H139        4.3756  -22.2428  -52.6996 H         1 UNK         0.0800 
    140 H140        4.9472  -21.9569  -51.0775 H         1 UNK         0.0800 
    141 H141        2.7547  -21.6369  -49.1796 H         1 UNK         0.0800 
    142 H142        3.7937  -23.0101  -48.9141 H         1 UNK         0.0800 
    143 H143        1.6698  -24.4773  -48.8115 H         1 UNK         0.0600 
    144 H144        2.8094  -22.8796  -46.8025 H         1 UNK         0.3000 
    145 H145        0.8380  -23.6429  -44.0251 H         1 UNK         0.0600 
    146 H146        2.9170  -24.6013  -43.0905 H         1 UNK         0.0600 
    147 H147        2.1811  -25.7436  -44.2033 H         1 UNK         0.0600 
    148 H148        3.5854  -24.8115  -44.7094 H         1 UNK         0.0600 
    149 H149        3.3145  -22.3677  -44.1033 H         1 UNK         0.3000 
    150 H150        3.8050  -20.2856  -44.9503 H         1 UNK         0.0600 
    151 H151        2.4689  -19.2569  -46.7588 H         1 UNK         0.0600 
    152 H152        3.1353  -18.0322  -45.6903 H         1 UNK         0.0600 
    153 H153        1.4314  -18.4609  -45.5858 H         1 UNK         0.0600 
    154 H154        2.2187  -18.5409  -43.2718 H         1 UNK         0.3000 
    155 H155        3.6958  -19.7476  -40.2116 H         1 UNK         0.0600 
    156 H156        3.9234  -17.1529  -41.8299 H         1 UNK         0.0600 
    157 H157        5.2720  -18.1275  -41.2547 H         1 UNK         0.0600 
    158 H158        4.2187  -17.3234  -40.1008 H         1 UNK         0.0600 
    159 H159        1.5516  -18.0437  -41.4313 H         1 UNK         0.3000 
    160 H160       -0.9088  -19.5304  -39.4054 H         1 UNK         0.0600 
    161 H161        0.0902  -16.6388  -39.1667 H         1 UNK         0.0600 
    162 H162       -0.1619  -17.7465  -37.8223 H         1 UNK         0.0600 
    163 H163       -1.5335  -17.2039  -38.7774 H         1 UNK         0.0600 
    164 H164       -0.9417  -17.3565  -41.2815 H         1 UNK         0.3000 
    165 H165       -0.4105  -19.0283  -44.2062 H         1 UNK         0.0600 
    166 H166       -2.7058  -18.5690  -45.0506 H         1 UNK         0.0600 
    167 H167       -2.6365  -20.0634  -44.1297 H         1 UNK         0.0600 
    168 H168       -3.3265  -18.6233  -43.3972 H         1 UNK         0.0600 
    169 H169       -1.8394  -16.6034  -43.7627 H         1 UNK         0.3000 
    170 H170        0.8614  -14.5463  -42.8411 H         1 UNK         0.0600 
    171 H171        1.6275  -14.8675  -45.1579 H         1 UNK         0.0600 
    172 H172       -0.0305  -14.9532  -45.7416 H         1 UNK         0.0600 
    173 H173        0.6016  -13.4417  -45.0839 H         1 UNK         0.0600 
    174 H174       -1.6690  -13.9788  -44.0772 H         1 UNK         0.3000 
    175 H175       -3.7242  -14.4183  -41.2695 H         1 UNK         0.0600 
    176 H176       -2.6454  -11.6860  -42.1479 H         1 UNK         0.0600 
    177 H177       -4.1549  -11.9784  -41.2822 H         1 UNK         0.0600 
    178 H178       -2.6169  -12.3074  -40.5018 H         1 UNK         0.0600 
    179 H179       -4.2733  -12.9323  -43.5792 H         1 UNK         0.3000 
    180 H180       -5.9064  -15.4081  -45.1564 H         1 UNK         0.0600 
    181 H181       -4.8375  -12.5580  -45.5555 H         1 UNK         0.0600 
    182 H182       -6.2392  -13.0085  -44.5829 H         1 UNK         0.0600 
    183 H183       -6.2603  -13.2533  -46.3175 H         1 UNK         0.0600 
    184 H184       -4.7733  -15.8547  -47.0157 H         1 UNK         0.3000 
    185 H185       -2.7132  -16.2486  -48.2550 H         1 UNK         0.0600 
    186 H186       -3.6244  -13.5235  -49.3811 H         1 UNK         0.0600 
    187 H187       -3.3382  -14.9670  -50.3464 H         1 UNK         0.0600 
    188 H188       -4.6563  -14.9365  -49.1992 H         1 UNK         0.0600 
    189 H189       -0.9840  -14.0465  -47.8106 H         1 UNK         0.3000 
    190 H190        0.6454  -21.2714  -47.5393 H         1 UNK         0.3000 
    191 H191       -1.6208  -21.0576  -49.3786 H         1 UNK         0.0600 
    192 H192       -2.1140  -18.9977  -48.0613 H         1 UNK         0.0600 
    193 H193       -0.4504  -19.0105  -48.6199 H         1 UNK         0.0600 
    194 H194       -0.8167  -19.3841  -46.9366 H         1 UNK         0.0600 
    195 H195       -1.0284  -21.9466  -45.9678 H         1 UNK         0.3000 
    196 H196       -3.6637  -22.1268  -45.0550 H         1 UNK         0.0600 
    197 H197       -2.7475  -23.3659  -43.2014 H         1 UNK         0.0600 
    198 H198       -1.4768  -22.2575  -43.6978 H         1 UNK         0.0600 
    199 H199       -1.3951  -23.9594  -44.1479 H         1 UNK         0.0600 
    200 H200       -1.7824  -24.5217  -46.8761 H         1 UNK         0.3000 
    201 H201       -3.4885  -26.7491  -46.7122 H         1 UNK         0.0600 
    202 H202       -1.1649  -26.8127  -47.5933 H         1 UNK         0.0600 
    203 H203       -1.6435  -25.8497  -48.9901 H         1 UNK         0.0600 
    204 H204       -2.2807  -27.4762  -48.7773 H         1 UNK         0.0600 
    205 H205       -3.9928  -23.7671  -48.4583 H         1 UNK         0.3000 
    206 H206       -6.3679  -24.8925  -49.8918 H         1 UNK         0.0600 
    207 H207       -4.6085  -24.0038  -51.4133 H         1 UNK         0.0600 
    208 H208       -6.0576  -23.0170  -51.4760 H         1 UNK         0.0600 
    209 H209       -4.6565  -22.4482  -50.5733 H         1 UNK         0.0600 
    210 H210       -6.0834  -24.0301  -47.0206 H         1 UNK         0.3000 
    211 H211       -7.2075  -22.9682  -45.4507 H         1 UNK         0.0600 
    212 H212       -9.3962  -22.5053  -47.5455 H         1 UNK         0.0600 
    213 H213       -9.5961  -22.4757  -45.7993 H         1 UNK         0.0600 
    214 H214       -9.1867  -23.9811  -46.6037 H         1 UNK         0.0600 
    215 H215       -5.2727  -21.4841  -46.8399 H         1 UNK         0.3000 
    216 H216       -4.2505  -19.5633  -46.5995 H         1 UNK         0.0600 
    217 H217       -5.0505  -17.7019  -45.3155 H         1 UNK         0.0600 
    218 H218       -5.5840  -19.1487  -44.4830 H         1 UNK         0.0600 
    219 H219       -6.7254  -18.2038  -45.4419 H         1 UNK         0.0600 
    220 H220       -6.5000  -20.2175  -48.8184 H         1 UNK         0.3000 
    221 H221       -6.6798  -17.5895  -50.1218 H         1 UNK         0.0600 
    222 H222       -7.7604  -20.3084  -51.0058 H         1 UNK         0.0600 
    223 H223       -8.6415  -19.1538  -50.0063 H         1 UNK         0.0600 
    224 H224       -8.1972  -18.7341  -51.6529 H         1 UNK         0.0600 
    225 H225       -4.0770  -18.2424  -49.8791 H         1 UNK         0.3000 
    226 H226       -2.1259  -18.1863  -50.8626 H         1 UNK         0.0600 
    227 H227       -3.6578  -17.5827  -53.4486 H         1 UNK         0.0600 
    228 H228       -3.2256  -16.3987  -52.2153 H         1 UNK         0.0600 
    229 H229       -1.9707  -17.2112  -53.1326 H         1 UNK         0.0600 
    230 H230       -4.2362  -20.4246  -52.4962 H         1 UNK         0.3000 
    231 H231       -4.0295  -22.4893  -53.2358 H         1 UNK         0.0600 
    232 H232       -2.0838  -23.9159  -52.8058 H         1 UNK         0.0600 
    233 H233       -2.3864  -22.9425  -51.3754 H         1 UNK         0.0600 
    234 H234       -1.0639  -22.5300  -52.4590 H         1 UNK         0.0600 
    235 H235       -1.5536  -20.2655  -54.3793 H         1 UNK         0.3000 
    236 H236       -2.1301  -20.9375  -57.1525 H         1 UNK         0.0600 
    237 H237        0.2257  -21.4315  -57.7668 H         1 UNK         0.0600 
    238 H238       -0.3041  -22.5918  -56.5707 H         1 UNK         0.0600 
    239 H239        0.7394  -21.2608  -56.0872 H         1 UNK         0.0600 
    240 H240        0.4649  -19.4783  -57.8064 H         1 UNK         0.3000 
    241 H241        1.2499  -17.4678  -58.1939 H         1 UNK         0.0600 
    242 H242       -2.1888  -16.4781  -59.6625 H         1 UNK         0.3800 
    243 H243       -1.6979  -18.0564  -59.1057 H         1 UNK         0.3800 
    244 H244        1.2075  -15.6816  -56.4718 H         1 UNK         0.0800 
    245 H245       -0.0170  -16.5228  -55.5749 H         1 UNK         0.0800 
    246 H246        0.7867  -19.3347  -54.5173 H         1 UNK         0.0800 
    247 H247        0.4461  -17.8281  -53.7047 H         1 UNK         0.0800 
@<TRIPOS>BOND
     1    1    2 1    
     2    1  127 1    
     3    1  128 1    
     4    1  129 1    
     5    2    3 2    
     6    2    4 am   BACKBONE|DICT|INTERRES
     7    4    5 1    
     8    4  130 1    
     9    5    6 1    
    10    5   65 1    
    11    5  131 1    
    12    6    7 1    
    13    6  132 1    
    14    6  133 1    
    15    7    8 1    
    16    8    9 1    
    17    8  134 1    
    18    8  135 1    
    19    9   10 ar   
    20    9   14 ar   
    21   10   11 ar   
    22   10  136 1    
    23   11   12 ar   
    24   11  126 1    
    25   12   13 ar   
    26   12  137 1    
    27   13   14 ar   
    28   13   15 1    
    29   14  138 1    
    30   15   16 1    
    31   15  139 1    
    32   15  140 1    
    33   16   17 1    
    34   17   18 1    
    35   17  141 1    
    36   17  142 1    
    37   18   19 1    
    38   18   67 1    
    39   18  143 1    
    40   19   20 am   BACKBONE|DICT|INTERRES
    41   19  144 1    
    42   20   21 2    
    43   20   22 1    
    44   22   23 1    
    45   22   24 1    
    46   22  145 1    
    47   23  146 1    
    48   23  147 1    
    49   23  148 1    
    50   24   25 am   BACKBONE|DICT|INTERRES
    51   24  149 1    
    52   25   26 2    
    53   25   27 1    
    54   27   28 1    
    55   27   29 1    
    56   27  150 1    
    57   28  151 1    
    58   28  152 1    
    59   28  153 1    
    60   29   30 am   BACKBONE|DICT|INTERRES
    61   29  154 1    
    62   30   31 2    
    63   30   32 1    
    64   32   33 1    
    65   32   34 1    
    66   32  155 1    
    67   33  156 1    
    68   33  157 1    
    69   33  158 1    
    70   34   35 am   BACKBONE|DICT|INTERRES
    71   34  159 1    
    72   35   36 2    
    73   35   37 1    
    74   37   38 1    
    75   37   39 1    
    76   37  160 1    
    77   38  161 1    
    78   38  162 1    
    79   38  163 1    
    80   39   40 am   BACKBONE|DICT|INTERRES
    81   39  164 1    
    82   40   41 2    
    83   40   42 1    
    84   42   43 1    
    85   42   44 1    
    86   42  165 1    
    87   43  166 1    
    88   43  167 1    
    89   43  168 1    
    90   44   45 am   BACKBONE|DICT|INTERRES
    91   44  169 1    
    92   45   46 2    
    93   45   47 1    
    94   47   48 1    
    95   47   49 1    
    96   47  170 1    
    97   48  171 1    
    98   48  172 1    
    99   48  173 1    
   100   49   50 am   BACKBONE|DICT|INTERRES
   101   49  174 1    
   102   50   51 2    
   103   50   52 1    
   104   52   53 1    
   105   52   54 1    
   106   52  175 1    
   107   53  176 1    
   108   53  177 1    
   109   53  178 1    
   110   54   55 am   BACKBONE|DICT|INTERRES
   111   54  179 1    
   112   55   56 2    
   113   55   57 1    
   114   57   58 1    
   115   57   59 1    
   116   57  180 1    
   117   58  181 1    
   118   58  182 1    
   119   58  183 1    
   120   59   60 am   BACKBONE|DICT|INTERRES
   121   59  184 1    
   122   60   61 2    
   123   60   62 1    
   124   62   63 1    
   125   62   64 1    
   126   62  185 1    
   127   63  186 1    
   128   63  187 1    
   129   63  188 1    
   130   64   65 am   BACKBONE|DICT|INTERRES
   131   64  189 1    
   132   65   66 2    
   133   67   68 2    
   134   67   69 am   BACKBONE|DICT|INTERRES
   135   69   70 1    
   136   69  190 1    
   137   70   71 1    
   138   70   72 1    
   139   70  191 1    
   140   71  192 1    
   141   71  193 1    
   142   71  194 1    
   143   72   73 2    
   144   72   74 am   BACKBONE|DICT|INTERRES
   145   74   75 1    
   146   74  195 1    
   147   75   76 1    
   148   75   77 1    
   149   75  196 1    
   150   76  197 1    
   151   76  198 1    
   152   76  199 1    
   153   77   78 2    
   154   77   79 am   BACKBONE|DICT|INTERRES
   155   79   80 1    
   156   79  200 1    
   157   80   81 1    
   158   80   82 1    
   159   80  201 1    
   160   81  202 1    
   161   81  203 1    
   162   81  204 1    
   163   82   83 2    
   164   82   84 am   BACKBONE|DICT|INTERRES
   165   84   85 1    
   166   84  205 1    
   167   85   86 1    
   168   85   87 1    
   169   85  206 1    
   170   86  207 1    
   171   86  208 1    
   172   86  209 1    
   173   87   88 2    
   174   87   89 am   BACKBONE|DICT|INTERRES
   175   89   90 1    
   176   89  210 1    
   177   90   91 1    
   178   90   92 1    
   179   90  211 1    
   180   91  212 1    
   181   91  213 1    
   182   91  214 1    
   183   92   93 2    
   184   92   94 am   BACKBONE|DICT|INTERRES
   185   94   95 1    
   186   94  215 1    
   187   95   96 1    
   188   95   97 1    
   189   95  216 1    
   190   96  217 1    
   191   96  218 1    
   192   96  219 1    
   193   97   98 2    
   194   97   99 am   BACKBONE|DICT|INTERRES
   195   99  100 1    
   196   99  220 1    
   197  100  101 1    
   198  100  102 1    
   199  100  221 1    
   200  101  222 1    
   201  101  223 1    
   202  101  224 1    
   203  102  103 2    
   204  102  104 am   BACKBONE|DICT|INTERRES
   205  104  105 1    
   206  104  225 1    
   207  105  106 1    
   208  105  107 1    
   209  105  226 1    
   210  106  227 1    
   211  106  228 1    
   212  106  229 1    
   213  107  108 2    
   214  107  109 am   BACKBONE|DICT|INTERRES
   215  109  110 1    
   216  109  230 1    
   217  110  111 1    
   218  110  112 1    
   219  110  231 1    
   220  111  232 1    
   221  111  233 1    
   222  111  234 1    
   223  112  113 2    
   224  112  114 am   BACKBONE|DICT|INTERRES
   225  114  115 1    
   226  114  235 1    
   227  115  116 1    
   228  115  117 1    
   229  115  236 1    
   230  116  237 1    
   231  116  238 1    
   232  116  239 1    
   233  117  118 2    
   234  117  119 am   BACKBONE|DICT|INTERRES
   235  119  120 1    
   236  119  240 1    
   237  120  121 1    
   238  120  124 1    
   239  120  241 1    
   240  121  122 am   BACKBONE|DICT|INTERRES
   241  121  123 2    
   242  122  242 1    
   243  122  243 1    
   244  124  125 1    
   245  124  244 1    
   246  124  245 1    
   247  125  126 1    
   248  126  246 1    
   249  126  247 1    
@<TRIPOS>SUBSTRUCTURE
     1 UNK         1 GROUP             0       ****    0 ROOT    
