@<TRIPOS>MOLECULE
3R540
247   249    1
SMALL
USER_CHARGES


@<TRIPOS>ATOM
      1 CA          3.2004  -14.0477  -47.8401 C.3       0 UNK        -0.1800 
      2 C           1.7017  -14.3120  -47.8310 C.2       0 UNK         0.5000 
      3 O           1.2445  -15.2169  -47.1354 O.2       0 UNK        -0.5000 
      4 N           0.9408  -13.5239  -48.6010 N.am      1 UNK        -0.5000 
      5 CA         -0.5208  -13.6266  -48.7142 C.3       1 UNK         0.1400 
      6 C6         -1.0336  -13.2101  -50.1160 C.3       23 UNK        -0.0398 
      7 S7         -0.3000  -14.1988  -51.4702 S.3       23 UNK        -0.2404 
      8 C8         -1.4867  -15.5737  -51.6386 C.3       23 UNK        -0.0205 
      9 C9         -0.8241  -16.9247  -51.4067 C.ar      23 UNK        -0.0193 
     10 C10        -0.6257  -17.8222  -52.4623 C.ar      23 UNK        -0.1150 
     11 C11        -0.0514  -19.0777  -52.2306 C.ar      23 UNK        -0.0193 
     12 C12         0.3785  -19.4058  -50.9398 C.ar      23 UNK        -0.1150 
     13 C13         0.1697  -18.5257  -49.8773 C.ar      23 UNK        -0.0193 
     14 C14        -0.4397  -17.2954  -50.1170 C.ar      23 UNK        -0.1150 
     15 C15         0.5731  -18.9024  -48.4636 C.3       23 UNK        -0.0205 
     16 S16        -0.6178  -20.0712  -47.7323 S.3       23 UNK        -0.2404 
     17 C17         0.1571  -21.6743  -48.1326 C.3       23 UNK        -0.0398 
     18 CA          0.0852  -22.7251  -46.9986 C.3       11 UNK         0.1400 
     19 N           0.8590  -22.3733  -45.7998 N.am      11 UNK        -0.5000 
     20 C           1.2478  -23.2739  -44.8823 C.2       10 UNK         0.5000 
     21 O           0.9313  -24.4642  -44.9272 O.2       10 UNK        -0.5000 
     22 CA          2.1104  -22.7703  -43.7119 C.3       10 UNK         0.1400 
     23 CB          3.5440  -22.4623  -44.1712 C.3       10 UNK        -0.1800 
     24 N           1.5377  -21.5989  -43.0528 N.am      10 UNK        -0.5000 
     25 C           0.4344  -21.6189  -42.2923 C.2       9 UNK         0.5000 
     26 O          -0.2103  -22.6395  -42.0524 O.2       9 UNK        -0.5000 
     27 CA         -0.0383  -20.2723  -41.7116 C.3       9 UNK         0.1400 
     28 CB          0.6673  -19.9669  -40.3816 C.3       9 UNK        -0.1800 
     29 N           0.1715  -19.1632  -42.6405 N.am      9 UNK        -0.5000 
     30 C          -0.5208  -18.9947  -43.7753 C.2       8 UNK         0.5000 
     31 O          -1.4614  -19.7119  -44.1158 O.2       8 UNK        -0.5000 
     32 CA         -0.0565  -17.8581  -44.7009 C.3       8 UNK         0.1400 
     33 CB         -0.7231  -16.5290  -44.3193 C.3       8 UNK        -0.1800 
     34 N           1.3995  -17.7017  -44.7194 N.am      8 UNK        -0.5000 
     35 C           2.2589  -18.6184  -45.1908 C.2       7 UNK         0.5000 
     36 O           1.9207  -19.7065  -45.6531 O.2       7 UNK        -0.5000 
     37 CA          3.7577  -18.2922  -45.0755 C.3       7 UNK         0.1400 
     38 CB          4.1940  -17.3506  -46.2068 C.3       7 UNK        -0.1800 
     39 N           4.1061  -17.6961  -43.7872 N.am      7 UNK        -0.5000 
     40 C           3.9401  -18.2857  -42.5939 C.2       6 UNK         0.5000 
     41 O           3.5331  -19.4382  -42.4514 O.2       6 UNK        -0.5000 
     42 CA          4.2301  -17.4196  -41.3524 C.3       6 UNK         0.1400 
     43 CB          5.6782  -17.6183  -40.8815 C.3       6 UNK        -0.1800 
     44 N           3.9877  -15.9929  -41.5918 N.am      6 UNK        -0.5000 
     45 C           2.7814  -15.4670  -41.8424 C.2       5 UNK         0.5000 
     46 O           1.7384  -16.1247  -41.8422 O.2       5 UNK        -0.5000 
     47 CA          2.7598  -13.9823  -42.2435 C.3       5 UNK         0.1400 
     48 CB          2.8970  -13.8496  -43.7696 C.3       5 UNK        -0.1800 
     49 N           1.5326  -13.3167  -41.8088 N.am      5 UNK        -0.5000 
     50 C           1.2741  -12.9764  -40.5370 C.2       4 UNK         0.5000 
     51 O           2.0615  -13.1800  -39.6112 O.2       4 UNK        -0.5000 
     52 CA         -0.0590  -12.2611  -40.2313 C.3       4 UNK         0.1400 
     53 CB          0.1843  -10.7664  -39.9674 C.3       4 UNK        -0.1800 
     54 N          -1.0517  -12.3874  -41.2967 N.am      4 UNK        -0.5000 
     55 C          -1.7815  -13.4831  -41.5407 C.2       3 UNK         0.5000 
     56 O          -1.7471  -14.4957  -40.8412 O.2       3 UNK        -0.5000 
     57 CA         -2.7058  -13.4456  -42.7763 C.3       3 UNK         0.1400 
     58 CB         -4.1606  -13.1967  -42.3489 C.3       3 UNK        -0.1800 
     59 N          -2.3385  -12.4587  -43.8012 N.am      3 UNK        -0.5000 
     60 C          -1.1826  -12.4457  -44.4772 C.2       2 UNK         0.5000 
     61 O          -0.2382  -13.1945  -44.2272 O.2       2 UNK        -0.5000 
     62 CA         -1.0371  -11.4045  -45.5994 C.3       2 UNK         0.1400 
     63 CB         -0.0671  -10.2899  -45.1777 C.3       2 UNK        -0.1800 
     64 N          -0.5347  -12.0455  -46.8132 N.am      2 UNK        -0.5000 
     65 C          -1.2573  -12.8637  -47.5917 C.2       1 UNK         0.5000 
     66 O          -2.4676  -13.0400  -47.4428 O.2       1 UNK        -0.5000 
     67 C          -1.3656  -23.1508  -46.6986 C.2       11 UNK         0.5000 
     68 O          -1.9708  -23.8097  -47.5454 O.2       11 UNK        -0.5000 
     69 N          -1.8888  -22.8265  -45.5064 N.am      12 UNK        -0.5000 
     70 CA         -3.2013  -23.2557  -45.0116 C.3       12 UNK         0.1400 
     71 CB         -3.4619  -22.6267  -43.6358 C.3       12 UNK        -0.1800 
     72 C          -3.3716  -24.7860  -44.9461 C.2       12 UNK         0.5000 
     73 O          -4.4826  -25.2795  -45.1392 O.2       12 UNK        -0.5000 
     74 N          -2.2678  -25.5066  -44.7072 N.am      13 UNK        -0.5000 
     75 CA         -2.2203  -26.9681  -44.7157 C.3       13 UNK         0.1400 
     76 CB         -1.0586  -27.4233  -43.8187 C.3       13 UNK        -0.1800 
     77 C          -2.0628  -27.5560  -46.1329 C.2       13 UNK         0.5000 
     78 O          -2.3577  -28.7362  -46.3261 O.2       13 UNK        -0.5000 
     79 N          -1.5774  -26.7482  -47.0854 N.am      14 UNK        -0.5000 
     80 CA         -1.2439  -27.1722  -48.4440 C.3       14 UNK         0.1400 
     81 CB          0.0313  -26.4444  -48.9017 C.3       14 UNK        -0.1800 
     82 C          -2.3915  -26.9173  -49.4334 C.2       14 UNK         0.5000 
     83 O          -2.7389  -27.8199  -50.1965 O.2       14 UNK        -0.5000 
     84 N          -2.9420  -25.6962  -49.4234 N.am      15 UNK        -0.5000 
     85 CA         -3.9334  -25.2364  -50.4010 C.3       15 UNK         0.1400 
     86 CB         -3.2197  -24.8097  -51.6997 C.3       15 UNK        -0.1800 
     87 C          -4.8246  -24.0910  -49.8917 C.2       15 UNK         0.5000 
     88 O          -5.9005  -23.8919  -50.4560 O.2       15 UNK        -0.5000 
     89 N          -4.3709  -23.3458  -48.8702 N.am      16 UNK        -0.5000 
     90 CA         -4.9888  -22.1272  -48.3310 C.3       16 UNK         0.1400 
     91 CB         -6.3203  -22.4459  -47.6201 C.3       16 UNK        -0.1800 
     92 C          -5.1073  -21.0244  -49.4007 C.2       16 UNK         0.5000 
     93 O          -6.1860  -20.4691  -49.6173 O.2       16 UNK        -0.5000 
     94 N          -3.9822  -20.7758  -50.0854 N.am      17 UNK        -0.5000 
     95 CA         -3.7599  -19.8485  -51.2008 C.3       17 UNK         0.1400 
     96 CB         -4.0854  -18.3944  -50.8111 C.3       17 UNK        -0.1800 
     97 C          -4.4597  -20.2453  -52.5150 C.2       17 UNK         0.5000 
     98 O          -3.8512  -20.0929  -53.5716 O.2       17 UNK        -0.5000 
     99 N          -5.7057  -20.7365  -52.4402 N.am      18 UNK        -0.5000 
    100 CA        -6.5530  -21.2232  -53.5377 C.3       18 UNK         0.1400 
    101 CB        -6.0593  -22.6012  -54.0192 C.3       18 UNK        -0.1800 
    102 C         -6.6677  -20.2015  -54.6874 C.2       18 UNK         0.5000 
    103 O         -6.1541  -20.4359  -55.7831 O.2       18 UNK        -0.5000 
    104 N         -7.2668  -19.0416  -54.3763 N.am      19 UNK        -0.5000 
    105 CA        -7.3946  -17.8596  -55.2450 C.3       19 UNK         0.1400 
    106 CB        -8.3085  -18.1593  -56.4520 C.3       19 UNK        -0.1800 
    107 C         -6.0283  -17.2650  -55.6595 C.2       19 UNK         0.5000 
    108 O         -5.8992  -16.6981  -56.7452 O.2       19 UNK        -0.5000 
    109 N         -5.0343  -17.4346  -54.7755 N.am      20 UNK        -0.5000 
    110 CA        -3.6171  -17.0816  -54.9042 C.3       20 UNK         0.1400 
    111 CB        -3.4346  -15.5634  -55.1101 C.3       20 UNK        -0.1800 
    112 C         -2.8353  -17.9149  -55.9445 C.2       20 UNK         0.5000 
    113 O         -1.6800  -17.5886  -56.2217 O.2       20 UNK        -0.5000 
    114 N         -3.4472  -18.9729  -56.4931 N.am      21 UNK        -0.5000 
    115 CA        -2.8448  -19.8365  -57.5071 C.3       21 UNK         0.1400 
    116 CB        -3.9368  -20.2670  -58.4991 C.3       21 UNK        -0.1800 
    117 C         -2.1539  -21.0742  -56.9077 C.2       21 UNK         0.5000 
    118 O         -1.2684  -21.6304  -57.5586 O.2       21 UNK        -0.5000 
    119 N         -2.5730  -21.5008  -55.7071 N.am      22 UNK        -0.5000 
    120 CA        -2.1338  -22.7313  -55.0206 C.3       22 UNK         0.1400 
    121 C         -2.4077  -24.0561  -55.8026 C.2       22 UNK         0.5000 
    122 N         -3.3738  -24.0902  -56.7129 N.am      22 UNK        -0.7600 
    123 O         -1.7704  -25.0782  -55.5641 O.2       22 UNK        -0.5000 
    124 C124       -0.6895  -22.6140  -54.4540 C.3       23 UNK        -0.0398 
    125 S125       -0.6910  -21.6831  -52.8887 S.3       23 UNK        -0.2404 
    126 C126        0.0683  -20.0947  -53.3600 C.3       23 UNK        -0.0205 
    127 H127        3.5528  -13.8513  -46.8276 H         1 UNK         0.0600 
    128 H128        3.4578  -13.1899  -48.4618 H         1 UNK         0.0600 
    129 H129        3.7311  -14.9181  -48.2256 H         1 UNK         0.0600 
    130 H130        1.3764  -12.8137  -49.1723 H         1 UNK         0.3000 
    131 H131       -0.8067  -14.6654  -48.5650 H         1 UNK         0.0600 
    132 H132       -0.7983  -12.1612  -50.3037 H         1 UNK         0.0800 
    133 H133       -2.1211  -13.2836  -50.1727 H         1 UNK         0.0800 
    134 H134       -1.9263  -15.5296  -52.6343 H         1 UNK         0.0800 
    135 H135       -2.3146  -15.4613  -50.9375 H         1 UNK         0.0800 
    136 H136       -0.9328  -17.5527  -53.4619 H         1 UNK         0.1150 
    137 H137        0.8340  -20.3678  -50.7538 H         1 UNK         0.1150 
    138 H138       -0.6131  -16.6288  -49.2895 H         1 UNK         0.1150 
    139 H139        1.5844  -19.3098  -48.4548 H         1 UNK         0.0800 
    140 H140        0.6138  -18.0086  -47.8396 H         1 UNK         0.0800 
    141 H141       -0.3152  -22.0600  -49.0381 H         1 UNK         0.0800 
    142 H142        1.2037  -21.5215  -48.3965 H         1 UNK         0.0800 
    143 H143        0.5613  -23.6200  -47.4047 H         1 UNK         0.0600 
    144 H144        1.1522  -21.4014  -45.7098 H         1 UNK         0.3000 
    145 H145        2.1666  -23.5740  -42.9746 H         1 UNK         0.0600 
    146 H146        4.1706  -22.1632  -43.3306 H         1 UNK         0.0600 
    147 H147        3.5728  -21.6613  -44.9092 H         1 UNK         0.0600 
    148 H148        4.0047  -23.3410  -44.6242 H         1 UNK         0.0600 
    149 H149        2.0396  -20.7248  -43.1603 H         1 UNK         0.3000 
    150 H150       -1.1095  -20.3533  -41.5147 H         1 UNK         0.0600 
    151 H151        0.4840  -20.7585  -39.6541 H         1 UNK         0.0600 
    152 H152        0.3041  -19.0352  -39.9474 H         1 UNK         0.0600 
    153 H153        1.7468  -19.8802  -40.5051 H         1 UNK         0.0600 
    154 H154        0.9257  -18.5223  -42.4346 H         1 UNK         0.3000 
    155 H155       -0.3808  -18.1028  -45.7106 H         1 UNK         0.0600 
    156 H156       -1.8095  -16.6217  -44.3311 H         1 UNK         0.0600 
    157 H157       -0.4590  -15.7434  -45.0268 H         1 UNK         0.0600 
    158 H158       -0.4338  -16.1951  -43.3230 H         1 UNK         0.0600 
    159 H159        1.7624  -16.8464  -44.3260 H         1 UNK         0.3000 
    160 H160        4.3121  -19.2277  -45.1735 H         1 UNK         0.0600 
    161 H161        3.7118  -16.3767  -46.1220 H         1 UNK         0.0600 
    162 H162        3.9319  -17.7624  -47.1825 H         1 UNK         0.0600 
    163 H163        5.2727  -17.1942  -46.1982 H         1 UNK         0.0600 
    164 H164        4.4560  -16.7505  -43.8053 H         1 UNK         0.3000 
    165 H165        3.5607  -17.7503  -40.5553 H         1 UNK         0.0600 
    166 H166        5.8737  -17.0651  -39.9627 H         1 UNK         0.0600 
    167 H167        5.8797  -18.6704  -40.6750 H         1 UNK         0.0600 
    168 H168        6.3963  -17.2880  -41.6331 H         1 UNK         0.0600 
    169 H169        4.8009  -15.3938  -41.6076 H         1 UNK         0.3000 
    170 H170        3.6077  -13.4761  -41.7769 H         1 UNK         0.0600 
    171 H171        2.1181  -14.4034  -44.2959 H         1 UNK         0.0600 
    172 H172        2.8349  -12.8078  -44.0847 H         1 UNK         0.0600 
    173 H173        3.8577  -14.2352  -44.1123 H         1 UNK         0.0600 
    174 H174        0.8198  -13.1838  -42.5191 H         1 UNK         0.3000 
    175 H175       -0.4666  -12.7053  -39.3207 H         1 UNK         0.0600 
    176 H176        0.5885  -10.2634  -40.8469 H         1 UNK         0.0600 
    177 H177       -0.7386  -10.2600  -39.6842 H         1 UNK         0.0600 
    178 H178        0.8945  -10.6230  -39.1520 H         1 UNK         0.0600 
    179 H179       -1.1473  -11.6032  -41.9243 H         1 UNK         0.3000 
    180 H180       -2.6534  -14.4318  -43.2413 H         1 UNK         0.0600 
    181 H181       -4.2849  -12.2082  -41.9050 H         1 UNK         0.0600 
    182 H182       -4.4834  -13.9313  -41.6097 H         1 UNK         0.0600 
    183 H183       -4.8408  -13.2734  -43.1974 H         1 UNK         0.0600 
    184 H184       -3.0577  -11.7974  -44.0566 H         1 UNK         0.3000 
    185 H185       -2.0106  -10.9574  -45.8117 H         1 UNK         0.0600 
    186 H186        0.9271  -10.6817  -44.9570 H         1 UNK         0.0600 
    187 H187        0.0348   -9.5387  -45.9611 H         1 UNK         0.0600 
    188 H188       -0.4245   -9.7794  -44.2826 H         1 UNK         0.0600 
    189 H189        0.4611  -12.0003  -46.9691 H         1 UNK         0.3000 
    190 H190       -1.3363  -22.2528  -44.8837 H         1 UNK         0.3000 
    191 H191       -3.9575  -22.8784  -45.6974 H         1 UNK         0.0600 
    192 H192       -3.4272  -21.5385  -43.6850 H         1 UNK         0.0600 
    193 H193       -2.7293  -22.9546  -42.8985 H         1 UNK         0.0600 
    194 H194       -4.4488  -22.9016  -43.2613 H         1 UNK         0.0600 
    195 H195       -1.3897  -25.0246  -44.5620 H         1 UNK         0.3000 
    196 H196       -3.1479  -27.3616  -44.2945 H         1 UNK         0.0600 
    197 H197       -1.1821  -27.0594  -42.7985 H         1 UNK         0.0600 
    198 H198       -0.0986  -27.0617  -44.1898 H         1 UNK         0.0600 
    199 H199       -1.0037  -28.5117  -43.7706 H         1 UNK         0.0600 
    200 H200       -1.4286  -25.7738  -46.8641 H         1 UNK         0.3000 
    201 H201       -1.0282  -28.2430  -48.4506 H         1 UNK         0.0600 
    202 H202        0.8596  -26.6320  -48.2181 H         1 UNK         0.0600 
    203 H203       -0.1137  -25.3660  -48.9647 H         1 UNK         0.0600 
    204 H204        0.3407  -26.7887  -49.8893 H         1 UNK         0.0600 
    205 H205       -2.6044  -25.0193  -48.7457 H         1 UNK         0.3000 
    206 H206       -4.6078  -26.0639  -50.6318 H         1 UNK         0.0600 
    207 H207       -2.6757  -25.6404  -52.1492 H         1 UNK         0.0600 
    208 H208       -2.5080  -24.0034  -51.5182 H         1 UNK         0.0600 
    209 H209       -3.9335  -24.4553  -52.4441 H         1 UNK         0.0600 
    210 H210       -3.4728  -23.5788  -48.4560 H         1 UNK         0.3000 
    211 H211       -4.2997  -21.7309  -47.5854 H         1 UNK         0.0600 
    212 H212       -7.0833  -22.7908  -48.3183 H         1 UNK         0.0600 
    213 H213       -6.7141  -21.5615  -47.1181 H         1 UNK         0.0600 
    214 H214       -6.1878  -23.2184  -46.8625 H         1 UNK         0.0600 
    215 H215       -3.1721  -21.3265  -49.8400 H         1 UNK         0.3000 
    216 H216       -2.6889  -19.8934  -51.3991 H         1 UNK         0.0600 
    217 H217       -3.8098  -17.7072  -51.6108 H         1 UNK         0.0600 
    218 H218       -3.5297  -18.0941  -49.9226 H         1 UNK         0.0600 
    219 H219       -5.1468  -18.2484  -50.6107 H         1 UNK         0.0600 
    220 H220       -6.1156  -20.7800  -51.5111 H         1 UNK         0.3000 
    221 H221       -7.5552  -21.3565  -53.1279 H         1 UNK         0.0600 
    222 H222       -5.0644  -22.5441  -54.4561 H         1 UNK         0.0600 
    223 H223       -6.0267  -23.3167  -53.1982 H         1 UNK         0.0600 
    224 H224       -6.7254  -23.0095  -54.7800 H         1 UNK         0.0600 
    225 H225       -7.6334  -18.9346  -53.4403 H         1 UNK         0.3000 
    226 H226       -7.8856  -17.0919  -54.6455 H         1 UNK         0.0600 
    227 H227       -9.2619  -18.5782  -56.1305 H         1 UNK         0.0600 
    228 H228       -8.5280  -17.2493  -57.0116 H         1 UNK         0.0600 
    229 H229       -7.8486  -18.8642  -57.1453 H         1 UNK         0.0600 
    230 H230       -5.2601  -17.9630  -53.9457 H         1 UNK         0.3000 
    231 H231       -3.1760  -17.3335  -53.9409 H         1 UNK         0.0600 
    232 H232       -2.3826  -15.2825  -55.0502 H         1 UNK         0.0600 
    233 H233       -3.9646  -14.9946  -54.3462 H         1 UNK         0.0600 
    234 H234       -3.7981  -15.2384  -56.0850 H         1 UNK         0.0600 
    235 H235       -4.3812  -19.2179  -56.1852 H         1 UNK         0.3000 
    236 H236       -2.0917  -19.2787  -58.0677 H         1 UNK         0.0600 
    237 H237       -4.7136  -20.8588  -58.0142 H         1 UNK         0.0600 
    238 H238       -4.4142  -19.4017  -58.9593 H         1 UNK         0.0600 
    239 H239       -3.5172  -20.8730  -59.3032 H         1 UNK         0.0600 
    240 H240       -3.2448  -20.9381  -55.1922 H         1 UNK         0.3000 
    241 H241       -2.8006  -22.8279  -54.1641 H         1 UNK         0.0600 
    242 H242       -3.5567  -24.9485  -57.2086 H         1 UNK         0.3800 
    243 H243       -3.9195  -23.2679  -56.9136 H         1 UNK         0.3800 
    244 H244       -0.0089  -22.1604  -55.1751 H         1 UNK         0.0800 
    245 H245       -0.2661  -23.5909  -54.2181 H         1 UNK         0.0800 
    246 H246       -0.4201  -19.7244  -54.2632 H         1 UNK         0.0800 
    247 H247        1.1203  -20.2476  -53.6034 H         1 UNK         0.0800 
@<TRIPOS>BOND
     1    1    2 1    
     2    1  127 1    
     3    1  128 1    
     4    1  129 1    
     5    2    3 2    
     6    2    4 am   BACKBONE|DICT|INTERRES
     7    4    5 1    
     8    4  130 1    
     9    5    6 1    
    10    5   65 1    
    11    5  131 1    
    12    6    7 1    
    13    6  132 1    
    14    6  133 1    
    15    7    8 1    
    16    8    9 1    
    17    8  134 1    
    18    8  135 1    
    19    9   10 ar   
    20    9   14 ar   
    21   10   11 ar   
    22   10  136 1    
    23   11   12 ar   
    24   11  126 1    
    25   12   13 ar   
    26   12  137 1    
    27   13   14 ar   
    28   13   15 1    
    29   14  138 1    
    30   15   16 1    
    31   15  139 1    
    32   15  140 1    
    33   16   17 1    
    34   17   18 1    
    35   17  141 1    
    36   17  142 1    
    37   18   19 1    
    38   18   67 1    
    39   18  143 1    
    40   19   20 am   BACKBONE|DICT|INTERRES
    41   19  144 1    
    42   20   21 2    
    43   20   22 1    
    44   22   23 1    
    45   22   24 1    
    46   22  145 1    
    47   23  146 1    
    48   23  147 1    
    49   23  148 1    
    50   24   25 am   BACKBONE|DICT|INTERRES
    51   24  149 1    
    52   25   26 2    
    53   25   27 1    
    54   27   28 1    
    55   27   29 1    
    56   27  150 1    
    57   28  151 1    
    58   28  152 1    
    59   28  153 1    
    60   29   30 am   BACKBONE|DICT|INTERRES
    61   29  154 1    
    62   30   31 2    
    63   30   32 1    
    64   32   33 1    
    65   32   34 1    
    66   32  155 1    
    67   33  156 1    
    68   33  157 1    
    69   33  158 1    
    70   34   35 am   BACKBONE|DICT|INTERRES
    71   34  159 1    
    72   35   36 2    
    73   35   37 1    
    74   37   38 1    
    75   37   39 1    
    76   37  160 1    
    77   38  161 1    
    78   38  162 1    
    79   38  163 1    
    80   39   40 am   BACKBONE|DICT|INTERRES
    81   39  164 1    
    82   40   41 2    
    83   40   42 1    
    84   42   43 1    
    85   42   44 1    
    86   42  165 1    
    87   43  166 1    
    88   43  167 1    
    89   43  168 1    
    90   44   45 am   BACKBONE|DICT|INTERRES
    91   44  169 1    
    92   45   46 2    
    93   45   47 1    
    94   47   48 1    
    95   47   49 1    
    96   47  170 1    
    97   48  171 1    
    98   48  172 1    
    99   48  173 1    
   100   49   50 am   BACKBONE|DICT|INTERRES
   101   49  174 1    
   102   50   51 2    
   103   50   52 1    
   104   52   53 1    
   105   52   54 1    
   106   52  175 1    
   107   53  176 1    
   108   53  177 1    
   109   53  178 1    
   110   54   55 am   BACKBONE|DICT|INTERRES
   111   54  179 1    
   112   55   56 2    
   113   55   57 1    
   114   57   58 1    
   115   57   59 1    
   116   57  180 1    
   117   58  181 1    
   118   58  182 1    
   119   58  183 1    
   120   59   60 am   BACKBONE|DICT|INTERRES
   121   59  184 1    
   122   60   61 2    
   123   60   62 1    
   124   62   63 1    
   125   62   64 1    
   126   62  185 1    
   127   63  186 1    
   128   63  187 1    
   129   63  188 1    
   130   64   65 am   BACKBONE|DICT|INTERRES
   131   64  189 1    
   132   65   66 2    
   133   67   68 2    
   134   67   69 am   BACKBONE|DICT|INTERRES
   135   69   70 1    
   136   69  190 1    
   137   70   71 1    
   138   70   72 1    
   139   70  191 1    
   140   71  192 1    
   141   71  193 1    
   142   71  194 1    
   143   72   73 2    
   144   72   74 am   BACKBONE|DICT|INTERRES
   145   74   75 1    
   146   74  195 1    
   147   75   76 1    
   148   75   77 1    
   149   75  196 1    
   150   76  197 1    
   151   76  198 1    
   152   76  199 1    
   153   77   78 2    
   154   77   79 am   BACKBONE|DICT|INTERRES
   155   79   80 1    
   156   79  200 1    
   157   80   81 1    
   158   80   82 1    
   159   80  201 1    
   160   81  202 1    
   161   81  203 1    
   162   81  204 1    
   163   82   83 2    
   164   82   84 am   BACKBONE|DICT|INTERRES
   165   84   85 1    
   166   84  205 1    
   167   85   86 1    
   168   85   87 1    
   169   85  206 1    
   170   86  207 1    
   171   86  208 1    
   172   86  209 1    
   173   87   88 2    
   174   87   89 am   BACKBONE|DICT|INTERRES
   175   89   90 1    
   176   89  210 1    
   177   90   91 1    
   178   90   92 1    
   179   90  211 1    
   180   91  212 1    
   181   91  213 1    
   182   91  214 1    
   183   92   93 2    
   184   92   94 am   BACKBONE|DICT|INTERRES
   185   94   95 1    
   186   94  215 1    
   187   95   96 1    
   188   95   97 1    
   189   95  216 1    
   190   96  217 1    
   191   96  218 1    
   192   96  219 1    
   193   97   98 2    
   194   97   99 am   BACKBONE|DICT|INTERRES
   195   99  100 1    
   196   99  220 1    
   197  100  101 1    
   198  100  102 1    
   199  100  221 1    
   200  101  222 1    
   201  101  223 1    
   202  101  224 1    
   203  102  103 2    
   204  102  104 am   BACKBONE|DICT|INTERRES
   205  104  105 1    
   206  104  225 1    
   207  105  106 1    
   208  105  107 1    
   209  105  226 1    
   210  106  227 1    
   211  106  228 1    
   212  106  229 1    
   213  107  108 2    
   214  107  109 am   BACKBONE|DICT|INTERRES
   215  109  110 1    
   216  109  230 1    
   217  110  111 1    
   218  110  112 1    
   219  110  231 1    
   220  111  232 1    
   221  111  233 1    
   222  111  234 1    
   223  112  113 2    
   224  112  114 am   BACKBONE|DICT|INTERRES
   225  114  115 1    
   226  114  235 1    
   227  115  116 1    
   228  115  117 1    
   229  115  236 1    
   230  116  237 1    
   231  116  238 1    
   232  116  239 1    
   233  117  118 2    
   234  117  119 am   BACKBONE|DICT|INTERRES
   235  119  120 1    
   236  119  240 1    
   237  120  121 1    
   238  120  124 1    
   239  120  241 1    
   240  121  122 am   BACKBONE|DICT|INTERRES
   241  121  123 2    
   242  122  242 1    
   243  122  243 1    
   244  124  125 1    
   245  124  244 1    
   246  124  245 1    
   247  125  126 1    
   248  126  246 1    
   249  126  247 1    
@<TRIPOS>SUBSTRUCTURE
     1 UNK         1 GROUP             0       ****    0 ROOT    
