@<TRIPOS>MOLECULE
3R540
247   249    1
SMALL
USER_CHARGES


@<TRIPOS>ATOM
      1 CA         -5.4168  -17.4363  -45.8259 C.3       0 UNK        -0.1800 
      2 C          -4.5634  -16.1840  -45.6780 C.2       0 UNK         0.5000 
      3 O          -5.0720  -15.1320  -45.2898 O.2       0 UNK        -0.5000 
      4 N          -3.2606  -16.2950  -45.9651 N.am      1 UNK        -0.5000 
      5 CA         -2.2569  -15.2228  -45.9128 C.3       1 UNK         0.1400 
      6 C6         -1.0383  -15.5368  -46.8209 C.3       23 UNK        -0.0398 
      7 S7         -1.4910  -15.6868  -48.5797 S.3       23 UNK        -0.2404 
      8 C8          0.0916  -16.2283  -49.3159 C.3       23 UNK        -0.0205 
      9 C9          0.0466  -17.6220  -49.9402 C.ar      23 UNK        -0.0193 
     10 C10        -1.0286  -18.0096  -50.7464 C.ar      23 UNK        -0.1150 
     11 C11        -1.0312  -19.2500  -51.3886 C.ar      23 UNK        -0.0193 
     12 C12         0.0567  -20.1116  -51.2250 C.ar      23 UNK        -0.1150 
     13 C13         1.1522  -19.7317  -50.4439 C.ar      23 UNK        -0.0193 
     14 C14         1.1315  -18.4942  -49.7891 C.ar      23 UNK        -0.1150 
     15 C15         2.3986  -20.6096  -50.3987 C.3       23 UNK        -0.0205 
     16 S16         2.1184  -22.2438  -49.6444 S.3       23 UNK        -0.2404 
     17 C17         1.9958  -21.8000  -47.8806 C.3       23 UNK        -0.0398 
     18 CA          0.8546  -22.5184  -47.1223 C.3       11 UNK         0.1400 
     19 N           0.9075  -22.2195  -45.6884 N.am      11 UNK        -0.5000 
     20 C           0.1307  -22.7769  -44.7494 C.2       10 UNK         0.5000 
     21 O          -0.6862  -23.6672  -44.9774 O.2       10 UNK        -0.5000 
     22 CA          0.2529  -22.2172  -43.3211 C.3       10 UNK         0.1400 
     23 CB          1.4478  -22.8479  -42.5913 C.3       10 UNK        -0.1800 
     24 N           0.3650  -20.7579  -43.2908 N.am      10 UNK        -0.5000 
     25 C          -0.5867  -19.9111  -43.7113 C.2       9 UNK         0.5000 
     26 O          -1.6846  -20.2713  -44.1343 O.2       9 UNK        -0.5000 
     27 CA         -0.2326  -18.4127  -43.7153 C.3       9 UNK         0.1400 
     28 CB         -0.3181  -17.8194  -42.3014 C.3       9 UNK        -0.1800 
     29 N           1.0931  -18.1594  -44.2774 N.am      9 UNK        -0.5000 
     30 C           1.4544  -18.4484  -45.5349 C.2       8 UNK         0.5000 
     31 O           0.6838  -18.9016  -46.3805 O.2       8 UNK        -0.5000 
     32 CA          2.9382  -18.2539  -45.8885 C.3       8 UNK         0.1400 
     33 CB          3.2468  -16.7882  -46.2263 C.3       8 UNK        -0.1800 
     34 N           3.8157  -18.7052  -44.8086 N.am      8 UNK        -0.5000 
     35 C           3.9975  -19.9887  -44.4691 C.2       7 UNK         0.5000 
     36 O           3.4685  -20.9306  -45.0579 O.2       7 UNK        -0.5000 
     37 CA          4.8910  -20.2631  -43.2453 C.3       7 UNK         0.1400 
     38 CB          6.3736  -20.2594  -43.6461 C.3       7 UNK        -0.1800 
     39 N           4.6781  -19.2996  -42.1643 N.am      7 UNK        -0.5000 
     40 C           3.5475  -19.2020  -41.4507 C.2       6 UNK         0.5000 
     41 O           2.5776  -19.9427  -41.6039 O.2       6 UNK        -0.5000 
     42 CA          3.4667  -18.0497  -40.4309 C.3       6 UNK         0.1400 
     43 CB          4.0617  -18.4806  -39.0822 C.3       6 UNK        -0.1800 
     44 N           4.1198  -16.8150  -40.8796 N.am      6 UNK        -0.5000 
     45 C           3.7949  -16.1428  -41.9917 C.2       5 UNK         0.5000 
     46 O           2.9413  -16.5278  -42.7936 O.2       5 UNK        -0.5000 
     47 CA          4.6035  -14.8642  -42.2837 C.3       5 UNK         0.1400 
     48 CB          5.9436  -15.2282  -42.9426 C.3       5 UNK        -0.1800 
     49 N           3.8861  -13.9444  -43.1681 N.am      5 UNK        -0.5000 
     50 C           2.7432  -13.3172  -42.8611 C.2       4 UNK         0.5000 
     51 O           2.2280  -13.3601  -41.7405 O.2       4 UNK        -0.5000 
     52 CA          2.0909  -12.4955  -43.9933 C.3       4 UNK         0.1400 
     53 CB          2.1022  -13.2411  -45.3424 C.3       4 UNK        -0.1800 
     54 N           0.7071  -12.1639  -43.6602 N.am      4 UNK        -0.5000 
     55 C           0.3064  -11.0361  -43.0571 C.2       3 UNK         0.5000 
     56 O           1.0675  -10.1105  -42.7700 O.2       3 UNK        -0.5000 
     57 CA         -1.1965  -10.8956  -42.7329 C.3       3 UNK         0.1400 
     58 CB         -1.8657   -9.9127  -43.7069 C.3       3 UNK        -0.1800 
     59 N          -1.9213  -12.1660  -42.7826 N.am      3 UNK        -0.5000 
     60 C          -1.8900  -13.1066  -41.8289 C.2       2 UNK         0.5000 
     61 O          -1.3173  -12.9643  -40.7484 O.2       2 UNK        -0.5000 
     62 CA         -2.6128  -14.4347  -42.1354 C.3       2 UNK         0.1400 
     63 CB         -3.9812  -14.4796  -41.4389 C.3       2 UNK        -0.1800 
     64 N          -2.8032  -14.7019  -43.5652 N.am      2 UNK        -0.5000 
     65 C          -1.8278  -14.9030  -44.4603 C.2       1 UNK         0.5000 
     66 O          -0.6348  -14.8347  -44.1685 O.2       1 UNK        -0.5000 
     67 C          -0.5363  -22.2065  -47.7135 C.2       11 UNK         0.5000 
     68 O          -1.1302  -23.0680  -48.3632 O.2       11 UNK        -0.5000 
     69 N          -1.0534  -21.0053  -47.4259 N.am      12 UNK        -0.5000 
     70 CA         -2.3826  -20.5635  -47.8383 C.3       12 UNK         0.1400 
     71 CB         -2.5558  -19.0913  -47.4627 C.3       12 UNK        -0.1800 
     72 C          -3.5123  -21.4134  -47.2305 C.2       12 UNK         0.5000 
     73 O          -4.4644  -21.7418  -47.9372 O.2       12 UNK        -0.5000 
     74 N          -3.3752  -21.7801  -45.9482 N.am      13 UNK        -0.5000 
     75 CA         -4.2964  -22.6646  -45.2349 C.3       13 UNK         0.1400 
     76 CB         -3.9581  -22.6730  -43.7371 C.3       13 UNK        -0.1800 
     77 C          -4.3076  -24.0940  -45.8060 C.2       13 UNK         0.5000 
     78 O          -5.3857  -24.6576  -45.9921 O.2       13 UNK        -0.5000 
     79 N          -3.1235  -24.6378  -46.1236 N.am      14 UNK        -0.5000 
     80 CA         -2.9499  -25.9379  -46.7793 C.3       14 UNK         0.1400 
     81 CB         -1.4617  -26.3181  -46.7871 C.3       14 UNK        -0.1800 
     82 C          -3.5304  -25.9694  -48.2063 C.2       14 UNK         0.5000 
     83 O          -4.0940  -26.9859  -48.6127 O.2       14 UNK        -0.5000 
     84 N          -3.4278  -24.8398  -48.9188 N.am      15 UNK        -0.5000 
     85 CA         -4.0555  -24.6001  -50.2194 C.3       15 UNK         0.1400 
     86 CB         -3.3277  -23.4344  -50.9113 C.3       15 UNK        -0.1800 
     87 C          -5.5710  -24.3151  -50.1300 C.2       15 UNK         0.5000 
     88 O          -6.2092  -24.1680  -51.1715 O.2       15 UNK        -0.5000 
     89 N          -6.1213  -24.2038  -48.9097 N.am      16 UNK        -0.5000 
     90 CA         -7.5120  -23.8627  -48.5821 C.3       16 UNK         0.1400 
     91 CB         -8.4617  -25.0038  -49.0009 C.3       16 UNK        -0.1800 
     92 C          -7.9434  -22.4869  -49.1362 C.2       16 UNK         0.5000 
     93 O          -9.1083  -22.2993  -49.4911 O.2       16 UNK        -0.5000 
     94 N          -6.9755  -21.5623  -49.2251 N.am      17 UNK        -0.5000 
     95 CA         -7.0474  -20.2237  -49.8169 C.3       17 UNK         0.1400 
     96 CB         -7.9933  -19.3168  -49.0033 C.3       17 UNK        -0.1800 
     97 C          -7.3599  -20.2040  -51.3321 C.2       17 UNK         0.5000 
     98 O          -7.6738  -19.1380  -51.8653 O.2       17 UNK        -0.5000 
     99 N          -7.2552  -21.3551  -52.0125 N.am      18 UNK        -0.5000 
    100 CA        -7.3995  -21.4712  -53.4623 C.3       18 UNK         0.1400 
    101 CB        -7.7866  -22.9146  -53.8201 C.3       18 UNK        -0.1800 
    102 C         -6.0955  -21.0680  -54.1715 C.2       18 UNK         0.5000 
    103 O         -5.0156  -21.1624  -53.5830 O.2       18 UNK        -0.5000 
    104 N         -6.2223  -20.6369  -55.4311 N.am      19 UNK        -0.5000 
    105 CA        -5.0998  -20.2586  -56.2862 C.3       19 UNK         0.1400 
    106 CB        -5.6346  -19.4724  -57.4933 C.3       19 UNK        -0.1800 
    107 C         -4.2879  -21.4807  -56.7557 C.2       19 UNK         0.5000 
    108 O         -4.8461  -22.5612  -56.9632 O.2       19 UNK        -0.5000 
    109 N         -2.9899  -21.2547  -56.9570 N.am      20 UNK        -0.5000 
    110 CA        -2.0094  -22.1927  -57.4918 C.3       20 UNK         0.1400 
    111 CB        -1.5305  -23.1519  -56.3807 C.3       20 UNK        -0.1800 
    112 C         -0.9040  -21.3269  -58.1170 C.2       20 UNK         0.5000 
    113 O         -1.2189  -20.4708  -58.9468 O.2       20 UNK        -0.5000 
    114 N          0.3464  -21.4637  -57.6515 N.am      21 UNK        -0.5000 
    115 CA         1.4391  -20.5189  -57.9313 C.3       21 UNK         0.1400 
    116 CB         2.7467  -21.0703  -57.3434 C.3       21 UNK        -0.1800 
    117 C          1.1494  -19.1021  -57.3839 C.2       21 UNK         0.5000 
    118 O          1.6059  -18.1115  -57.9543 O.2       21 UNK        -0.5000 
    119 N          0.3470  -19.0501  -56.3148 N.am      22 UNK        -0.5000 
    120 CA        -0.3026  -17.8638  -55.7428 C.3       22 UNK         0.1400 
    121 C         -1.4712  -17.2711  -56.5901 C.2       22 UNK         0.5000 
    122 N         -1.8784  -17.8660  -57.7066 N.am      22 UNK        -0.7600 
    123 O         -2.0183  -16.2323  -56.2309 O.2       22 UNK        -0.5000 
    124 C124       -0.7359  -18.1358  -54.2763 C.3       23 UNK        -0.0398 
    125 S125       -1.6779  -19.6945  -54.0630 S.3       23 UNK        -0.2404 
    126 C126       -2.1824  -19.6246  -52.3112 C.3       23 UNK        -0.0205 
    127 H127       -5.8437  -17.4854  -46.8276 H         1 UNK         0.0600 
    128 H128       -6.2353  -17.4249  -45.1061 H         1 UNK         0.0600 
    129 H129       -4.8342  -18.3409  -45.6519 H         1 UNK         0.0600 
    130 H130       -2.9098  -17.1853  -46.2854 H         1 UNK         0.3000 
    131 H131       -2.7193  -14.3106  -46.2960 H         1 UNK         0.0600 
    132 H132       -0.5502  -16.4576  -46.5007 H         1 UNK         0.0800 
    133 H133       -0.2898  -14.7459  -46.7491 H         1 UNK         0.0800 
    134 H134        0.3672  -15.5168  -50.0951 H         1 UNK         0.0800 
    135 H135        0.8806  -16.1750  -48.5665 H         1 UNK         0.0800 
    136 H136       -1.8554  -17.3303  -50.8973 H         1 UNK         0.1150 
    137 H137        0.0717  -21.0585  -51.7463 H         1 UNK         0.1150 
    138 H138        1.9825  -18.1888  -49.1972 H         1 UNK         0.1150 
    139 H139        2.7496  -20.7591  -51.4206 H         1 UNK         0.0800 
    140 H140        3.2119  -20.1071  -49.8728 H         1 UNK         0.0800 
    141 H141        1.8902  -20.7201  -47.7853 H         1 UNK         0.0800 
    142 H142        2.9533  -22.0485  -47.4218 H         1 UNK         0.0800 
    143 H143        1.0136  -23.5939  -47.2250 H         1 UNK         0.0600 
    144 H144        1.5974  -21.5335  -45.3998 H         1 UNK         0.3000 
    145 H145       -0.6548  -22.4904  -42.7797 H         1 UNK         0.0600 
    146 H146        1.4853  -22.5292  -41.5495 H         1 UNK         0.0600 
    147 H147        1.3786  -23.9364  -42.5957 H         1 UNK         0.0600 
    148 H148        2.3947  -22.5762  -43.0584 H         1 UNK         0.0600 
    149 H149        1.2245  -20.3786  -42.9031 H         1 UNK         0.3000 
    150 H150       -0.9616  -17.8989  -44.3445 H         1 UNK         0.0600 
    151 H151        0.3501  -18.3292  -41.6078 H         1 UNK         0.0600 
    152 H152       -0.0518  -16.7623  -42.3002 H         1 UNK         0.0600 
    153 H153       -1.3307  -17.9033  -41.9055 H         1 UNK         0.0600 
    154 H154        1.7786  -17.7268  -43.6629 H         1 UNK         0.3000 
    155 H155        3.1503  -18.8539  -46.7757 H         1 UNK         0.0600 
    156 H156        3.0936  -16.1347  -45.3689 H         1 UNK         0.0600 
    157 H157        4.2791  -16.6696  -46.5554 H         1 UNK         0.0600 
    158 H158        2.6066  -16.4277  -47.0306 H         1 UNK         0.0600 
    159 H159        4.2223  -17.9874  -44.2272 H         1 UNK         0.3000 
    160 H160        4.6422  -21.2574  -42.8683 H         1 UNK         0.0600 
    161 H161        6.6926  -19.2809  -44.0073 H         1 UNK         0.0600 
    162 H162        6.5641  -20.9813  -44.4414 H         1 UNK         0.0600 
    163 H163        7.0101  -20.5305  -42.8036 H         1 UNK         0.0600 
    164 H164        5.4262  -18.6498  -41.9734 H         1 UNK         0.3000 
    165 H165        2.4096  -17.8231  -40.2786 H         1 UNK         0.0600 
    166 H166        3.9204  -17.7101  -38.3241 H         1 UNK         0.0600 
    167 H167        3.5796  -19.3877  -38.7149 H         1 UNK         0.0600 
    168 H168        5.1303  -18.6850  -39.1596 H         1 UNK         0.0600 
    169 H169        4.8433  -16.4470  -40.2787 H         1 UNK         0.3000 
    170 H170        4.7975  -14.3508  -41.3397 H         1 UNK         0.0600 
    171 H171        5.7983  -15.7400  -43.8951 H         1 UNK         0.0600 
    172 H172        6.5458  -14.3387  -43.1288 H         1 UNK         0.0600 
    173 H173        6.5325  -15.8865  -42.3028 H         1 UNK         0.0600 
    174 H174        4.2369  -13.8710  -44.1109 H         1 UNK         0.3000 
    175 H175        2.6723  -11.5789  -44.1102 H         1 UNK         0.0600 
    176 H176        1.5385  -12.6954  -46.0993 H         1 UNK         0.0600 
    177 H177        1.6646  -14.2352  -45.2547 H         1 UNK         0.0600 
    178 H178        3.1154  -13.3597  -45.7269 H         1 UNK         0.0600 
    179 H179        0.0416  -12.9190  -43.7795 H         1 UNK         0.3000 
    180 H180       -1.2776  -10.4843  -41.7245 H         1 UNK         0.0600 
    181 H181       -2.9143   -9.7572  -43.4527 H         1 UNK         0.0600 
    182 H182       -1.8179  -10.2707  -44.7362 H         1 UNK         0.0600 
    183 H183       -1.3777   -8.9376  -43.6758 H         1 UNK         0.0600 
    184 H184       -2.4339  -12.3636  -43.6291 H         1 UNK         0.3000 
    185 H185       -1.9960  -15.2375  -41.7272 H         1 UNK         0.0600 
    186 H186       -3.8804  -14.3153  -40.3652 H         1 UNK         0.0600 
    187 H187       -4.6542  -13.7143  -41.8275 H         1 UNK         0.0600 
    188 H188       -4.4610  -15.4492  -41.5745 H         1 UNK         0.0600 
    189 H189       -3.7605  -14.7628  -43.9000 H         1 UNK         0.3000 
    190 H190       -0.4884  -20.3343  -46.9119 H         1 UNK         0.3000 
    191 H191       -2.4392  -20.6495  -48.9253 H         1 UNK         0.0600 
    192 H192       -2.5310  -18.9562  -46.3818 H         1 UNK         0.0600 
    193 H193       -1.7555  -18.4911  -47.8909 H         1 UNK         0.0600 
    194 H194       -3.5015  -18.7003  -47.8398 H         1 UNK         0.0600 
    195 H195       -2.5906  -21.4150  -45.4156 H         1 UNK         0.3000 
    196 H196       -5.3024  -22.2552  -45.3497 H         1 UNK         0.0600 
    197 H197       -4.6548  -23.3032  -43.1831 H         1 UNK         0.0600 
    198 H198       -4.0191  -21.6702  -43.3140 H         1 UNK         0.0600 
    199 H199       -2.9536  -23.0532  -43.5525 H         1 UNK         0.0600 
    200 H200       -2.2722  -24.1310  -45.8923 H         1 UNK         0.3000 
    201 H201       -3.4868  -26.6827  -46.1883 H         1 UNK         0.0600 
    202 H202       -1.0661  -26.3799  -45.7732 H         1 UNK         0.0600 
    203 H203       -0.8626  -25.5905  -47.3352 H         1 UNK         0.0600 
    204 H204       -1.3087  -27.2908  -47.2561 H         1 UNK         0.0600 
    205 H205       -2.8791  -24.0759  -48.5357 H         1 UNK         0.3000 
    206 H206       -3.9295  -25.4924  -50.8357 H         1 UNK         0.0600 
    207 H207       -3.7250  -23.2586  -51.9120 H         1 UNK         0.0600 
    208 H208       -3.4340  -22.5053  -50.3515 H         1 UNK         0.0600 
    209 H209       -2.2621  -23.6392  -51.0171 H         1 UNK         0.0600 
    210 H210       -5.5150  -24.3229  -48.1076 H         1 UNK         0.3000 
    211 H211       -7.5573  -23.7770  -47.4959 H         1 UNK         0.0600 
    212 H212       -8.5191  -25.1059  -50.0850 H         1 UNK         0.0600 
    213 H213       -9.4735  -24.8255  -48.6353 H         1 UNK         0.0600 
    214 H214       -8.1336  -25.9589  -48.5906 H         1 UNK         0.0600 
    215 H215       -6.0566  -21.8123  -48.8625 H         1 UNK         0.3000 
    216 H216       -6.0418  -19.8113  -49.7214 H         1 UNK         0.0600 
    217 H217       -7.9291  -18.2811  -49.3384 H         1 UNK         0.0600 
    218 H218       -7.7354  -19.3286  -47.9442 H         1 UNK         0.0600 
    219 H219       -9.0340  -19.6267  -49.1000 H         1 UNK         0.0600 
    220 H220       -6.9444  -22.1898  -51.5290 H         1 UNK         0.3000 
    221 H221       -8.2028  -20.8089  -53.7925 H         1 UNK         0.0600 
    222 H222       -6.9746  -23.6127  -53.6151 H         1 UNK         0.0600 
    223 H223       -8.6621  -23.2422  -53.2592 H         1 UNK         0.0600 
    224 H224       -8.0266  -23.0014  -54.8804 H         1 UNK         0.0600 
    225 H225       -7.1359  -20.6288  -55.8602 H         1 UNK         0.3000 
    226 H226       -4.4424  -19.6004  -55.7131 H         1 UNK         0.0600 
    227 H227       -6.1698  -18.5772  -57.1760 H         1 UNK         0.0600 
    228 H228       -4.8190  -19.1487  -58.1413 H         1 UNK         0.0600 
    229 H229       -6.3138  -20.0751  -58.0977 H         1 UNK         0.0600 
    230 H230       -2.6396  -20.3197  -56.8017 H         1 UNK         0.3000 
    231 H231       -2.4624  -22.7734  -58.2977 H         1 UNK         0.0600 
    232 H232       -1.0943  -22.6142  -55.5377 H         1 UNK         0.0600 
    233 H233       -0.7877  -23.8561  -56.7572 H         1 UNK         0.0600 
    234 H234       -2.3601  -23.7438  -55.9939 H         1 UNK         0.0600 
    235 H235        0.5358  -22.1872  -56.9728 H         1 UNK         0.3000 
    236 H236        1.5527  -20.4402  -59.0145 H         1 UNK         0.0600 
    237 H237        2.9934  -22.0417  -57.7722 H         1 UNK         0.0600 
    238 H238        3.5818  -20.4012  -57.5551 H         1 UNK         0.0600 
    239 H239        2.6848  -21.1858  -56.2606 H         1 UNK         0.0600 
    240 H240        0.0477  -19.9242  -55.9088 H         1 UNK         0.3000 
    241 H241        0.4505  -17.0744  -55.7133 H         1 UNK         0.0600 
    242 H242       -1.4197  -18.6879  -58.0813 H         1 UNK         0.3800 
    243 H243       -2.6203  -17.4358  -58.2354 H         1 UNK         0.3800 
    244 H244        0.1610  -18.2023  -53.6591 H         1 UNK         0.0800 
    245 H245       -1.3119  -17.3038  -53.8672 H         1 UNK         0.0800 
    246 H246       -2.5797  -20.5974  -52.0187 H         1 UNK         0.0800 
    247 H247       -3.0067  -18.9169  -52.2115 H         1 UNK         0.0800 
@<TRIPOS>BOND
     1    1    2 1    
     2    1  127 1    
     3    1  128 1    
     4    1  129 1    
     5    2    3 2    
     6    2    4 am   BACKBONE|DICT|INTERRES
     7    4    5 1    
     8    4  130 1    
     9    5    6 1    
    10    5   65 1    
    11    5  131 1    
    12    6    7 1    
    13    6  132 1    
    14    6  133 1    
    15    7    8 1    
    16    8    9 1    
    17    8  134 1    
    18    8  135 1    
    19    9   10 ar   
    20    9   14 ar   
    21   10   11 ar   
    22   10  136 1    
    23   11   12 ar   
    24   11  126 1    
    25   12   13 ar   
    26   12  137 1    
    27   13   14 ar   
    28   13   15 1    
    29   14  138 1    
    30   15   16 1    
    31   15  139 1    
    32   15  140 1    
    33   16   17 1    
    34   17   18 1    
    35   17  141 1    
    36   17  142 1    
    37   18   19 1    
    38   18   67 1    
    39   18  143 1    
    40   19   20 am   BACKBONE|DICT|INTERRES
    41   19  144 1    
    42   20   21 2    
    43   20   22 1    
    44   22   23 1    
    45   22   24 1    
    46   22  145 1    
    47   23  146 1    
    48   23  147 1    
    49   23  148 1    
    50   24   25 am   BACKBONE|DICT|INTERRES
    51   24  149 1    
    52   25   26 2    
    53   25   27 1    
    54   27   28 1    
    55   27   29 1    
    56   27  150 1    
    57   28  151 1    
    58   28  152 1    
    59   28  153 1    
    60   29   30 am   BACKBONE|DICT|INTERRES
    61   29  154 1    
    62   30   31 2    
    63   30   32 1    
    64   32   33 1    
    65   32   34 1    
    66   32  155 1    
    67   33  156 1    
    68   33  157 1    
    69   33  158 1    
    70   34   35 am   BACKBONE|DICT|INTERRES
    71   34  159 1    
    72   35   36 2    
    73   35   37 1    
    74   37   38 1    
    75   37   39 1    
    76   37  160 1    
    77   38  161 1    
    78   38  162 1    
    79   38  163 1    
    80   39   40 am   BACKBONE|DICT|INTERRES
    81   39  164 1    
    82   40   41 2    
    83   40   42 1    
    84   42   43 1    
    85   42   44 1    
    86   42  165 1    
    87   43  166 1    
    88   43  167 1    
    89   43  168 1    
    90   44   45 am   BACKBONE|DICT|INTERRES
    91   44  169 1    
    92   45   46 2    
    93   45   47 1    
    94   47   48 1    
    95   47   49 1    
    96   47  170 1    
    97   48  171 1    
    98   48  172 1    
    99   48  173 1    
   100   49   50 am   BACKBONE|DICT|INTERRES
   101   49  174 1    
   102   50   51 2    
   103   50   52 1    
   104   52   53 1    
   105   52   54 1    
   106   52  175 1    
   107   53  176 1    
   108   53  177 1    
   109   53  178 1    
   110   54   55 am   BACKBONE|DICT|INTERRES
   111   54  179 1    
   112   55   56 2    
   113   55   57 1    
   114   57   58 1    
   115   57   59 1    
   116   57  180 1    
   117   58  181 1    
   118   58  182 1    
   119   58  183 1    
   120   59   60 am   BACKBONE|DICT|INTERRES
   121   59  184 1    
   122   60   61 2    
   123   60   62 1    
   124   62   63 1    
   125   62   64 1    
   126   62  185 1    
   127   63  186 1    
   128   63  187 1    
   129   63  188 1    
   130   64   65 am   BACKBONE|DICT|INTERRES
   131   64  189 1    
   132   65   66 2    
   133   67   68 2    
   134   67   69 am   BACKBONE|DICT|INTERRES
   135   69   70 1    
   136   69  190 1    
   137   70   71 1    
   138   70   72 1    
   139   70  191 1    
   140   71  192 1    
   141   71  193 1    
   142   71  194 1    
   143   72   73 2    
   144   72   74 am   BACKBONE|DICT|INTERRES
   145   74   75 1    
   146   74  195 1    
   147   75   76 1    
   148   75   77 1    
   149   75  196 1    
   150   76  197 1    
   151   76  198 1    
   152   76  199 1    
   153   77   78 2    
   154   77   79 am   BACKBONE|DICT|INTERRES
   155   79   80 1    
   156   79  200 1    
   157   80   81 1    
   158   80   82 1    
   159   80  201 1    
   160   81  202 1    
   161   81  203 1    
   162   81  204 1    
   163   82   83 2    
   164   82   84 am   BACKBONE|DICT|INTERRES
   165   84   85 1    
   166   84  205 1    
   167   85   86 1    
   168   85   87 1    
   169   85  206 1    
   170   86  207 1    
   171   86  208 1    
   172   86  209 1    
   173   87   88 2    
   174   87   89 am   BACKBONE|DICT|INTERRES
   175   89   90 1    
   176   89  210 1    
   177   90   91 1    
   178   90   92 1    
   179   90  211 1    
   180   91  212 1    
   181   91  213 1    
   182   91  214 1    
   183   92   93 2    
   184   92   94 am   BACKBONE|DICT|INTERRES
   185   94   95 1    
   186   94  215 1    
   187   95   96 1    
   188   95   97 1    
   189   95  216 1    
   190   96  217 1    
   191   96  218 1    
   192   96  219 1    
   193   97   98 2    
   194   97   99 am   BACKBONE|DICT|INTERRES
   195   99  100 1    
   196   99  220 1    
   197  100  101 1    
   198  100  102 1    
   199  100  221 1    
   200  101  222 1    
   201  101  223 1    
   202  101  224 1    
   203  102  103 2    
   204  102  104 am   BACKBONE|DICT|INTERRES
   205  104  105 1    
   206  104  225 1    
   207  105  106 1    
   208  105  107 1    
   209  105  226 1    
   210  106  227 1    
   211  106  228 1    
   212  106  229 1    
   213  107  108 2    
   214  107  109 am   BACKBONE|DICT|INTERRES
   215  109  110 1    
   216  109  230 1    
   217  110  111 1    
   218  110  112 1    
   219  110  231 1    
   220  111  232 1    
   221  111  233 1    
   222  111  234 1    
   223  112  113 2    
   224  112  114 am   BACKBONE|DICT|INTERRES
   225  114  115 1    
   226  114  235 1    
   227  115  116 1    
   228  115  117 1    
   229  115  236 1    
   230  116  237 1    
   231  116  238 1    
   232  116  239 1    
   233  117  118 2    
   234  117  119 am   BACKBONE|DICT|INTERRES
   235  119  120 1    
   236  119  240 1    
   237  120  121 1    
   238  120  124 1    
   239  120  241 1    
   240  121  122 am   BACKBONE|DICT|INTERRES
   241  121  123 2    
   242  122  242 1    
   243  122  243 1    
   244  124  125 1    
   245  124  244 1    
   246  124  245 1    
   247  125  126 1    
   248  126  246 1    
   249  126  247 1    
@<TRIPOS>SUBSTRUCTURE
     1 UNK         1 GROUP             0       ****    0 ROOT    
