@<TRIPOS>MOLECULE
3R540
247   249    1
SMALL
USER_CHARGES


@<TRIPOS>ATOM
      1 CA          2.8321  -15.6348  -47.0619 C.3       0 UNK        -0.1800 
      2 C           1.6781  -14.6526  -47.1936 C.2       0 UNK         0.5000 
      3 O           1.2071  -14.1261  -46.1880 O.2       0 UNK        -0.5000 
      4 N           1.2342  -14.3867  -48.4292 N.am      1 UNK        -0.5000 
      5 CA          0.0859  -13.5267  -48.7599 C.3       1 UNK         0.1400 
      6 C6         -0.2700  -13.5806  -50.2676 C.3       23 UNK        -0.0398 
      7 S7         -0.5990  -15.2792  -50.8429 S.3       23 UNK        -0.2404 
      8 C8          0.8687  -15.6263  -51.8614 C.3       23 UNK        -0.0205 
      9 C9          1.1639  -17.1159  -51.8629 C.ar      23 UNK        -0.0193 
     10 C10         0.6294  -17.9491  -52.8490 C.ar      23 UNK        -0.1150 
     11 C11         0.8491  -19.3345  -52.8130 C.ar      23 UNK        -0.0193 
     12 C12         1.6290  -19.8662  -51.7806 C.ar      23 UNK        -0.1150 
     13 C13         2.1848  -19.0406  -50.7989 C.ar      23 UNK        -0.0193 
     14 C14         1.9545  -17.6649  -50.8525 C.ar      23 UNK        -0.1150 
     15 C15         3.0100  -19.6402  -49.6666 C.3       23 UNK        -0.0205 
     16 S16         2.3816  -19.1926  -48.0123 S.3       23 UNK        -0.2404 
     17 C17         0.6629  -19.7946  -48.0901 C.3       23 UNK        -0.0398 
     18 CA          0.5199  -21.2155  -47.5043 C.3       11 UNK         0.1400 
     19 N           0.6225  -21.2357  -46.0431 N.am      11 UNK        -0.5000 
     20 C           0.6711  -22.3482  -45.2977 C.2       10 UNK         0.5000 
     21 O           0.7119  -23.4846  -45.7694 O.2       10 UNK        -0.5000 
     22 CA          0.5925  -22.1644  -43.7709 C.3       10 UNK         0.1400 
     23 CB          1.9623  -21.7923  -43.1845 C.3       10 UNK        -0.1800 
     24 N          -0.4091  -21.1683  -43.3829 N.am      10 UNK        -0.5000 
     25 C          -1.7255  -21.3047  -43.6007 C.2       9 UNK         0.5000 
     26 O          -2.2311  -22.3137  -44.0917 O.2       9 UNK        -0.5000 
     27 CA         -2.6270  -20.1056  -43.2555 C.3       9 UNK         0.1400 
     28 CB         -2.9736  -20.1002  -41.7596 C.3       9 UNK        -0.1800 
     29 N          -2.0378  -18.8208  -43.6357 N.am      9 UNK        -0.5000 
     30 C          -1.7770  -18.4439  -44.8961 C.2       8 UNK         0.5000 
     31 O          -2.0573  -19.1262  -45.8806 O.2       8 UNK        -0.5000 
     32 CA         -1.0217  -17.1137  -45.0892 C.3       8 UNK         0.1400 
     33 CB         -1.9774  -15.9148  -45.0189 C.3       8 UNK        -0.1800 
     34 N           0.0616  -16.9401  -44.1209 N.am      8 UNK        -0.5000 
     35 C           1.1198  -17.7570  -44.0228 C.2       7 UNK         0.5000 
     36 O           1.3172  -18.7122  -44.7719 O.2       7 UNK        -0.5000 
     37 CA          2.0809  -17.5056  -42.8510 C.3       7 UNK         0.1400 
     38 CB          3.0605  -16.3672  -43.1703 C.3       7 UNK        -0.1800 
     39 N           1.3491  -17.2060  -41.6204 N.am      7 UNK        -0.5000 
     40 C           0.6586  -18.1162  -40.9186 C.2       6 UNK         0.5000 
     41 O           0.6087  -19.3099  -41.2150 O.2       6 UNK        -0.5000 
     42 CA         -0.1369  -17.6030  -39.7029 C.3       6 UNK         0.1400 
     43 CB          0.7615  -17.5371  -38.4590 C.3       6 UNK        -0.1800 
     44 N          -0.7421  -16.2899  -39.9312 N.am      6 UNK        -0.5000 
     45 C          -1.7197  -16.0480  -40.8161 C.2       5 UNK         0.5000 
     46 O          -2.2491  -16.9207  -41.5011 O.2       5 UNK        -0.5000 
     47 CA         -2.1431  -14.5784  -41.0065 C.3       5 UNK         0.1400 
     48 CB         -3.2825  -14.2180  -40.0420 C.3       5 UNK        -0.1800 
     49 N          -1.0452  -13.6207  -40.8404 N.am      5 UNK        -0.5000 
     50 C           0.0799  -13.6122  -41.5675 C.2       4 UNK         0.5000 
     51 O           0.3293  -14.4413  -42.4459 O.2       4 UNK        -0.5000 
     52 CA          1.1226  -12.5454  -41.1841 C.3       4 UNK         0.1400 
     53 CB          1.8989  -12.9942  -39.9351 C.3       4 UNK        -0.1800 
     54 N           2.0849  -12.2820  -42.2533 N.am      4 UNK        -0.5000 
     55 C           1.8023  -11.7052  -43.4280 C.2       3 UNK         0.5000 
     56 O           0.6861  -11.2667  -43.7196 O.2       3 UNK        -0.5000 
     57 CA          2.9796  -11.5554  -44.4135 C.3       3 UNK         0.1400 
     58 CB          3.9378  -12.7625  -44.3981 C.3       3 UNK        -0.1800 
     59 N           2.4881  -11.3779  -45.7773 N.am      3 UNK        -0.5000 
     60 C           2.4454  -10.2166  -46.4430 C.2       2 UNK         0.5000 
     61 O           2.8237   -9.1457  -45.9646 O.2       2 UNK        -0.5000 
     62 CA          1.9247  -10.2442  -47.8956 C.3       2 UNK         0.1400 
     63 CB          2.9989   -9.7273  -48.8680 C.3       2 UNK        -0.1800 
     64 N           1.5258  -11.5858  -48.3262 N.am      2 UNK        -0.5000 
     65 C           0.2729  -12.0587  -48.3172 C.2       1 UNK         0.5000 
     66 O          -0.7081  -11.3964  -47.9773 O.2       1 UNK        -0.5000 
     67 C          -0.7809  -21.8743  -48.0012 C.2       11 UNK         0.5000 
     68 O          -0.7275  -22.6597  -48.9454 O.2       11 UNK        -0.5000 
     69 N          -1.9144  -21.5790  -47.3500 N.am      12 UNK        -0.5000 
     70 CA         -3.2146  -22.1771  -47.6538 C.3       12 UNK         0.1400 
     71 CB         -4.3191  -21.4573  -46.8665 C.3       12 UNK        -0.1800 
     72 C          -3.2514  -23.6940  -47.4046 C.2       12 UNK         0.5000 
     73 O          -3.8173  -24.4230  -48.2179 O.2       12 UNK        -0.5000 
     74 N          -2.6120  -24.1453  -46.3172 N.am      13 UNK        -0.5000 
     75 CA         -2.4270  -25.5595  -45.9949 C.3       13 UNK         0.1400 
     76 CB         -1.8677  -25.6972  -44.5709 C.3       13 UNK        -0.1800 
     77 C          -1.5288  -26.2829  -47.0159 C.2       13 UNK         0.5000 
     78 O          -1.8622  -27.3932  -47.4301 O.2       13 UNK        -0.5000 
     79 N          -0.4311  -25.6318  -47.4283 N.am      14 UNK        -0.5000 
     80 CA          0.4990  -26.1268  -48.4463 C.3       14 UNK         0.1400 
     81 CB          1.7588  -25.2474  -48.4633 C.3       14 UNK        -0.1800 
     82 C          -0.1332  -26.2046  -49.8492 C.2       14 UNK         0.5000 
     83 O           0.0777  -27.1896  -50.5577 O.2       14 UNK        -0.5000 
     84 N          -0.9146  -25.1789  -50.2138 N.am      15 UNK        -0.5000 
     85 CA         -1.6770  -25.1031  -51.4618 C.3       15 UNK         0.1400 
     86 CB         -2.1638  -23.6592  -51.6617 C.3       15 UNK        -0.1800 
     87 C          -2.8799  -26.0636  -51.5067 C.2       15 UNK         0.5000 
     88 O          -3.3725  -26.3594  -52.5954 O.2       15 UNK        -0.5000 
     89 N          -3.3623  -26.4855  -50.3300 N.am      16 UNK        -0.5000 
     90 CA         -4.5348  -27.3199  -50.0399 C.3       16 UNK         0.1400 
     91 CB         -4.4424  -28.6948  -50.7279 C.3       16 UNK        -0.1800 
     92 C          -5.8843  -26.6313  -50.3277 C.2       16 UNK         0.5000 
     93 O          -6.8215  -26.8010  -49.5471 O.2       16 UNK        -0.5000 
     94 N          -5.9607  -25.8654  -51.4228 N.am      17 UNK        -0.5000 
     95 CA         -7.0806  -25.0038  -51.7865 C.3       17 UNK         0.1400 
     96 CB         -6.9878  -24.6625  -53.2857 C.3       17 UNK        -0.1800 
     97 C          -7.1033  -23.7496  -50.8932 C.2       17 UNK         0.5000 
     98 O          -7.8671  -23.7013  -49.9283 O.2       17 UNK        -0.5000 
     99 N          -6.2561  -22.7683  -51.2224 N.am      18 UNK        -0.5000 
    100 CA        -6.0787  -21.5091  -50.5094 C.3       18 UNK         0.1400 
    101 CB        -7.3114  -20.6007  -50.6876 C.3       18 UNK        -0.1800 
    102 C         -4.8233  -20.8155  -51.0514 C.2       18 UNK         0.5000 
    103 O         -4.4179  -21.0807  -52.1872 O.2       18 UNK        -0.5000 
    104 N         -4.2509  -19.9135  -50.2456 N.am      19 UNK        -0.5000 
    105 CA        -3.1702  -19.0160  -50.6540 C.3       19 UNK         0.1400 
    106 CB        -2.5862  -18.3389  -49.4052 C.3       19 UNK        -0.1800 
    107 C         -3.6919  -17.9716  -51.6599 C.2       19 UNK         0.5000 
    108 O         -4.8820  -17.6470  -51.6416 O.2       19 UNK        -0.5000 
    109 N         -2.8074  -17.5011  -52.5463 N.am      20 UNK        -0.5000 
    110 CA        -3.0493  -16.6040  -53.6887 C.3       20 UNK         0.1400 
    111 CB        -3.6759  -15.2638  -53.2563 C.3       20 UNK        -0.1800 
    112 C         -3.8476  -17.2515  -54.8408 C.2       20 UNK         0.5000 
    113 O         -3.5436  -16.9806  -56.0030 O.2       20 UNK        -0.5000 
    114 N         -4.8209  -18.1134  -54.5157 N.am      21 UNK        -0.5000 
    115 CA        -5.5050  -19.0017  -55.4552 C.3       21 UNK         0.1400 
    116 CB        -6.7497  -19.6015  -54.7820 C.3       21 UNK        -0.1800 
    117 C         -4.5567  -20.1084  -55.9510 C.2       21 UNK         0.5000 
    118 O         -4.4361  -20.3152  -57.1588 O.2       21 UNK        -0.5000 
    119 N         -3.8752  -20.7610  -54.9992 N.am      22 UNK        -0.5000 
    120 CA        -2.7791  -21.7243  -55.1980 C.3       22 UNK         0.1400 
    121 C         -3.1905  -23.0840  -55.8400 C.2       22 UNK         0.5000 
    122 N         -4.4733  -23.4104  -55.9359 N.am      22 UNK        -0.7600 
    123 O         -2.3342  -23.8735  -56.2289 O.2       22 UNK        -0.5000 
    124 C124       -1.5263  -21.0949  -55.8712 C.3       23 UNK        -0.0398 
    125 S125       -0.9427  -19.5948  -55.0077 S.3       23 UNK        -0.2404 
    126 C126        0.2771  -20.3036  -53.8509 C.3       23 UNK        -0.0205 
    127 H127        3.6809  -15.1578  -46.5730 H         1 UNK         0.0600 
    128 H128        3.1641  -16.0058  -48.0312 H         1 UNK         0.0600 
    129 H129        2.5259  -16.4890  -46.4587 H         1 UNK         0.0600 
    130 H130        1.6555  -14.8596  -49.2140 H         1 UNK         0.3000 
    131 H131       -0.7683  -13.9157  -48.2011 H         1 UNK         0.0600 
    132 H132       -1.1692  -12.9934  -50.4634 H         1 UNK         0.0800 
    133 H133        0.5193  -13.1313  -50.8728 H         1 UNK         0.0800 
    134 H134        1.7358  -15.0845  -51.4814 H         1 UNK         0.0800 
    135 H135        0.6993  -15.2651  -52.8770 H         1 UNK         0.0800 
    136 H136        0.0403  -17.5033  -53.6356 H         1 UNK         0.1150 
    137 H137        1.8005  -20.9331  -51.7399 H         1 UNK         0.1150 
    138 H138        2.3696  -17.0255  -50.0874 H         1 UNK         0.1150 
    139 H139        3.0433  -20.7280  -49.7445 H         1 UNK         0.0800 
    140 H140        4.0396  -19.2927  -49.7584 H         1 UNK         0.0800 
    141 H141        0.3133  -19.7569  -49.1222 H         1 UNK         0.0800 
    142 H142        0.0335  -19.0907  -47.5457 H         1 UNK         0.0800 
    143 H143        1.3390  -21.8246  -47.8924 H         1 UNK         0.0600 
    144 H144        0.6614  -20.3324  -45.5778 H         1 UNK         0.3000 
    145 H145        0.2923  -23.1212  -43.3388 H         1 UNK         0.0600 
    146 H146        1.9180  -21.7168  -42.0979 H         1 UNK         0.0600 
    147 H147        2.7078  -22.5500  -43.4283 H         1 UNK         0.0600 
    148 H148        2.3255  -20.8406  -43.5709 H         1 UNK         0.0600 
    149 H149       -0.0680  -20.3273  -42.9311 H         1 UNK         0.3000 
    150 H150       -3.5574  -20.2200  -43.8147 H         1 UNK         0.0600 
    151 H151       -3.4250  -21.0467  -41.4596 H         1 UNK         0.0600 
    152 H152       -3.6878  -19.3112  -41.5239 H         1 UNK         0.0600 
    153 H153       -2.0892  -19.9471  -41.1412 H         1 UNK         0.0600 
    154 H154       -1.8439  -18.1704  -42.8793 H         1 UNK         0.3000 
    155 H155       -0.5725  -17.1269  -46.0844 H         1 UNK         0.0600 
    156 H156       -2.4729  -15.8504  -44.0506 H         1 UNK         0.0600 
    157 H157       -1.4455  -14.9777  -45.1874 H         1 UNK         0.0600 
    158 H158       -2.7534  -15.9919  -45.7813 H         1 UNK         0.0600 
    159 H159        0.0005  -16.1458  -43.4915 H         1 UNK         0.3000 
    160 H160        2.6637  -18.4156  -42.6926 H         1 UNK         0.0600 
    161 H161        2.5389  -15.4307  -43.3621 H         1 UNK         0.0600 
    162 H162        3.6503  -16.5995  -44.0578 H         1 UNK         0.0600 
    163 H163        3.7576  -16.2018  -42.3490 H         1 UNK         0.0600 
    164 H164        1.2709  -16.2309  -41.3684 H         1 UNK         0.3000 
    165 H165       -0.9400  -18.3164  -39.5064 H         1 UNK         0.0600 
    166 H166        0.1908  -17.2519  -37.5750 H         1 UNK         0.0600 
    167 H167        1.2140  -18.5081  -38.2530 H         1 UNK         0.0600 
    168 H168        1.5714  -16.8171  -38.5833 H         1 UNK         0.0600 
    169 H169       -0.3655  -15.5145  -39.4069 H         1 UNK         0.3000 
    170 H170       -2.5160  -14.4751  -42.0272 H         1 UNK         0.0600 
    171 H171       -4.1241  -14.9022  -40.1591 H         1 UNK         0.0600 
    172 H172       -2.9607  -14.2686  -39.0010 H         1 UNK         0.0600 
    173 H173       -3.6561  -13.2114  -40.2304 H         1 UNK         0.0600 
    174 H174       -1.1695  -12.9190  -40.1248 H         1 UNK         0.3000 
    175 H175        0.5983  -11.6140  -40.9606 H         1 UNK         0.0600 
    176 H176        2.4417  -13.9241  -40.1110 H         1 UNK         0.0600 
    177 H177        2.6213  -12.2380  -39.6270 H         1 UNK         0.0600 
    178 H178        1.2291  -13.1601  -39.0904 H         1 UNK         0.0600 
    179 H179        3.0200  -12.6292  -42.1032 H         1 UNK         0.3000 
    180 H180        3.5465  -10.6771  -44.0990 H         1 UNK         0.0600 
    181 H181        4.4385  -12.8712  -43.4358 H         1 UNK         0.0600 
    182 H182        4.7199  -12.6503  -45.1492 H         1 UNK         0.0600 
    183 H183        3.4112  -13.6922  -44.6078 H         1 UNK         0.0600 
    184 H184        2.0497  -12.1940  -46.1880 H         1 UNK         0.3000 
    185 H185        1.0709   -9.5654  -47.9450 H         1 UNK         0.0600 
    186 H186        3.2960   -8.7072  -48.6209 H         1 UNK         0.0600 
    187 H187        3.8966  -10.3463  -48.8424 H         1 UNK         0.0600 
    188 H188        2.6287   -9.7148  -49.8933 H         1 UNK         0.0600 
    189 H189        2.2704  -12.2070  -48.6085 H         1 UNK         0.3000 
    190 H190       -1.8950  -20.8721  -46.6194 H         1 UNK         0.3000 
    191 H191       -3.3996  -22.0269  -48.7173 H         1 UNK         0.0600 
    192 H192       -4.1762  -21.5581  -45.7913 H         1 UNK         0.0600 
    193 H193       -5.3010  -21.8686  -47.1024 H         1 UNK         0.0600 
    194 H194       -4.3427  -20.3930  -47.1006 H         1 UNK         0.0600 
    195 H195       -2.2284  -23.4708  -45.6612 H         1 UNK         0.3000 
    196 H196       -3.4086  -26.0377  -46.0190 H         1 UNK         0.0600 
    197 H197       -1.7522  -26.7465  -44.2970 H         1 UNK         0.0600 
    198 H198       -2.5358  -25.2410  -43.8402 H         1 UNK         0.0600 
    199 H199       -0.8917  -25.2225  -44.4713 H         1 UNK         0.0600 
    200 H200       -0.2003  -24.7420  -46.9960 H         1 UNK         0.3000 
    201 H201        0.7975  -27.1377  -48.1610 H         1 UNK         0.0600 
    202 H202        2.2499  -25.2439  -47.4901 H         1 UNK         0.0600 
    203 H203        1.5271  -24.2146  -48.7236 H         1 UNK         0.0600 
    204 H204        2.4821  -25.6154  -49.1920 H         1 UNK         0.0600 
    205 H205       -0.9692  -24.3662  -49.6030 H         1 UNK         0.3000 
    206 H206       -1.0148  -25.3633  -52.2900 H         1 UNK         0.0600 
    207 H207       -1.3276  -22.9674  -51.7637 H         1 UNK         0.0600 
    208 H208       -2.7740  -23.5744  -52.5605 H         1 UNK         0.0600 
    209 H209       -2.7756  -23.3235  -50.8238 H         1 UNK         0.0600 
    210 H210       -2.9244  -26.0961  -49.5047 H         1 UNK         0.3000 
    211 H211       -4.4998  -27.4922  -48.9629 H         1 UNK         0.0600 
    212 H212       -4.5108  -28.6163  -51.8130 H         1 UNK         0.0600 
    213 H213       -5.2528  -29.3464  -50.3991 H         1 UNK         0.0600 
    214 H214       -3.5042  -29.1938  -50.4847 H         1 UNK         0.0600 
    215 H215       -5.1389  -25.8319  -52.0174 H         1 UNK         0.3000 
    216 H216       -8.0136  -25.5470  -51.6220 H         1 UNK         0.0600 
    217 H217       -7.7654  -23.9548  -53.5762 H         1 UNK         0.0600 
    218 H218       -7.1197  -25.5561  -53.8959 H         1 UNK         0.0600 
    219 H219       -6.0242  -24.2255  -53.5498 H         1 UNK         0.0600 
    220 H220       -5.6413  -22.8744  -52.0193 H         1 UNK         0.3000 
    221 H221       -5.9297  -21.7251  -49.4505 H         1 UNK         0.0600 
    222 H222       -7.5328  -20.4270  -51.7408 H         1 UNK         0.0600 
    223 H223       -8.1995  -21.0336  -50.2279 H         1 UNK         0.0600 
    224 H224       -7.1545  -19.6268  -50.2222 H         1 UNK         0.0600 
    225 H225       -4.6850  -19.7041  -49.3595 H         1 UNK         0.3000 
    226 H226       -2.3877  -19.6120  -51.1298 H         1 UNK         0.0600 
    227 H227       -1.6961  -17.7616  -49.6546 H         1 UNK         0.0600 
    228 H228       -3.3016  -17.6597  -48.9398 H         1 UNK         0.0600 
    229 H229       -2.2923  -19.0745  -48.6580 H         1 UNK         0.0600 
    230 H230       -1.8582  -17.8412  -52.4804 H         1 UNK         0.3000 
    231 H231       -2.0603  -16.3787  -54.0899 H         1 UNK         0.0600 
    232 H232       -3.6981  -14.5627  -54.0912 H         1 UNK         0.0600 
    233 H233       -3.1028  -14.7966  -52.4562 H         1 UNK         0.0600 
    234 H234       -4.7024  -15.3820  -52.9092 H         1 UNK         0.0600 
    235 H235       -5.0299  -18.2276  -53.5299 H         1 UNK         0.3000 
    236 H236       -5.8285  -18.4143  -56.3170 H         1 UNK         0.0600 
    237 H237       -7.4369  -18.8203  -54.4567 H         1 UNK         0.0600 
    238 H238       -7.2934  -20.2465  -55.4733 H         1 UNK         0.0600 
    239 H239       -6.4890  -20.2015  -53.9100 H         1 UNK         0.0600 
    240 H240       -4.0917  -20.5735  -54.0249 H         1 UNK         0.3000 
    241 H241       -2.4758  -21.9936  -54.1878 H         1 UNK         0.0600 
    242 H242       -5.1860  -22.7660  -55.6362 H         1 UNK         0.3800 
    243 H243       -4.7304  -24.2949  -56.3440 H         1 UNK         0.3800 
    244 H244       -0.7054  -21.8126  -55.9139 H         1 UNK         0.0800 
    245 H245       -1.7464  -20.8292  -56.9059 H         1 UNK         0.0800 
    246 H246       -0.1937  -21.1362  -53.3258 H         1 UNK         0.0800 
    247 H247        1.1025  -20.7229  -54.4280 H         1 UNK         0.0800 
@<TRIPOS>BOND
     1    1    2 1    
     2    1  127 1    
     3    1  128 1    
     4    1  129 1    
     5    2    3 2    
     6    2    4 am   BACKBONE|DICT|INTERRES
     7    4    5 1    
     8    4  130 1    
     9    5    6 1    
    10    5   65 1    
    11    5  131 1    
    12    6    7 1    
    13    6  132 1    
    14    6  133 1    
    15    7    8 1    
    16    8    9 1    
    17    8  134 1    
    18    8  135 1    
    19    9   10 ar   
    20    9   14 ar   
    21   10   11 ar   
    22   10  136 1    
    23   11   12 ar   
    24   11  126 1    
    25   12   13 ar   
    26   12  137 1    
    27   13   14 ar   
    28   13   15 1    
    29   14  138 1    
    30   15   16 1    
    31   15  139 1    
    32   15  140 1    
    33   16   17 1    
    34   17   18 1    
    35   17  141 1    
    36   17  142 1    
    37   18   19 1    
    38   18   67 1    
    39   18  143 1    
    40   19   20 am   BACKBONE|DICT|INTERRES
    41   19  144 1    
    42   20   21 2    
    43   20   22 1    
    44   22   23 1    
    45   22   24 1    
    46   22  145 1    
    47   23  146 1    
    48   23  147 1    
    49   23  148 1    
    50   24   25 am   BACKBONE|DICT|INTERRES
    51   24  149 1    
    52   25   26 2    
    53   25   27 1    
    54   27   28 1    
    55   27   29 1    
    56   27  150 1    
    57   28  151 1    
    58   28  152 1    
    59   28  153 1    
    60   29   30 am   BACKBONE|DICT|INTERRES
    61   29  154 1    
    62   30   31 2    
    63   30   32 1    
    64   32   33 1    
    65   32   34 1    
    66   32  155 1    
    67   33  156 1    
    68   33  157 1    
    69   33  158 1    
    70   34   35 am   BACKBONE|DICT|INTERRES
    71   34  159 1    
    72   35   36 2    
    73   35   37 1    
    74   37   38 1    
    75   37   39 1    
    76   37  160 1    
    77   38  161 1    
    78   38  162 1    
    79   38  163 1    
    80   39   40 am   BACKBONE|DICT|INTERRES
    81   39  164 1    
    82   40   41 2    
    83   40   42 1    
    84   42   43 1    
    85   42   44 1    
    86   42  165 1    
    87   43  166 1    
    88   43  167 1    
    89   43  168 1    
    90   44   45 am   BACKBONE|DICT|INTERRES
    91   44  169 1    
    92   45   46 2    
    93   45   47 1    
    94   47   48 1    
    95   47   49 1    
    96   47  170 1    
    97   48  171 1    
    98   48  172 1    
    99   48  173 1    
   100   49   50 am   BACKBONE|DICT|INTERRES
   101   49  174 1    
   102   50   51 2    
   103   50   52 1    
   104   52   53 1    
   105   52   54 1    
   106   52  175 1    
   107   53  176 1    
   108   53  177 1    
   109   53  178 1    
   110   54   55 am   BACKBONE|DICT|INTERRES
   111   54  179 1    
   112   55   56 2    
   113   55   57 1    
   114   57   58 1    
   115   57   59 1    
   116   57  180 1    
   117   58  181 1    
   118   58  182 1    
   119   58  183 1    
   120   59   60 am   BACKBONE|DICT|INTERRES
   121   59  184 1    
   122   60   61 2    
   123   60   62 1    
   124   62   63 1    
   125   62   64 1    
   126   62  185 1    
   127   63  186 1    
   128   63  187 1    
   129   63  188 1    
   130   64   65 am   BACKBONE|DICT|INTERRES
   131   64  189 1    
   132   65   66 2    
   133   67   68 2    
   134   67   69 am   BACKBONE|DICT|INTERRES
   135   69   70 1    
   136   69  190 1    
   137   70   71 1    
   138   70   72 1    
   139   70  191 1    
   140   71  192 1    
   141   71  193 1    
   142   71  194 1    
   143   72   73 2    
   144   72   74 am   BACKBONE|DICT|INTERRES
   145   74   75 1    
   146   74  195 1    
   147   75   76 1    
   148   75   77 1    
   149   75  196 1    
   150   76  197 1    
   151   76  198 1    
   152   76  199 1    
   153   77   78 2    
   154   77   79 am   BACKBONE|DICT|INTERRES
   155   79   80 1    
   156   79  200 1    
   157   80   81 1    
   158   80   82 1    
   159   80  201 1    
   160   81  202 1    
   161   81  203 1    
   162   81  204 1    
   163   82   83 2    
   164   82   84 am   BACKBONE|DICT|INTERRES
   165   84   85 1    
   166   84  205 1    
   167   85   86 1    
   168   85   87 1    
   169   85  206 1    
   170   86  207 1    
   171   86  208 1    
   172   86  209 1    
   173   87   88 2    
   174   87   89 am   BACKBONE|DICT|INTERRES
   175   89   90 1    
   176   89  210 1    
   177   90   91 1    
   178   90   92 1    
   179   90  211 1    
   180   91  212 1    
   181   91  213 1    
   182   91  214 1    
   183   92   93 2    
   184   92   94 am   BACKBONE|DICT|INTERRES
   185   94   95 1    
   186   94  215 1    
   187   95   96 1    
   188   95   97 1    
   189   95  216 1    
   190   96  217 1    
   191   96  218 1    
   192   96  219 1    
   193   97   98 2    
   194   97   99 am   BACKBONE|DICT|INTERRES
   195   99  100 1    
   196   99  220 1    
   197  100  101 1    
   198  100  102 1    
   199  100  221 1    
   200  101  222 1    
   201  101  223 1    
   202  101  224 1    
   203  102  103 2    
   204  102  104 am   BACKBONE|DICT|INTERRES
   205  104  105 1    
   206  104  225 1    
   207  105  106 1    
   208  105  107 1    
   209  105  226 1    
   210  106  227 1    
   211  106  228 1    
   212  106  229 1    
   213  107  108 2    
   214  107  109 am   BACKBONE|DICT|INTERRES
   215  109  110 1    
   216  109  230 1    
   217  110  111 1    
   218  110  112 1    
   219  110  231 1    
   220  111  232 1    
   221  111  233 1    
   222  111  234 1    
   223  112  113 2    
   224  112  114 am   BACKBONE|DICT|INTERRES
   225  114  115 1    
   226  114  235 1    
   227  115  116 1    
   228  115  117 1    
   229  115  236 1    
   230  116  237 1    
   231  116  238 1    
   232  116  239 1    
   233  117  118 2    
   234  117  119 am   BACKBONE|DICT|INTERRES
   235  119  120 1    
   236  119  240 1    
   237  120  121 1    
   238  120  124 1    
   239  120  241 1    
   240  121  122 am   BACKBONE|DICT|INTERRES
   241  121  123 2    
   242  122  242 1    
   243  122  243 1    
   244  124  125 1    
   245  124  244 1    
   246  124  245 1    
   247  125  126 1    
   248  126  246 1    
   249  126  247 1    
@<TRIPOS>SUBSTRUCTURE
     1 UNK         1 GROUP             0       ****    0 ROOT    
