@<TRIPOS>MOLECULE
3R540
247   249    1
SMALL
USER_CHARGES


@<TRIPOS>ATOM
      1 CA         -4.1999  -15.9501  -49.1775 C.3       0 UNK        -0.1800 
      2 C          -3.8492  -14.5089  -48.8305 C.2       0 UNK         0.5000 
      3 O          -4.6516  -13.8167  -48.2050 O.2       0 UNK        -0.5000 
      4 N          -2.6550  -14.0564  -49.2349 N.am      1 UNK        -0.5000 
      5 CA         -2.1128  -12.7177  -48.9652 C.3       1 UNK         0.1400 
      6 C6         -0.8878  -12.3842  -49.8596 C.3       23 UNK        -0.0398 
      7 S7          0.3834  -13.7015  -49.9129 S.3       23 UNK        -0.2404 
      8 C8          0.0380  -14.4438  -51.5447 C.3       23 UNK        -0.0205 
      9 C9          0.2512  -15.9514  -51.5595 C.ar      23 UNK        -0.0193 
     10 C10         1.1127  -16.5390  -52.4897 C.ar      23 UNK        -0.1150 
     11 C11         1.2647  -17.9289  -52.5405 C.ar      23 UNK        -0.0193 
     12 C12         0.5576  -18.7346  -51.6417 C.ar      23 UNK        -0.1150 
     13 C13        -0.3067  -18.1573  -50.7080 C.ar      23 UNK        -0.0193 
     14 C14        -0.4555  -16.7700  -50.6752 C.ar      23 UNK        -0.1150 
     15 C15        -1.0928  -19.0152  -49.7328 C.3       23 UNK        -0.0205 
     16 S16        -0.4360  -18.8419  -48.0461 S.3       23 UNK        -0.2404 
     17 C17        -1.7665  -19.6044  -47.0639 C.3       23 UNK        -0.0398 
     18 CA         -1.4696  -21.0817  -46.7221 C.3       11 UNK         0.1400 
     19 N          -0.3523  -21.2441  -45.7874 N.am      11 UNK        -0.5000 
     20 C           0.1958  -22.4209  -45.4538 C.2       10 UNK         0.5000 
     21 O          -0.1621  -23.4973  -45.9286 O.2       10 UNK        -0.5000 
     22 CA          1.2816  -22.4073  -44.3643 C.3       10 UNK         0.1400 
     23 CB          2.6319  -21.9463  -44.9325 C.3       10 UNK        -0.1800 
     24 N           0.9075  -21.5815  -43.2159 N.am      10 UNK        -0.5000 
     25 C          -0.1383  -21.8336  -42.4150 C.2       9 UNK         0.5000 
     26 O          -0.8667  -22.8199  -42.5335 O.2       9 UNK        -0.5000 
     27 CA         -0.4518  -20.7896  -41.3273 C.3       9 UNK         0.1400 
     28 CB          0.4693  -20.9722  -40.1122 C.3       9 UNK        -0.1800 
     29 N          -0.3558  -19.4135  -41.8169 N.am      9 UNK        -0.5000 
     30 C          -1.1353  -18.8916  -42.7754 C.2       8 UNK         0.5000 
     31 O          -2.0531  -19.5034  -43.3211 O.2       8 UNK        -0.5000 
     32 CA         -0.7954  -17.4660  -43.2475 C.3       8 UNK         0.1400 
     33 CB         -1.3238  -16.4176  -42.2577 C.3       8 UNK        -0.1800 
     34 N           0.6398  -17.2689  -43.4495 N.am      8 UNK        -0.5000 
     35 C           1.3930  -17.9668  -44.3111 C.2       7 UNK         0.5000 
     36 O           0.9487  -18.8357  -45.0565 O.2       7 UNK        -0.5000 
     37 CA          2.9052  -17.6955  -44.2895 C.3       7 UNK         0.1400 
     38 CB          3.2504  -16.4108  -45.0592 C.3       7 UNK        -0.1800 
     39 N           3.4174  -17.6194  -42.9214 N.am      7 UNK        -0.5000 
     40 C           3.4786  -18.6633  -42.0812 C.2       6 UNK         0.5000 
     41 O           3.1511  -19.8093  -42.3878 O.2       6 UNK        -0.5000 
     42 CA          3.9461  -18.3675  -40.6449 C.3       6 UNK         0.1400 
     43 CB          5.4798  -18.3558  -40.5654 C.3       6 UNK        -0.1800 
     44 N           3.4237  -17.0978  -40.1384 N.am      6 UNK        -0.5000 
     45 C           2.1296  -16.8597  -39.8815 C.2       5 UNK         0.5000 
     46 O           1.2407  -17.7022  -40.0044 O.2       5 UNK        -0.5000 
     47 CA          1.7660  -15.4185  -39.4754 C.3       5 UNK         0.1400 
     48 CB          1.9740  -15.2102  -37.9681 C.3       5 UNK        -0.1800 
     49 N           2.5245  -14.4067  -40.2200 N.am      5 UNK        -0.5000 
     50 C           2.4521  -14.2445  -41.5468 C.2       4 UNK         0.5000 
     51 O           1.7339  -14.9323  -42.2785 O.2       4 UNK        -0.5000 
     52 CA          3.3594  -13.1770  -42.1713 C.3       4 UNK         0.1400 
     53 CB          4.8124  -13.6744  -42.2691 C.3       4 UNK        -0.1800 
     54 N           2.8445  -12.8974  -43.5037 N.am      4 UNK        -0.5000 
     55 C           2.9841  -11.7660  -44.1980 C.2       3 UNK         0.5000 
     56 O           3.6682  -10.8130  -43.8224 O.2       3 UNK        -0.5000 
     57 CA          2.2224  -11.6775  -45.5380 C.3       3 UNK         0.1400 
     58 CB          3.1779  -11.9279  -46.7151 C.3       3 UNK        -0.1800 
     59 N           1.0835  -12.5962  -45.6598 N.am      3 UNK        -0.5000 
     60 C          -0.0256  -12.5687  -44.9061 C.2       2 UNK         0.5000 
     61 O          -0.1955  -11.7885  -43.9675 O.2       2 UNK        -0.5000 
     62 CA         -1.1306  -13.5718  -45.3045 C.3       2 UNK         0.1400 
     63 CB         -2.4270  -13.4010  -44.4852 C.3       2 UNK        -0.1800 
     64 N          -1.4322  -13.5436  -46.7424 N.am      2 UNK        -0.5000 
     65 C          -1.8052  -12.4764  -47.4708 C.2       1 UNK         0.5000 
     66 O          -1.9259  -11.3373  -47.0176 O.2       1 UNK        -0.5000 
     67 C          -2.7485  -21.7813  -46.2270 C.2       11 UNK         0.5000 
     68 O          -3.4318  -22.4027  -47.0385 O.2       11 UNK        -0.5000 
     69 N          -3.0437  -21.7016  -44.9222 N.am      12 UNK        -0.5000 
     70 CA         -4.1729  -22.3928  -44.2975 C.3       12 UNK         0.1400 
     71 CB         -4.3349  -21.9250  -42.8435 C.3       12 UNK        -0.1800 
     72 C          -4.0411  -23.9251  -44.3761 C.2       12 UNK         0.5000 
     73 O          -5.0130  -24.5990  -44.7189 O.2       12 UNK        -0.5000 
     74 N          -2.8345  -24.4410  -44.1029 N.am      13 UNK        -0.5000 
     75 CA         -2.4977  -25.8622  -44.2027 C.3       13 UNK         0.1400 
     76 CB         -1.1239  -26.1054  -43.5593 C.3       13 UNK        -0.1800 
     77 C          -2.5232  -26.3869  -45.6517 C.2       13 UNK         0.5000 
     78 O          -3.0180  -27.4886  -45.8918 O.2       13 UNK        -0.5000 
     79 N          -2.0044  -25.5847  -46.5905 N.am      14 UNK        -0.5000 
     80 CA         -1.9225  -25.9018  -48.0179 C.3       14 UNK         0.1400 
     81 CB         -0.7835  -25.0753  -48.6382 C.3       14 UNK        -0.1800 
     82 C          -3.2342  -25.6615  -48.7920 C.2       14 UNK         0.5000 
     83 O          -3.2782  -25.9636  -49.9849 O.2       14 UNK        -0.5000 
     84 N          -4.2518  -25.0830  -48.1359 N.am      15 UNK        -0.5000 
     85 CA         -5.5418  -24.6578  -48.6946 C.3       15 UNK         0.1400 
     86 CB         -6.3864  -25.8790  -49.1137 C.3       15 UNK        -0.1800 
     87 C          -5.3609  -23.6275  -49.8297 C.2       15 UNK         0.5000 
     88 O          -5.8613  -23.8202  -50.9389 O.2       15 UNK        -0.5000 
     89 N          -4.5701  -22.5845  -49.5364 N.am      16 UNK        -0.5000 
     90 CA         -4.1275  -21.5060  -50.4300 C.3       16 UNK         0.1400 
     91 CB         -5.3149  -20.6110  -50.8316 C.3       16 UNK        -0.1800 
     92 C          -3.2997  -22.0085  -51.6351 C.2       16 UNK         0.5000 
     93 O          -3.2753  -21.3656  -52.6867 O.2       16 UNK        -0.5000 
     94 N          -2.6375  -23.1592  -51.4398 N.am      17 UNK        -0.5000 
     95 CA         -1.8978  -23.9559  -52.4227 C.3       17 UNK         0.1400 
     96 CB         -0.7022  -23.1695  -52.9944 C.3       17 UNK        -0.1800 
     97 C          -2.8102  -24.5652  -53.5092 C.2       17 UNK         0.5000 
     98 O          -2.3620  -24.7730  -54.6377 O.2       17 UNK        -0.5000 
     99 N          -4.0703  -24.8490  -53.1391 N.am      18 UNK        -0.5000 
    100 CA        -5.1377  -25.4290  -53.9623 C.3       18 UNK         0.1400 
    101 CB        -4.8075  -26.8897  -54.3329 C.3       18 UNK        -0.1800 
    102 C         -5.5009  -24.5593  -55.1852 C.2       18 UNK         0.5000 
    103 O         -5.8327  -25.0859  -56.2493 O.2       18 UNK        -0.5000 
    104 N         -5.4284  -23.2372  -55.0076 N.am      19 UNK        -0.5000 
    105 CA        -5.6800  -22.2150  -56.0144 C.3       19 UNK         0.1400 
    106 CB        -4.4366  -22.0628  -56.9124 C.3       19 UNK        -0.1800 
    107 C         -6.0272  -20.9018  -55.2979 C.2       19 UNK         0.5000 
    108 O         -6.0510  -20.8554  -54.0657 O.2       19 UNK        -0.5000 
    109 N         -6.2782  -19.8420  -56.0730 N.am      20 UNK        -0.5000 
    110 CA        -6.4865  -18.4849  -55.5722 C.3       20 UNK         0.1400 
    111 CB        -7.2157  -17.6649  -56.6515 C.3       20 UNK        -0.1800 
    112 C         -5.1399  -17.8559  -55.1620 C.2       20 UNK         0.5000 
    113 O         -4.5570  -17.1020  -55.9432 O.2       20 UNK        -0.5000 
    114 N         -4.6517  -18.2277  -53.9678 N.am      21 UNK        -0.5000 
    115 CA        -3.3869  -17.8021  -53.3510 C.3       21 UNK         0.1400 
    116 CB        -3.4648  -16.3141  -52.9517 C.3       21 UNK        -0.1800 
    117 C         -2.1821  -18.1304  -54.2561 C.2       21 UNK         0.5000 
    118 O         -1.4964  -17.2262  -54.7322 O.2       21 UNK        -0.5000 
    119 N         -2.0350  -19.4301  -54.5416 N.am      22 UNK        -0.5000 
    120 CA        -1.1135  -20.0504  -55.5101 C.3       22 UNK         0.1400 
    121 C         -1.2603  -19.6243  -57.0054 C.2       22 UNK         0.5000 
    122 N         -2.2187  -18.7853  -57.3814 N.am      22 UNK        -0.7600 
    123 O         -0.5226  -20.1114  -57.8577 O.2       22 UNK        -0.5000 
    124 C124        0.3579  -20.1594  -55.0091 C.3       23 UNK        -0.0398 
    125 S125        1.4174  -18.6822  -55.2084 S.3       23 UNK        -0.2404 
    126 C126        2.1983  -18.5504  -53.5676 C.3       23 UNK        -0.0205 
    127 H127       -4.2406  -16.5544  -48.2713 H         1 UNK         0.0600 
    128 H128       -3.4716  -16.3975  -49.8526 H         1 UNK         0.0600 
    129 H129       -5.1759  -15.9932  -49.6609 H         1 UNK         0.0600 
    130 H130       -2.0380  -14.6648  -49.7501 H         1 UNK         0.3000 
    131 H131       -2.8971  -12.0035  -49.2259 H         1 UNK         0.0600 
    132 H132       -1.2306  -12.1753  -50.8736 H         1 UNK         0.0800 
    133 H133       -0.4098  -11.4583  -49.5338 H         1 UNK         0.0800 
    134 H134       -0.9929  -14.2495  -51.8416 H         1 UNK         0.0800 
    135 H135        0.6666  -13.9537  -52.2898 H         1 UNK         0.0800 
    136 H136        1.6522  -15.9187  -53.1914 H         1 UNK         0.1150 
    137 H137        0.6766  -19.8083  -51.6707 H         1 UNK         0.1150 
    138 H138       -1.1185  -16.3304  -49.9473 H         1 UNK         0.1150 
    139 H139       -1.0611  -20.0654  -50.0267 H         1 UNK         0.0800 
    140 H140       -2.1393  -18.7087  -49.7602 H         1 UNK         0.0800 
    141 H141       -2.7053  -19.5052  -47.6120 H         1 UNK         0.0800 
    142 H142       -1.8921  -19.0225  -46.1493 H         1 UNK         0.0800 
    143 H143       -1.1840  -21.5860  -47.6479 H         1 UNK         0.0600 
    144 H144        0.0383  -20.3889  -45.3953 H         1 UNK         0.3000 
    145 H145        1.4020  -23.4322  -44.0074 H         1 UNK         0.0600 
    146 H146        3.4171  -22.0067  -44.1788 H         1 UNK         0.0600 
    147 H147        2.9361  -22.5742  -45.7707 H         1 UNK         0.0600 
    148 H148        2.5922  -20.9182  -45.2914 H         1 UNK         0.0600 
    149 H149        1.4865  -20.7687  -43.0316 H         1 UNK         0.3000 
    150 H150       -1.4804  -20.9533  -40.9994 H         1 UNK         0.0600 
    151 H151        0.4013  -21.9874  -39.7192 H         1 UNK         0.0600 
    152 H152        0.1959  -20.2919  -39.3055 H         1 UNK         0.0600 
    153 H153        1.5133  -20.7865  -40.3656 H         1 UNK         0.0600 
    154 H154        0.3502  -18.8250  -41.3852 H         1 UNK         0.3000 
    155 H155       -1.2869  -17.3052  -44.2092 H         1 UNK         0.0600 
    156 H156       -2.4086  -16.4803  -42.1658 H         1 UNK         0.0600 
    157 H157       -1.0796  -15.4077  -42.5847 H         1 UNK         0.0600 
    158 H158       -0.9010  -16.5525  -41.2622 H         1 UNK         0.0600 
    159 H159        1.0823  -16.5431  -42.8908 H         1 UNK         0.3000 
    160 H160        3.4019  -18.5298  -44.7895 H         1 UNK         0.0600 
    161 H161        2.7616  -15.5357  -44.6348 H         1 UNK         0.0600 
    162 H162        2.9316  -16.4871  -46.0996 H         1 UNK         0.0600 
    163 H163        4.3249  -16.2276  -45.0616 H         1 UNK         0.0600 
    164 H164        3.6601  -16.7047  -42.5749 H         1 UNK         0.3000 
    165 H165        3.5762  -19.1691  -40.0019 H         1 UNK         0.0600 
    166 H166        5.8201  -18.2209  -39.5385 H         1 UNK         0.0600 
    167 H167        5.8957  -19.2987  -40.9232 H         1 UNK         0.0600 
    168 H168        5.9104  -17.5565  -41.1700 H         1 UNK         0.0600 
    169 H169        4.0870  -16.3487  -40.0078 H         1 UNK         0.3000 
    170 H170        0.7066  -15.2720  -39.6962 H         1 UNK         0.0600 
    171 H171        1.4060  -15.9415  -37.3914 H         1 UNK         0.0600 
    172 H172        3.0227  -15.3127  -37.6865 H         1 UNK         0.0600 
    173 H173        1.6374  -14.2211  -37.6568 H         1 UNK         0.0600 
    174 H174        3.1361  -13.8106  -39.6809 H         1 UNK         0.3000 
    175 H175        3.3096  -12.2739  -41.5596 H         1 UNK         0.0600 
    176 H176        4.8890  -14.5771  -42.8764 H         1 UNK         0.0600 
    177 H177        5.4579  -12.9182  -42.7161 H         1 UNK         0.0600 
    178 H178        5.2191  -13.9031  -41.2835 H         1 UNK         0.0600 
    179 H179        2.2099  -13.6061  -43.8481 H         1 UNK         0.3000 
    180 H180        1.8354  -10.6600  -45.6220 H         1 UNK         0.0600 
    181 H181        3.5794  -12.9420  -46.6971 H         1 UNK         0.0600 
    182 H182        4.0235  -11.2394  -46.6869 H         1 UNK         0.0600 
    183 H183        2.6743  -11.7826  -47.6713 H         1 UNK         0.0600 
    184 H184        1.1242  -13.2555  -46.4235 H         1 UNK         0.3000 
    185 H185       -0.7328  -14.5643  -45.0865 H         1 UNK         0.0600 
    186 H186       -2.2320  -13.4792  -43.4154 H         1 UNK         0.0600 
    187 H187       -2.8912  -12.4299  -44.6598 H         1 UNK         0.0600 
    188 H188       -3.1561  -14.1704  -44.7393 H         1 UNK         0.0600 
    189 H189       -1.3570  -14.4278  -47.2243 H         1 UNK         0.3000 
    190 H190       -2.4734  -21.1167  -44.3177 H         1 UNK         0.3000 
    191 H191       -5.0763  -22.1110  -44.8426 H         1 UNK         0.0600 
    192 H192       -3.4535  -22.1514  -42.2440 H         1 UNK         0.0600 
    193 H193       -4.5053  -20.8494  -42.7930 H         1 UNK         0.0600 
    194 H194       -5.1880  -22.4120  -42.3697 H         1 UNK         0.0600 
    195 H195       -2.0951  -23.8172  -43.7936 H         1 UNK         0.3000 
    196 H196       -3.2415  -26.4239  -43.6337 H         1 UNK         0.0600 
    197 H197       -0.8551  -27.1616  -43.5978 H         1 UNK         0.0600 
    198 H198       -1.1221  -25.8064  -42.5109 H         1 UNK         0.0600 
    199 H199       -0.3366  -25.5463  -44.0659 H         1 UNK         0.0600 
    200 H200       -1.5537  -24.7210  -46.2969 H         1 UNK         0.3000 
    201 H201       -1.6713  -26.9587  -48.1274 H         1 UNK         0.0600 
    202 H202       -0.6233  -25.3441  -49.6824 H         1 UNK         0.0600 
    203 H203        0.1578  -25.2485  -48.1163 H         1 UNK         0.0600 
    204 H204       -0.9953  -24.0061  -48.5994 H         1 UNK         0.0600 
    205 H205       -4.0908  -24.8249  -47.1713 H         1 UNK         0.3000 
    206 H206       -6.0735  -24.1453  -47.8915 H         1 UNK         0.0600 
    207 H207       -6.5114  -26.5737  -48.2831 H         1 UNK         0.0600 
    208 H208       -7.3828  -25.5714  -49.4330 H         1 UNK         0.0600 
    209 H209       -5.9331  -26.4249  -49.9417 H         1 UNK         0.0600 
    210 H210       -4.1875  -22.5457  -48.5903 H         1 UNK         0.3000 
    211 H211       -3.4462  -20.8938  -49.8396 H         1 UNK         0.0600 
    212 H212       -5.8289  -20.2241  -49.9519 H         1 UNK         0.0600 
    213 H213       -4.9853  -19.7523  -51.4148 H         1 UNK         0.0600 
    214 H214       -6.0447  -21.1550  -51.4309 H         1 UNK         0.0600 
    215 H215       -2.7645  -23.6089  -50.5446 H         1 UNK         0.3000 
    216 H216       -1.4911  -24.8061  -51.8746 H         1 UNK         0.0600 
    217 H217       -0.0556  -23.8158  -53.5887 H         1 UNK         0.0600 
    218 H218       -1.0352  -22.3606  -53.6400 H         1 UNK         0.0600 
    219 H219       -0.0924  -22.7396  -52.1999 H         1 UNK         0.0600 
    220 H220       -4.3533  -24.6075  -52.1959 H         1 UNK         0.3000 
    221 H221       -6.0275  -25.4450  -53.3315 H         1 UNK         0.0600 
    222 H222       -3.9587  -26.9531  -55.0144 H         1 UNK         0.0600 
    223 H223       -4.5703  -27.4765  -53.4454 H         1 UNK         0.0600 
    224 H224       -5.6555  -27.3710  -54.8213 H         1 UNK         0.0600 
    225 H225       -5.2053  -22.8662  -54.0911 H         1 UNK         0.3000 
    226 H226       -6.5413  -22.5047  -56.6195 H         1 UNK         0.0600 
    227 H227       -4.1929  -22.9989  -57.4149 H         1 UNK         0.0600 
    228 H228       -4.5876  -21.3134  -57.6897 H         1 UNK         0.0600 
    229 H229       -3.5657  -21.7641  -56.3303 H         1 UNK         0.0600 
    230 H230       -6.2254  -19.9437  -57.0761 H         1 UNK         0.3000 
    231 H231       -7.1294  -18.5178  -54.6898 H         1 UNK         0.0600 
    232 H232       -7.3769  -16.6389  -56.3183 H         1 UNK         0.0600 
    233 H233       -8.1942  -18.0909  -56.8744 H         1 UNK         0.0600 
    234 H234       -6.6494  -17.6231  -57.5829 H         1 UNK         0.0600 
    235 H235       -5.1597  -18.9540  -53.4757 H         1 UNK         0.3000 
    236 H236       -3.2602  -18.3837  -52.4369 H         1 UNK         0.0600 
    237 H237       -4.3114  -16.1266  -52.2918 H         1 UNK         0.0600 
    238 H238       -2.5646  -16.0073  -52.4227 H         1 UNK         0.0600 
    239 H239       -3.5683  -15.6631  -53.8203 H         1 UNK         0.0600 
    240 H240       -2.6496  -20.0842  -54.0643 H         1 UNK         0.3000 
    241 H241       -1.4717  -21.0790  -55.5349 H         1 UNK         0.0600 
    242 H242       -2.3012  -18.5403  -58.3550 H         1 UNK         0.3800 
    243 H243       -2.8014  -18.3199  -56.6987 H         1 UNK         0.3800 
    244 H244        0.3590  -20.4637  -53.9636 H         1 UNK         0.0800 
    245 H245        0.8538  -20.9735  -55.5399 H         1 UNK         0.0800 
    246 H246        2.5402  -19.5330  -53.2389 H         1 UNK         0.0800 
    247 H247        3.0944  -17.9345  -53.6568 H         1 UNK         0.0800 
@<TRIPOS>BOND
     1    1    2 1    
     2    1  127 1    
     3    1  128 1    
     4    1  129 1    
     5    2    3 2    
     6    2    4 am   BACKBONE|DICT|INTERRES
     7    4    5 1    
     8    4  130 1    
     9    5    6 1    
    10    5   65 1    
    11    5  131 1    
    12    6    7 1    
    13    6  132 1    
    14    6  133 1    
    15    7    8 1    
    16    8    9 1    
    17    8  134 1    
    18    8  135 1    
    19    9   10 ar   
    20    9   14 ar   
    21   10   11 ar   
    22   10  136 1    
    23   11   12 ar   
    24   11  126 1    
    25   12   13 ar   
    26   12  137 1    
    27   13   14 ar   
    28   13   15 1    
    29   14  138 1    
    30   15   16 1    
    31   15  139 1    
    32   15  140 1    
    33   16   17 1    
    34   17   18 1    
    35   17  141 1    
    36   17  142 1    
    37   18   19 1    
    38   18   67 1    
    39   18  143 1    
    40   19   20 am   BACKBONE|DICT|INTERRES
    41   19  144 1    
    42   20   21 2    
    43   20   22 1    
    44   22   23 1    
    45   22   24 1    
    46   22  145 1    
    47   23  146 1    
    48   23  147 1    
    49   23  148 1    
    50   24   25 am   BACKBONE|DICT|INTERRES
    51   24  149 1    
    52   25   26 2    
    53   25   27 1    
    54   27   28 1    
    55   27   29 1    
    56   27  150 1    
    57   28  151 1    
    58   28  152 1    
    59   28  153 1    
    60   29   30 am   BACKBONE|DICT|INTERRES
    61   29  154 1    
    62   30   31 2    
    63   30   32 1    
    64   32   33 1    
    65   32   34 1    
    66   32  155 1    
    67   33  156 1    
    68   33  157 1    
    69   33  158 1    
    70   34   35 am   BACKBONE|DICT|INTERRES
    71   34  159 1    
    72   35   36 2    
    73   35   37 1    
    74   37   38 1    
    75   37   39 1    
    76   37  160 1    
    77   38  161 1    
    78   38  162 1    
    79   38  163 1    
    80   39   40 am   BACKBONE|DICT|INTERRES
    81   39  164 1    
    82   40   41 2    
    83   40   42 1    
    84   42   43 1    
    85   42   44 1    
    86   42  165 1    
    87   43  166 1    
    88   43  167 1    
    89   43  168 1    
    90   44   45 am   BACKBONE|DICT|INTERRES
    91   44  169 1    
    92   45   46 2    
    93   45   47 1    
    94   47   48 1    
    95   47   49 1    
    96   47  170 1    
    97   48  171 1    
    98   48  172 1    
    99   48  173 1    
   100   49   50 am   BACKBONE|DICT|INTERRES
   101   49  174 1    
   102   50   51 2    
   103   50   52 1    
   104   52   53 1    
   105   52   54 1    
   106   52  175 1    
   107   53  176 1    
   108   53  177 1    
   109   53  178 1    
   110   54   55 am   BACKBONE|DICT|INTERRES
   111   54  179 1    
   112   55   56 2    
   113   55   57 1    
   114   57   58 1    
   115   57   59 1    
   116   57  180 1    
   117   58  181 1    
   118   58  182 1    
   119   58  183 1    
   120   59   60 am   BACKBONE|DICT|INTERRES
   121   59  184 1    
   122   60   61 2    
   123   60   62 1    
   124   62   63 1    
   125   62   64 1    
   126   62  185 1    
   127   63  186 1    
   128   63  187 1    
   129   63  188 1    
   130   64   65 am   BACKBONE|DICT|INTERRES
   131   64  189 1    
   132   65   66 2    
   133   67   68 2    
   134   67   69 am   BACKBONE|DICT|INTERRES
   135   69   70 1    
   136   69  190 1    
   137   70   71 1    
   138   70   72 1    
   139   70  191 1    
   140   71  192 1    
   141   71  193 1    
   142   71  194 1    
   143   72   73 2    
   144   72   74 am   BACKBONE|DICT|INTERRES
   145   74   75 1    
   146   74  195 1    
   147   75   76 1    
   148   75   77 1    
   149   75  196 1    
   150   76  197 1    
   151   76  198 1    
   152   76  199 1    
   153   77   78 2    
   154   77   79 am   BACKBONE|DICT|INTERRES
   155   79   80 1    
   156   79  200 1    
   157   80   81 1    
   158   80   82 1    
   159   80  201 1    
   160   81  202 1    
   161   81  203 1    
   162   81  204 1    
   163   82   83 2    
   164   82   84 am   BACKBONE|DICT|INTERRES
   165   84   85 1    
   166   84  205 1    
   167   85   86 1    
   168   85   87 1    
   169   85  206 1    
   170   86  207 1    
   171   86  208 1    
   172   86  209 1    
   173   87   88 2    
   174   87   89 am   BACKBONE|DICT|INTERRES
   175   89   90 1    
   176   89  210 1    
   177   90   91 1    
   178   90   92 1    
   179   90  211 1    
   180   91  212 1    
   181   91  213 1    
   182   91  214 1    
   183   92   93 2    
   184   92   94 am   BACKBONE|DICT|INTERRES
   185   94   95 1    
   186   94  215 1    
   187   95   96 1    
   188   95   97 1    
   189   95  216 1    
   190   96  217 1    
   191   96  218 1    
   192   96  219 1    
   193   97   98 2    
   194   97   99 am   BACKBONE|DICT|INTERRES
   195   99  100 1    
   196   99  220 1    
   197  100  101 1    
   198  100  102 1    
   199  100  221 1    
   200  101  222 1    
   201  101  223 1    
   202  101  224 1    
   203  102  103 2    
   204  102  104 am   BACKBONE|DICT|INTERRES
   205  104  105 1    
   206  104  225 1    
   207  105  106 1    
   208  105  107 1    
   209  105  226 1    
   210  106  227 1    
   211  106  228 1    
   212  106  229 1    
   213  107  108 2    
   214  107  109 am   BACKBONE|DICT|INTERRES
   215  109  110 1    
   216  109  230 1    
   217  110  111 1    
   218  110  112 1    
   219  110  231 1    
   220  111  232 1    
   221  111  233 1    
   222  111  234 1    
   223  112  113 2    
   224  112  114 am   BACKBONE|DICT|INTERRES
   225  114  115 1    
   226  114  235 1    
   227  115  116 1    
   228  115  117 1    
   229  115  236 1    
   230  116  237 1    
   231  116  238 1    
   232  116  239 1    
   233  117  118 2    
   234  117  119 am   BACKBONE|DICT|INTERRES
   235  119  120 1    
   236  119  240 1    
   237  120  121 1    
   238  120  124 1    
   239  120  241 1    
   240  121  122 am   BACKBONE|DICT|INTERRES
   241  121  123 2    
   242  122  242 1    
   243  122  243 1    
   244  124  125 1    
   245  124  244 1    
   246  124  245 1    
   247  125  126 1    
   248  126  246 1    
   249  126  247 1    
@<TRIPOS>SUBSTRUCTURE
     1 UNK         1 GROUP             0       ****    0 ROOT    
