@<TRIPOS>MOLECULE
3R540
247   249    1
SMALL
USER_CHARGES


@<TRIPOS>ATOM
      1 CA          0.2001  -13.8372  -49.8279 C.3       0 UNK        -0.1800 
      2 C           1.4918  -14.3909  -49.2460 C.2       0 UNK         0.5000 
      3 O           2.4001  -13.6277  -48.9151 O.2       0 UNK        -0.5000 
      4 N           1.5776  -15.7198  -49.1261 N.am      1 UNK        -0.5000 
      5 CA          2.7056  -16.4324  -48.5216 C.3       1 UNK         0.1400 
      6 C6          2.6575  -17.9550  -48.7913 C.3       23 UNK        -0.0398 
      7 S7          2.7479  -18.3601  -50.5681 S.3       23 UNK        -0.2404 
      8 C8          1.1324  -19.1436  -50.8590 C.3       23 UNK        -0.0205 
      9 C9          0.0011  -18.1297  -50.9142 C.ar      23 UNK        -0.0193 
     10 C10        -0.2665  -17.4407  -52.0987 C.ar      23 UNK        -0.1150 
     11 C11        -1.3329  -16.5411  -52.1673 C.ar      23 UNK        -0.0193 
     12 C12        -2.1409  -16.3478  -51.0436 C.ar      23 UNK        -0.1150 
     13 C13        -1.8794  -17.0155  -49.8435 C.ar      23 UNK        -0.0193 
     14 C14        -0.7927  -17.8978  -49.7885 C.ar      23 UNK        -0.1150 
     15 C15        -2.7895  -16.7229  -48.6479 C.3       23 UNK        -0.0205 
     16 S16        -2.3143  -17.4857  -47.0569 S.3       23 UNK        -0.2404 
     17 C17        -3.0767  -19.1434  -47.1512 C.3       23 UNK        -0.0398 
     18 CA         -2.0638  -20.2919  -47.3816 C.3       11 UNK         0.1400 
     19 N          -0.9278  -20.2763  -46.4539 N.am      11 UNK        -0.5000 
     20 C           0.1523  -21.0634  -46.5665 C.2       10 UNK         0.5000 
     21 O           0.3378  -21.8375  -47.5045 O.2       10 UNK        -0.5000 
     22 CA          1.1681  -21.0274  -45.4148 C.3       10 UNK         0.1400 
     23 CB          2.1944  -19.9041  -45.6163 C.3       10 UNK        -0.1800 
     24 N           0.5026  -20.8761  -44.1219 N.am      10 UNK        -0.5000 
     25 C          -0.1625  -21.8627  -43.5037 C.2       9 UNK         0.5000 
     26 O          -0.2420  -23.0097  -43.9438 O.2       9 UNK        -0.5000 
     27 CA         -0.8949  -21.4985  -42.1977 C.3       9 UNK         0.1400 
     28 CB          0.0663  -21.5645  -41.0014 C.3       9 UNK        -0.1800 
     29 N          -1.5151  -20.1740  -42.2426 N.am      9 UNK        -0.5000 
     30 C          -2.5167  -19.8301  -43.0637 C.2       8 UNK         0.5000 
     31 O          -3.0619  -20.6127  -43.8403 O.2       8 UNK        -0.5000 
     32 CA         -2.9508  -18.3534  -43.0555 C.3       8 UNK         0.1400 
     33 CB         -4.0729  -18.1296  -42.0318 C.3       8 UNK        -0.1800 
     34 N          -1.8667  -17.4041  -42.7928 N.am      8 UNK        -0.5000 
     35 C          -0.7238  -17.2914  -43.4812 C.2       7 UNK         0.5000 
     36 O          -0.3882  -18.0732  -44.3694 O.2       7 UNK        -0.5000 
     37 CA          0.2212  -16.1439  -43.0809 C.3       7 UNK         0.1400 
     38 CB         -0.3683  -14.7691  -43.4461 C.3       7 UNK        -0.1800 
     39 N           0.6541  -16.1902  -41.6782 N.am      7 UNK        -0.5000 
     40 C          -0.0742  -16.0430  -40.5603 C.2       6 UNK         0.5000 
     41 O          -1.2873  -15.8293  -40.5469 O.2       6 UNK        -0.5000 
     42 CA          0.6797  -16.1746  -39.2222 C.3       6 UNK         0.1400 
     43 CB          0.5674  -17.6133  -38.6929 C.3       6 UNK        -0.1800 
     44 N           2.0963  -15.8076  -39.3106 N.am      6 UNK        -0.5000 
     45 C           2.5497  -14.5602  -39.4978 C.2       5 UNK         0.5000 
     46 O           1.8056  -13.5800  -39.5787 O.2       5 UNK        -0.5000 
     47 CA          4.0778  -14.3711  -39.6162 C.3       5 UNK         0.1400 
     48 CB          4.8418  -15.6749  -39.9252 C.3       5 UNK        -0.1800 
     49 N           4.3601  -13.4100  -40.6780 N.am      5 UNK        -0.5000 
     50 C           4.5757  -12.0963  -40.5062 C.2       4 UNK         0.5000 
     51 O           4.6874  -11.5568  -39.4045 O.2       4 UNK        -0.5000 
     52 CA          4.6592  -11.2343  -41.7785 C.3       4 UNK         0.1400 
     53 CB          6.1208  -11.1036  -42.2472 C.3       4 UNK        -0.1800 
     54 N           3.8262  -11.8194  -42.8252 N.am      4 UNK        -0.5000 
     55 C           3.4722  -11.2952  -43.9979 C.2       3 UNK         0.5000 
     56 O           3.8105  -10.1747  -44.3835 O.2       3 UNK        -0.5000 
     57 CA          2.5999  -12.2135  -44.8831 C.3       3 UNK         0.1400 
     58 CB          2.1160  -11.5186  -46.1676 C.3       3 UNK        -0.1800 
     59 N           3.2799  -13.4614  -45.2485 N.am      3 UNK        -0.5000 
     60 C           3.5613  -14.4951  -44.4395 C.2       2 UNK         0.5000 
     61 O           3.2792  -14.5171  -43.2377 O.2       2 UNK        -0.5000 
     62 CA          4.3041  -15.6911  -45.0765 C.3       2 UNK         0.1400 
     63 CB          4.1467  -16.9958  -44.2676 C.3       2 UNK        -0.1800 
     64 N           3.9753  -15.9191  -46.4901 N.am      2 UNK        -0.5000 
     65 C           2.7614  -16.1670  -47.0043 C.2       1 UNK         0.5000 
     66 O           1.7240  -16.2116  -46.3417 O.2       1 UNK        -0.5000 
     67 C          -2.7796  -21.6545  -47.3749 C.2       11 UNK         0.5000 
     68 O          -3.0654  -22.1894  -48.4451 O.2       11 UNK        -0.5000 
     69 N          -3.0246  -22.2136  -46.1827 N.am      12 UNK        -0.5000 
     70 CA         -3.6023  -23.5443  -45.9921 C.3       12 UNK         0.1400 
     71 CB         -3.8632  -23.7813  -44.4975 C.3       12 UNK        -0.1800 
     72 C          -2.7280  -24.6676  -46.5792 C.2       12 UNK         0.5000 
     73 O          -3.2637  -25.5966  -47.1831 O.2       12 UNK        -0.5000 
     74 N          -1.4057  -24.5518  -46.4026 N.am      13 UNK        -0.5000 
     75 CA         -0.4223  -25.5172  -46.8822 C.3       13 UNK         0.1400 
     76 CB          0.8989  -25.3213  -46.1204 C.3       13 UNK        -0.1800 
     77 C          -0.1976  -25.4464  -48.4034 C.2       13 UNK         0.5000 
     78 O          -0.3815  -26.4524  -49.0898 O.2       13 UNK        -0.5000 
     79 N           0.2391  -24.2807  -48.8976 N.am      14 UNK        -0.5000 
     80 CA          0.7697  -24.1237  -50.2526 C.3       14 UNK         0.1400 
     81 CB          1.9011  -23.0842  -50.2329 C.3       14 UNK        -0.1800 
     82 C          -0.2978  -23.7350  -51.2858 C.2       14 UNK         0.5000 
     83 O          -0.2235  -24.2003  -52.4234 O.2       14 UNK        -0.5000 
     84 N          -1.2620  -22.8943  -50.8883 N.am      15 UNK        -0.5000 
     85 CA         -2.3189  -22.3880  -51.7704 C.3       15 UNK         0.1400 
     86 CB         -2.5133  -20.8832  -51.5176 C.3       15 UNK        -0.1800 
     87 C          -3.6443  -23.1535  -51.6087 C.2       15 UNK         0.5000 
     88 O          -4.6196  -22.7979  -52.2721 O.2       15 UNK        -0.5000 
     89 N          -3.6744  -24.1612  -50.7231 N.am      16 UNK        -0.5000 
     90 CA         -4.8310  -24.9877  -50.3580 C.3       16 UNK         0.1400 
     91 CB         -5.2523  -25.8807  -51.5436 C.3       16 UNK        -0.1800 
     92 C          -5.9996  -24.1540  -49.7891 C.2       16 UNK         0.5000 
     93 O          -7.1576  -24.4050  -50.1199 O.2       16 UNK        -0.5000 
     94 N          -5.6648  -23.1375  -48.9807 N.am      17 UNK        -0.5000 
     95 CA         -6.5597  -22.1070  -48.4382 C.3       17 UNK         0.1400 
     96 CB         -7.6071  -22.7140  -47.4816 C.3       17 UNK        -0.1800 
     97 C          -7.1721  -21.2375  -49.5570 C.2       17 UNK         0.5000 
     98 O          -8.3546  -20.8977  -49.5131 O.2       17 UNK        -0.5000 
     99 N          -6.3297  -20.9258  -50.5525 N.am      18 UNK        -0.5000 
    100 CA        -6.5914  -20.1872  -51.7920 C.3       18 UNK         0.1400 
    101 CB        -7.1896  -18.7930  -51.5173 C.3       18 UNK        -0.1800 
    102 C         -7.3897  -20.9739  -52.8524 C.2       18 UNK         0.5000 
    103 O         -7.6247  -20.4352  -53.9352 O.2       18 UNK        -0.5000 
    104 N         -7.7458  -22.2391  -52.5799 N.am      19 UNK        -0.5000 
    105 CA        -8.4526  -23.1177  -53.5176 C.3       19 UNK         0.1400 
    106 CB        -8.9667  -24.3620  -52.7802 C.3       19 UNK        -0.1800 
    107 C         -7.6009  -23.5276  -54.7353 C.2       19 UNK         0.5000 
    108 O         -8.1662  -23.8263  -55.7877 O.2       19 UNK        -0.5000 
    109 N         -6.2675  -23.5039  -54.5914 N.am      20 UNK        -0.5000 
    110 CA        -5.3114  -23.7371  -55.6765 C.3       20 UNK         0.1400 
    111 CB        -4.0467  -24.4024  -55.1071 C.3       20 UNK        -0.1800 
    112 C         -4.9572  -22.4435  -56.4401 C.2       20 UNK         0.5000 
    113 O         -4.0546  -22.4771  -57.2778 O.2       20 UNK        -0.5000 
    114 N         -5.6353  -21.3249  -56.1292 N.am      21 UNK        -0.5000 
    115 CA        -5.4849  -19.9966  -56.7369 C.3       21 UNK         0.1400 
    116 CB        -6.0375  -20.0017  -58.1773 C.3       21 UNK        -0.1800 
    117 C         -4.0409  -19.4606  -56.6439 C.2       21 UNK         0.5000 
    118 O         -3.4939  -18.9695  -57.6328 O.2       21 UNK        -0.5000 
    119 N         -3.4485  -19.6117  -55.4515 N.am      22 UNK        -0.5000 
    120 CA        -2.0490  -19.2895  -55.1139 C.3       22 UNK         0.1400 
    121 C         -0.9958  -20.2841  -55.6926 C.2       22 UNK         0.5000 
    122 N         -1.3788  -21.3646  -56.3640 N.am      22 UNK        -0.7600 
    123 O          0.2010  -20.0924  -55.4979 O.2       22 UNK        -0.5000 
    124 C124       -1.6595  -17.8078  -55.3873 C.3       23 UNK        -0.0398 
    125 S125       -2.7564  -16.6083  -54.5516 S.3       23 UNK        -0.2404 
    126 C126       -1.6000  -15.7505  -53.4387 C.3       23 UNK        -0.0205 
    127 H127        0.1325  -12.7616  -49.6639 H         1 UNK         0.0600 
    128 H128       -0.6652  -14.3042  -49.3581 H         1 UNK         0.0600 
    129 H129        0.1566  -14.0245  -50.9009 H         1 UNK         0.0600 
    130 H130        0.8002  -16.2964  -49.4169 H         1 UNK         0.3000 
    131 H131        3.6195  -16.0400  -48.9732 H         1 UNK         0.0600 
    132 H132        1.7644  -18.3982  -48.3485 H         1 UNK         0.0800 
    133 H133        3.5049  -18.4479  -48.3115 H         1 UNK         0.0800 
    134 H134        1.1726  -19.6921  -51.8015 H         1 UNK         0.0800 
    135 H135        0.9378  -19.8877  -50.0858 H         1 UNK         0.0800 
    136 H136        0.3617  -17.6038  -52.9625 H         1 UNK         0.1150 
    137 H137       -2.9691  -15.6549  -51.0988 H         1 UNK         0.1150 
    138 H138       -0.5459  -18.4070  -48.8717 H         1 UNK         0.1150 
    139 H139       -2.8024  -15.6431  -48.4932 H         1 UNK         0.0800 
    140 H140       -3.8138  -17.0029  -48.8966 H         1 UNK         0.0800 
    141 H141       -3.8320  -19.1471  -47.9389 H         1 UNK         0.0800 
    142 H142       -3.6204  -19.2993  -46.2184 H         1 UNK         0.0800 
    143 H143       -1.6581  -20.1838  -48.3868 H         1 UNK         0.0600 
    144 H144       -0.9720  -19.6174  -45.6837 H         1 UNK         0.3000 
    145 H145        1.7094  -21.9758  -45.4154 H         1 UNK         0.0600 
    146 H146        2.9098  -19.8715  -44.7948 H         1 UNK         0.0600 
    147 H147        2.7616  -20.0614  -46.5338 H         1 UNK         0.0600 
    148 H148        1.7188  -18.9261  -45.6876 H         1 UNK         0.0600 
    149 H149        0.4330  -19.9327  -43.7614 H         1 UNK         0.3000 
    150 H150       -1.6854  -22.2362  -42.0439 H         1 UNK         0.0600 
    151 H151        0.5321  -22.5482  -40.9294 H         1 UNK         0.0600 
    152 H152       -0.4588  -21.3852  -40.0630 H         1 UNK         0.0600 
    153 H153        0.8661  -20.8275  -41.0847 H         1 UNK         0.0600 
    154 H154       -1.1229  -19.4625  -41.6445 H         1 UNK         0.3000 
    155 H155       -3.3438  -18.1249  -44.0476 H         1 UNK         0.0600 
    156 H156       -3.7246  -18.2964  -41.0116 H         1 UNK         0.0600 
    157 H157       -4.4631  -17.1134  -42.0906 H         1 UNK         0.0600 
    158 H158       -4.9079  -18.8085  -42.2107 H         1 UNK         0.0600 
    159 H159       -2.0010  -16.7550  -42.0218 H         1 UNK         0.3000 
    160 H160        1.1269  -16.2678  -43.6726 H         1 UNK         0.0600 
    161 H161       -1.3222  -14.5833  -42.9522 H         1 UNK         0.0600 
    162 H162       -0.5347  -14.6956  -44.5217 H         1 UNK         0.0600 
    163 H163        0.3132  -13.9676  -43.1642 H         1 UNK         0.0600 
    164 H164        1.6425  -16.3546  -41.5533 H         1 UNK         0.3000 
    165 H165        0.1969  -15.5074  -38.5049 H         1 UNK         0.0600 
    166 H166        1.0288  -17.7091  -37.7099 H         1 UNK         0.0600 
    167 H167       -0.4768  -17.9117  -38.5898 H         1 UNK         0.0600 
    168 H168        1.0482  -18.3288  -39.3615 H         1 UNK         0.0600 
    169 H169        2.7652  -16.5607  -39.2401 H         1 UNK         0.3000 
    170 H170        4.4330  -13.9897  -38.6569 H         1 UNK         0.0600 
    171 H171        4.4816  -16.1496  -40.8388 H         1 UNK         0.0600 
    172 H172        5.9065  -15.4794  -40.0549 H         1 UNK         0.0600 
    173 H173        4.7515  -16.3945  -39.1108 H         1 UNK         0.0600 
    174 H174        4.2620  -13.7787  -41.6158 H         1 UNK         0.3000 
    175 H175        4.2680  -10.2435  -41.5395 H         1 UNK         0.0600 
    176 H176        6.2124  -10.4181  -43.0894 H         1 UNK         0.0600 
    177 H177        6.5305  -12.0671  -42.5530 H         1 UNK         0.0600 
    178 H178        6.7534  -10.7155  -41.4478 H         1 UNK         0.0600 
    179 H179        3.4691  -12.7505  -42.6345 H         1 UNK         0.3000 
    180 H180        1.7144  -12.4674  -44.2987 H         1 UNK         0.0600 
    181 H181        2.9461  -11.2746  -46.8316 H         1 UNK         0.0600 
    182 H182        1.5907  -10.5904  -45.9391 H         1 UNK         0.0600 
    183 H183        1.4219  -12.1536  -46.7186 H         1 UNK         0.0600 
    184 H184        3.5527  -13.5402  -46.2178 H         1 UNK         0.3000 
    185 H185        5.3610  -15.4224  -45.0521 H         1 UNK         0.0600 
    186 H186        3.1087  -17.3219  -44.2188 H         1 UNK         0.0600 
    187 H187        4.7276  -17.8045  -44.7109 H         1 UNK         0.0600 
    188 H188        4.5003  -16.8712  -43.2438 H         1 UNK         0.0600 
    189 H189        4.7637  -15.8863  -47.1219 H         1 UNK         0.3000 
    190 H190       -2.8213  -21.6845  -45.3375 H         1 UNK         0.3000 
    191 H191       -4.5643  -23.5704  -46.5045 H         1 UNK         0.0600 
    192 H192       -4.5542  -23.0394  -44.0967 H         1 UNK         0.0600 
    193 H193       -4.3063  -24.7634  -44.3282 H         1 UNK         0.0600 
    194 H194       -2.9432  -23.7298  -43.9145 H         1 UNK         0.0600 
    195 H195       -1.0529  -23.7737  -45.8591 H         1 UNK         0.3000 
    196 H196       -0.7885  -26.5197  -46.6499 H         1 UNK         0.0600 
    197 H197        1.6564  -26.0281  -46.4613 H         1 UNK         0.0600 
    198 H198        0.7622  -25.4825  -45.0509 H         1 UNK         0.0600 
    199 H199        1.3012  -24.3169  -46.2554 H         1 UNK         0.0600 
    200 H200        0.3195  -23.4715  -48.2839 H         1 UNK         0.3000 
    201 H201        1.2079  -25.0699  -50.5783 H         1 UNK         0.0600 
    202 H202        2.7088  -23.3951  -49.5702 H         1 UNK         0.0600 
    203 H203        1.5487  -22.1116  -49.8930 H         1 UNK         0.0600 
    204 H204        2.3290  -22.9496  -51.2272 H         1 UNK         0.0600 
    205 H205       -1.2909  -22.5901  -49.9238 H         1 UNK         0.3000 
    206 H206       -2.0212  -22.5000  -52.8148 H         1 UNK         0.0600 
    207 H207       -2.8651  -20.6717  -50.5095 H         1 UNK         0.0600 
    208 H208       -1.5801  -20.3424  -51.6661 H         1 UNK         0.0600 
    209 H209       -3.2406  -20.4593  -52.2095 H         1 UNK         0.0600 
    210 H210       -2.8264  -24.3433  -50.2059 H         1 UNK         0.3000 
    211 H211       -4.5025  -25.6447  -49.5526 H         1 UNK         0.0600 
    212 H212       -5.6541  -25.2952  -52.3700 H         1 UNK         0.0600 
    213 H213       -6.0231  -26.5912  -51.2432 H         1 UNK         0.0600 
    214 H214       -4.4087  -26.4581  -51.9215 H         1 UNK         0.0600 
    215 H215       -4.6730  -22.9790  -48.8132 H         1 UNK         0.3000 
    216 H216       -5.9314  -21.4390  -47.8476 H         1 UNK         0.0600 
    217 H217       -8.1691  -21.9296  -46.9737 H         1 UNK         0.0600 
    218 H218       -7.1328  -23.3226  -46.7119 H         1 UNK         0.0600 
    219 H219       -8.3279  -23.3399  -48.0079 H         1 UNK         0.0600 
    220 H220       -5.4067  -21.3331  -50.5045 H         1 UNK         0.3000 
    221 H221       -5.6102  -20.0254  -52.2387 H         1 UNK         0.0600 
    222 H222       -8.2149  -18.8531  -51.1522 H         1 UNK         0.0600 
    223 H223       -6.5993  -18.2478  -50.7808 H         1 UNK         0.0600 
    224 H224       -7.2065  -18.1912  -52.4268 H         1 UNK         0.0600 
    225 H225       -7.4923  -22.6385  -51.6860 H         1 UNK         0.3000 
    226 H226       -9.3193  -22.5698  -53.8933 H         1 UNK         0.0600 
    227 H227       -9.5426  -24.0916  -51.8949 H         1 UNK         0.0600 
    228 H228       -9.6181  -24.9529  -53.4251 H         1 UNK         0.0600 
    229 H229       -8.1488  -25.0104  -52.4664 H         1 UNK         0.0600 
    230 H230       -5.8689  -23.2381  -53.6942 H         1 UNK         0.3000 
    231 H231       -5.7491  -24.4281  -56.3996 H         1 UNK         0.0600 
    232 H232       -3.4604  -23.7079  -54.5071 H         1 UNK         0.0600 
    233 H233       -3.3996  -24.7566  -55.9103 H         1 UNK         0.0600 
    234 H234       -4.2920  -25.2646  -54.4873 H         1 UNK         0.0600 
    235 H235       -6.3462  -21.3858  -55.4102 H         1 UNK         0.3000 
    236 H236       -6.1023  -19.3154  -56.1494 H         1 UNK         0.0600 
    237 H237       -7.0674  -20.3577  -58.2019 H         1 UNK         0.0600 
    238 H238       -6.0320  -18.9972  -58.6019 H         1 UNK         0.0600 
    239 H239       -5.4467  -20.6393  -58.8358 H         1 UNK         0.0600 
    240 H240       -3.9824  -20.0490  -54.7160 H         1 UNK         0.3000 
    241 H241       -1.9811  -19.4311  -54.0357 H         1 UNK         0.0600 
    242 H242       -2.3523  -21.5419  -56.5806 H         1 UNK         0.3800 
    243 H243       -0.6746  -21.9941  -56.7142 H         1 UNK         0.3800 
    244 H244       -0.6314  -17.6237  -55.0757 H         1 UNK         0.0800 
    245 H245       -1.6736  -17.5947  -56.4563 H         1 UNK         0.0800 
    246 H246       -0.6659  -15.5337  -53.9591 H         1 UNK         0.0800 
    247 H247       -2.0263  -14.7801  -53.1798 H         1 UNK         0.0800 
@<TRIPOS>BOND
     1    1    2 1    
     2    1  127 1    
     3    1  128 1    
     4    1  129 1    
     5    2    3 2    
     6    2    4 am   BACKBONE|DICT|INTERRES
     7    4    5 1    
     8    4  130 1    
     9    5    6 1    
    10    5   65 1    
    11    5  131 1    
    12    6    7 1    
    13    6  132 1    
    14    6  133 1    
    15    7    8 1    
    16    8    9 1    
    17    8  134 1    
    18    8  135 1    
    19    9   10 ar   
    20    9   14 ar   
    21   10   11 ar   
    22   10  136 1    
    23   11   12 ar   
    24   11  126 1    
    25   12   13 ar   
    26   12  137 1    
    27   13   14 ar   
    28   13   15 1    
    29   14  138 1    
    30   15   16 1    
    31   15  139 1    
    32   15  140 1    
    33   16   17 1    
    34   17   18 1    
    35   17  141 1    
    36   17  142 1    
    37   18   19 1    
    38   18   67 1    
    39   18  143 1    
    40   19   20 am   BACKBONE|DICT|INTERRES
    41   19  144 1    
    42   20   21 2    
    43   20   22 1    
    44   22   23 1    
    45   22   24 1    
    46   22  145 1    
    47   23  146 1    
    48   23  147 1    
    49   23  148 1    
    50   24   25 am   BACKBONE|DICT|INTERRES
    51   24  149 1    
    52   25   26 2    
    53   25   27 1    
    54   27   28 1    
    55   27   29 1    
    56   27  150 1    
    57   28  151 1    
    58   28  152 1    
    59   28  153 1    
    60   29   30 am   BACKBONE|DICT|INTERRES
    61   29  154 1    
    62   30   31 2    
    63   30   32 1    
    64   32   33 1    
    65   32   34 1    
    66   32  155 1    
    67   33  156 1    
    68   33  157 1    
    69   33  158 1    
    70   34   35 am   BACKBONE|DICT|INTERRES
    71   34  159 1    
    72   35   36 2    
    73   35   37 1    
    74   37   38 1    
    75   37   39 1    
    76   37  160 1    
    77   38  161 1    
    78   38  162 1    
    79   38  163 1    
    80   39   40 am   BACKBONE|DICT|INTERRES
    81   39  164 1    
    82   40   41 2    
    83   40   42 1    
    84   42   43 1    
    85   42   44 1    
    86   42  165 1    
    87   43  166 1    
    88   43  167 1    
    89   43  168 1    
    90   44   45 am   BACKBONE|DICT|INTERRES
    91   44  169 1    
    92   45   46 2    
    93   45   47 1    
    94   47   48 1    
    95   47   49 1    
    96   47  170 1    
    97   48  171 1    
    98   48  172 1    
    99   48  173 1    
   100   49   50 am   BACKBONE|DICT|INTERRES
   101   49  174 1    
   102   50   51 2    
   103   50   52 1    
   104   52   53 1    
   105   52   54 1    
   106   52  175 1    
   107   53  176 1    
   108   53  177 1    
   109   53  178 1    
   110   54   55 am   BACKBONE|DICT|INTERRES
   111   54  179 1    
   112   55   56 2    
   113   55   57 1    
   114   57   58 1    
   115   57   59 1    
   116   57  180 1    
   117   58  181 1    
   118   58  182 1    
   119   58  183 1    
   120   59   60 am   BACKBONE|DICT|INTERRES
   121   59  184 1    
   122   60   61 2    
   123   60   62 1    
   124   62   63 1    
   125   62   64 1    
   126   62  185 1    
   127   63  186 1    
   128   63  187 1    
   129   63  188 1    
   130   64   65 am   BACKBONE|DICT|INTERRES
   131   64  189 1    
   132   65   66 2    
   133   67   68 2    
   134   67   69 am   BACKBONE|DICT|INTERRES
   135   69   70 1    
   136   69  190 1    
   137   70   71 1    
   138   70   72 1    
   139   70  191 1    
   140   71  192 1    
   141   71  193 1    
   142   71  194 1    
   143   72   73 2    
   144   72   74 am   BACKBONE|DICT|INTERRES
   145   74   75 1    
   146   74  195 1    
   147   75   76 1    
   148   75   77 1    
   149   75  196 1    
   150   76  197 1    
   151   76  198 1    
   152   76  199 1    
   153   77   78 2    
   154   77   79 am   BACKBONE|DICT|INTERRES
   155   79   80 1    
   156   79  200 1    
   157   80   81 1    
   158   80   82 1    
   159   80  201 1    
   160   81  202 1    
   161   81  203 1    
   162   81  204 1    
   163   82   83 2    
   164   82   84 am   BACKBONE|DICT|INTERRES
   165   84   85 1    
   166   84  205 1    
   167   85   86 1    
   168   85   87 1    
   169   85  206 1    
   170   86  207 1    
   171   86  208 1    
   172   86  209 1    
   173   87   88 2    
   174   87   89 am   BACKBONE|DICT|INTERRES
   175   89   90 1    
   176   89  210 1    
   177   90   91 1    
   178   90   92 1    
   179   90  211 1    
   180   91  212 1    
   181   91  213 1    
   182   91  214 1    
   183   92   93 2    
   184   92   94 am   BACKBONE|DICT|INTERRES
   185   94   95 1    
   186   94  215 1    
   187   95   96 1    
   188   95   97 1    
   189   95  216 1    
   190   96  217 1    
   191   96  218 1    
   192   96  219 1    
   193   97   98 2    
   194   97   99 am   BACKBONE|DICT|INTERRES
   195   99  100 1    
   196   99  220 1    
   197  100  101 1    
   198  100  102 1    
   199  100  221 1    
   200  101  222 1    
   201  101  223 1    
   202  101  224 1    
   203  102  103 2    
   204  102  104 am   BACKBONE|DICT|INTERRES
   205  104  105 1    
   206  104  225 1    
   207  105  106 1    
   208  105  107 1    
   209  105  226 1    
   210  106  227 1    
   211  106  228 1    
   212  106  229 1    
   213  107  108 2    
   214  107  109 am   BACKBONE|DICT|INTERRES
   215  109  110 1    
   216  109  230 1    
   217  110  111 1    
   218  110  112 1    
   219  110  231 1    
   220  111  232 1    
   221  111  233 1    
   222  111  234 1    
   223  112  113 2    
   224  112  114 am   BACKBONE|DICT|INTERRES
   225  114  115 1    
   226  114  235 1    
   227  115  116 1    
   228  115  117 1    
   229  115  236 1    
   230  116  237 1    
   231  116  238 1    
   232  116  239 1    
   233  117  118 2    
   234  117  119 am   BACKBONE|DICT|INTERRES
   235  119  120 1    
   236  119  240 1    
   237  120  121 1    
   238  120  124 1    
   239  120  241 1    
   240  121  122 am   BACKBONE|DICT|INTERRES
   241  121  123 2    
   242  122  242 1    
   243  122  243 1    
   244  124  125 1    
   245  124  244 1    
   246  124  245 1    
   247  125  126 1    
   248  126  246 1    
   249  126  247 1    
@<TRIPOS>SUBSTRUCTURE
     1 UNK         1 GROUP             0       ****    0 ROOT    
