@<TRIPOS>MOLECULE
3R540
247   249    1
SMALL
USER_CHARGES


@<TRIPOS>ATOM
      1 CA         -0.4466  -11.9076  -47.9043 C.3       0 UNK        -0.1800 
      2 C           0.9993  -12.2830  -47.6151 C.2       0 UNK         0.5000 
      3 O           1.2884  -12.8420  -46.5582 O.2       0 UNK        -0.5000 
      4 N           1.9172  -11.9606  -48.5370 N.am      1 UNK        -0.5000 
      5 CA          3.3630  -12.2372  -48.4467 C.3       1 UNK         0.1400 
      6 C6          3.7044  -13.7556  -48.3906 C.3       23 UNK        -0.0398 
      7 S7          2.8916  -14.7539  -49.6881 S.3       23 UNK        -0.2404 
      8 C8          4.2910  -15.6559  -50.4217 C.3       23 UNK        -0.0205 
      9 C9          3.8436  -17.0188  -50.9245 C.ar      23 UNK        -0.0193 
     10 C10         3.3473  -17.1746  -52.2216 C.ar      23 UNK        -0.1150 
     11 C11         2.9157  -18.4279  -52.6754 C.ar      23 UNK        -0.0193 
     12 C12         2.9992  -19.5300  -51.8171 C.ar      23 UNK        -0.1150 
     13 C13         3.5126  -19.3899  -50.5239 C.ar      23 UNK        -0.0193 
     14 C14         3.9305  -18.1310  -50.0848 C.ar      23 UNK        -0.1150 
     15 C15         3.6559  -20.5990  -49.6099 C.3       23 UNK        -0.0205 
     16 S16         2.6885  -20.4218  -48.0789 S.3       23 UNK        -0.2404 
     17 C17         0.9846  -20.6715  -48.6790 C.3       23 UNK        -0.0398 
     18 CA          0.2450  -21.7559  -47.8631 C.3       11 UNK         0.1400 
     19 N           0.1269  -21.4178  -46.4415 N.am      11 UNK        -0.5000 
     20 C          -0.3349  -22.2450  -45.4934 C.2       10 UNK         0.5000 
     21 O          -0.6691  -23.4108  -45.7031 O.2       10 UNK        -0.5000 
     22 CA         -0.5048  -21.6519  -44.0859 C.3       10 UNK         0.1400 
     23 CB          0.8174  -21.6889  -43.3045 C.3       10 UNK        -0.1800 
     24 N          -1.0092  -20.2810  -44.1422 N.am      10 UNK        -0.5000 
     25 C          -2.2673  -19.9545  -44.4676 C.2       9 UNK         0.5000 
     26 O          -3.1448  -20.7821  -44.7174 O.2       9 UNK        -0.5000 
     27 CA         -2.5863  -18.4501  -44.5623 C.3       9 UNK         0.1400 
     28 CB         -2.8594  -17.8778  -43.1666 C.3       9 UNK        -0.1800 
     29 N          -1.5186  -17.6791  -45.2045 N.am      9 UNK        -0.5000 
     30 C          -1.1651  -17.8274  -46.4884 C.2       8 UNK         0.5000 
     31 O          -1.7175  -18.6095  -47.2594 O.2       8 UNK        -0.5000 
     32 CA          0.0280  -17.0027  -47.0000 C.3       8 UNK         0.1400 
     33 CB         -0.4490  -15.6315  -47.4911 C.3       8 UNK        -0.1800 
     34 N           1.1241  -16.8207  -46.0469 N.am      8 UNK        -0.5000 
     35 C           1.7408  -17.7855  -45.3502 C.2       7 UNK         0.5000 
     36 O           1.3698  -18.9584  -45.3184 O.2       7 UNK        -0.5000 
     37 CA          2.9857  -17.3779  -44.5565 C.3       7 UNK         0.1400 
     38 CB          3.7748  -16.2289  -45.2101 C.3       7 UNK        -0.1800 
     39 N           2.6125  -17.0256  -43.1880 N.am      7 UNK        -0.5000 
     40 C           3.3476  -17.3270  -42.1075 C.2       6 UNK         0.5000 
     41 O           4.4250  -17.9211  -42.1733 O.2       6 UNK        -0.5000 
     42 CA          2.8218  -16.9084  -40.7177 C.3       6 UNK         0.1400 
     43 CB          3.8593  -16.0751  -39.9455 C.3       6 UNK        -0.1800 
     44 N           1.5735  -16.1506  -40.7752 N.am      6 UNK        -0.5000 
     45 C           0.3492  -16.6780  -40.6478 C.2       5 UNK         0.5000 
     46 O           0.1327  -17.8770  -40.4724 O.2       5 UNK        -0.5000 
     47 CA         -0.8390  -15.7004  -40.7486 C.3       5 UNK         0.1400 
     48 CB         -1.2444  -15.2086  -39.3512 C.3       5 UNK        -0.1800 
     49 N          -0.5812  -14.5399  -41.6025 N.am      5 UNK        -0.5000 
     50 C          -0.2364  -14.5754  -42.8968 C.2       4 UNK         0.5000 
     51 O          -0.1224  -15.6176  -43.5446 O.2       4 UNK        -0.5000 
     52 CA          0.0622  -13.2229  -43.5723 C.3       4 UNK         0.1400 
     53 CB         -0.6703  -12.0321  -42.9174 C.3       4 UNK        -0.1800 
     54 N           1.4972  -12.9271  -43.6745 N.am      4 UNK        -0.5000 
     55 C           2.4076  -12.9098  -42.6866 C.2       3 UNK         0.5000 
     56 O           2.1754  -13.2844  -41.5359 O.2       3 UNK        -0.5000 
     57 CA          3.8137  -12.3612  -43.0092 C.3       3 UNK         0.1400 
     58 CB          4.8521  -13.4839  -43.1513 C.3       3 UNK        -0.1800 
     59 N           3.8814  -11.5176  -44.2017 N.am      3 UNK        -0.5000 
     60 C           3.4503  -10.2558  -44.3008 C.2       2 UNK         0.5000 
     61 O           2.8953   -9.6535  -43.3814 O.2       2 UNK        -0.5000 
     62 CA          3.6733   -9.5391  -45.6513 C.3       2 UNK         0.1400 
     63 CB          5.0738   -8.9010  -45.7178 C.3       2 UNK        -0.1800 
     64 N           3.4003  -10.3688  -46.8349 N.am      2 UNK        -0.5000 
     65 C           4.0344  -11.4667  -47.2793 C.2       1 UNK         0.5000 
     66 O           5.0677  -11.9036  -46.7699 O.2       1 UNK        -0.5000 
     67 C          -1.1296  -22.0676  -48.4851 C.2       11 UNK         0.5000 
     68 O          -1.2522  -23.0629  -49.1959 O.2       11 UNK        -0.5000 
     69 N          -2.1456  -21.2503  -48.1707 N.am      12 UNK        -0.5000 
     70 CA         -3.5359  -21.4606  -48.5711 C.3       12 UNK         0.1400 
     71 CB         -4.3878  -20.2483  -48.1680 C.3       12 UNK        -0.1800 
     72 C          -4.1233  -22.7553  -47.9880 C.2       12 UNK         0.5000 
     73 O          -4.7448  -23.5163  -48.7267 O.2       12 UNK        -0.5000 
     74 N          -3.8883  -23.0070  -46.6921 N.am      13 UNK        -0.5000 
     75 CA         -4.3052  -24.2332  -46.0083 C.3       13 UNK         0.1400 
     76 CB         -3.9812  -24.1325  -44.5104 C.3       13 UNK        -0.1800 
     77 C          -3.6834  -25.4986  -46.6296 C.2       13 UNK         0.5000 
     78 O          -4.4069  -26.4603  -46.8958 O.2       13 UNK        -0.5000 
     79 N          -2.3693  -25.4481  -46.8943 N.am      14 UNK        -0.5000 
     80 CA         -1.6066  -26.4996  -47.5691 C.3       14 UNK         0.1400 
     81 CB         -0.1101  -26.1565  -47.5234 C.3       14 UNK        -0.1800 
     82 C          -2.0651  -26.7430  -49.0192 C.2       14 UNK         0.5000 
     83 O          -2.1314  -27.8961  -49.4486 O.2       14 UNK        -0.5000 
     84 N          -2.4170  -25.6670  -49.7354 N.am      15 UNK        -0.5000 
     85 CA         -2.9847  -25.6778  -51.0842 C.3       15 UNK         0.1400 
     86 CB         -2.7705  -24.2981  -51.7339 C.3       15 UNK        -0.1800 
     87 C          -4.4678  -26.1045  -51.0887 C.2       15 UNK         0.5000 
     88 O          -5.3258  -25.3486  -51.5439 O.2       15 UNK        -0.5000 
     89 N          -4.7363  -27.3140  -50.5767 N.am      16 UNK        -0.5000 
     90 CA         -6.0159  -28.0316  -50.5803 C.3       16 UNK         0.1400 
     91 CB         -6.2869  -28.5952  -51.9903 C.3       16 UNK        -0.1800 
     92 C          -7.2038  -27.2159  -50.0242 C.2       16 UNK         0.5000 
     93 O          -8.2959  -27.2582  -50.5940 O.2       16 UNK        -0.5000 
     94 N          -6.9600  -26.4890  -48.9229 N.am      17 UNK        -0.5000 
     95 CA         -7.8936  -25.5809  -48.2494 C.3       17 UNK         0.1400 
     96 CB         -9.0685  -26.3588  -47.6195 C.3       17 UNK        -0.1800 
     97 C          -8.3458  -24.4230  -49.1653 C.2       17 UNK         0.5000 
     98 O          -9.5354  -24.2708  -49.4503 O.2       17 UNK        -0.5000 
     99 N          -7.3610  -23.6230  -49.5883 N.am      18 UNK        -0.5000 
    100 CA        -7.4633  -22.3960  -50.3762 C.3       18 UNK         0.1400 
    101 CB        -8.2731  -21.3166  -49.6270 C.3       18 UNK        -0.1800 
    102 C         -7.9251  -22.6174  -51.8289 C.2       18 UNK         0.5000 
    103 O         -8.6934  -21.8131  -52.3607 O.2       18 UNK        -0.5000 
    104 N         -7.4096  -23.6728  -52.4725 N.am      19 UNK        -0.5000 
    105 CA        -7.4875  -23.8590  -53.9191 C.3       19 UNK         0.1400 
    106 CB        -7.2701  -25.3406  -54.2653 C.3       19 UNK        -0.1800 
    107 C         -6.4242  -22.9592  -54.5719 C.2       19 UNK         0.5000 
    108 O         -5.2286  -23.1991  -54.3905 O.2       19 UNK        -0.5000 
    109 N         -6.8765  -21.8946  -55.2473 N.am      20 UNK        -0.5000 
    110 CA        -6.1076  -20.7940  -55.8503 C.3       20 UNK         0.1400 
    111 CB        -5.1103  -21.2980  -56.9112 C.3       20 UNK        -0.1800 
    112 C         -5.4163  -19.8689  -54.8264 C.2       20 UNK         0.5000 
    113 O         -5.4875  -18.6493  -54.9811 O.2       20 UNK        -0.5000 
    114 N         -4.7746  -20.4507  -53.8020 N.am      21 UNK        -0.5000 
    115 CA        -4.1734  -19.7995  -52.6287 C.3       21 UNK         0.1400 
    116 CB        -5.2863  -19.2220  -51.7296 C.3       21 UNK        -0.1800 
    117 C         -3.0934  -18.7452  -52.9644 C.2       21 UNK         0.5000 
    118 O         -2.9230  -17.7820  -52.2156 O.2       21 UNK        -0.5000 
    119 N         -2.3957  -18.9363  -54.0926 N.am      22 UNK        -0.5000 
    120 CA        -1.4509  -17.9766  -54.6925 C.3       22 UNK         0.1400 
    121 C         -2.1259  -16.6979  -55.2923 C.2       22 UNK         0.5000 
    122 N         -3.4398  -16.6588  -55.4836 N.am      22 UNK        -0.7600 
    123 O         -1.4525  -15.7261  -55.6228 O.2       22 UNK        -0.5000 
    124 C124       -0.2422  -17.6595  -53.7595 C.3       23 UNK        -0.0398 
    125 S125        1.2933  -17.3055  -54.6842 S.3       23 UNK        -0.2404 
    126 C126        2.4159  -18.6215  -54.1054 C.3       23 UNK        -0.0205 
    127 H127       -0.8478  -11.3095  -47.0862 H         1 UNK         0.0600 
    128 H128       -1.0569  -12.8046  -48.0024 H         1 UNK         0.0600 
    129 H129       -0.5385  -11.3309  -48.8248 H         1 UNK         0.0600 
    130 H130        1.6188  -11.5078  -49.3897 H         1 UNK         0.3000 
    131 H131        3.8041  -11.8356  -49.3600 H         1 UNK         0.0600 
    132 H132        4.7845  -13.8910  -48.4600 H         1 UNK         0.0800 
    133 H133        3.4142  -14.1765  -47.4275 H         1 UNK         0.0800 
    134 H134        4.7166  -15.0675  -51.2358 H         1 UNK         0.0800 
    135 H135        5.0861  -15.7883  -49.6866 H         1 UNK         0.0800 
    136 H136        3.2964  -16.3164  -52.8767 H         1 UNK         0.1150 
    137 H137        2.6857  -20.5046  -52.1645 H         1 UNK         0.1150 
    138 H138        4.3224  -18.0183  -49.0835 H         1 UNK         0.1150 
    139 H139        3.3688  -21.5199  -50.1200 H         1 UNK         0.0800 
    140 H140        4.7080  -20.7126  -49.3456 H         1 UNK         0.0800 
    141 H141        1.0142  -20.9470  -49.7348 H         1 UNK         0.0800 
    142 H142        0.4552  -19.7204  -48.6308 H         1 UNK         0.0800 
    143 H143        0.8331  -22.6744  -47.9237 H         1 UNK         0.0600 
    144 H144        0.4345  -20.4900  -46.1651 H         1 UNK         0.3000 
    145 H145       -1.2314  -22.2644  -43.5480 H         1 UNK         0.0600 
    146 H146        0.6921  -21.2875  -42.2987 H         1 UNK         0.0600 
    147 H147        1.1791  -22.7129  -43.2041 H         1 UNK         0.0600 
    148 H148        1.6003  -21.1138  -43.7992 H         1 UNK         0.0600 
    149 H149       -0.3212  -19.5438  -44.0573 H         1 UNK         0.3000 
    150 H150       -3.4913  -18.3352  -45.1628 H         1 UNK         0.0600 
    151 H151       -3.7197  -18.3657  -42.7067 H         1 UNK         0.0600 
    152 H152       -3.0716  -16.8093  -43.2084 H         1 UNK         0.0600 
    153 H153       -2.0050  -18.0322  -42.5077 H         1 UNK         0.0600 
    154 H154       -1.0062  -17.0153  -44.6305 H         1 UNK         0.3000 
    155 H155        0.4447  -17.5339  -47.8568 H         1 UNK         0.0600 
    156 H156       -1.2881  -15.7277  -48.1816 H         1 UNK         0.0600 
    157 H157       -0.7709  -14.9989  -46.6629 H         1 UNK         0.0600 
    158 H158        0.3470  -15.1144  -48.0247 H         1 UNK         0.0600 
    159 H159        1.4745  -15.8780  -45.9628 H         1 UNK         0.3000 
    160 H160        3.6293  -18.2604  -44.5514 H         1 UNK         0.0600 
    161 H161        3.2449  -15.2786  -45.1376 H         1 UNK         0.0600 
    162 H162        3.9624  -16.4296  -46.2660 H         1 UNK         0.0600 
    163 H163        4.7470  -16.1150  -44.7316 H         1 UNK         0.0600 
    164 H164        1.7103  -16.5770  -43.0718 H         1 UNK         0.3000 
    165 H165        2.6647  -17.8322  -40.1571 H         1 UNK         0.0600 
    166 H166        3.5265  -15.8895  -38.9242 H         1 UNK         0.0600 
    167 H167        4.8183  -16.5905  -39.8816 H         1 UNK         0.0600 
    168 H168        4.0340  -15.1080  -40.4150 H         1 UNK         0.0600 
    169 H169        1.6602  -15.1521  -40.9430 H         1 UNK         0.3000 
    170 H170       -1.6856  -16.2396  -41.1706 H         1 UNK         0.0600 
    171 H171       -0.4483  -14.6284  -38.8828 H         1 UNK         0.0600 
    172 H172       -2.1358  -14.5825  -39.3957 H         1 UNK         0.0600 
    173 H173       -1.4711  -16.0477  -38.6920 H         1 UNK         0.0600 
    174 H174       -0.6042  -13.6386  -41.1482 H         1 UNK         0.3000 
    175 H175       -0.3174  -13.3134  -44.5901 H         1 UNK         0.0600 
    176 H176       -0.5570  -11.1320  -43.5219 H         1 UNK         0.0600 
    177 H177       -0.2872  -11.8058  -41.9218 H         1 UNK         0.0600 
    178 H178       -1.7401  -12.2263  -42.8292 H         1 UNK         0.0600 
    179 H179        1.7963  -12.6718  -44.6101 H         1 UNK         0.3000 
    180 H180        4.1030  -11.7545  -42.1486 H         1 UNK         0.0600 
    181 H181        4.6689  -14.3061  -42.4607 H         1 UNK         0.0600 
    182 H182        5.8550  -13.1081  -42.9487 H         1 UNK         0.0600 
    183 H183        4.8608  -13.8918  -44.1597 H         1 UNK         0.0600 
    184 H184        4.3493  -11.9066  -45.0152 H         1 UNK         0.3000 
    185 H185        2.9455   -8.7271  -45.6922 H         1 UNK         0.0600 
    186 H186        5.2172   -8.1965  -44.8976 H         1 UNK         0.0600 
    187 H187        5.8676   -9.6448  -45.6472 H         1 UNK         0.0600 
    188 H188        5.2119   -8.3494  -46.6477 H         1 UNK         0.0600 
    189 H189        2.5464  -10.1313  -47.3199 H         1 UNK         0.3000 
    190 H190       -1.9563  -20.4096  -47.6296 H         1 UNK         0.3000 
    191 H191       -3.5591  -21.5436  -49.6592 H         1 UNK         0.0600 
    192 H192       -4.0036  -19.3314  -48.6141 H         1 UNK         0.0600 
    193 H193       -5.4193  -20.3664  -48.5015 H         1 UNK         0.0600 
    194 H194       -4.4049  -20.1074  -47.0870 H         1 UNK         0.0600 
    195 H195       -3.3982  -22.3153  -46.1354 H         1 UNK         0.3000 
    196 H196       -5.3889  -24.3128  -46.1111 H         1 UNK         0.0600 
    197 H197       -4.3181  -25.0229  -43.9782 H         1 UNK         0.0600 
    198 H198       -4.4781  -23.2747  -44.0569 H         1 UNK         0.0600 
    199 H199       -2.9110  -24.0300  -44.3327 H         1 UNK         0.0600 
    200 H200       -1.8462  -24.6239  -46.6092 H         1 UNK         0.3000 
    201 H201       -1.7599  -27.4274  -47.0144 H         1 UNK         0.0600 
    202 H202        0.2408  -26.0613  -46.4956 H         1 UNK         0.0600 
    203 H203        0.1033  -25.2185  -48.0367 H         1 UNK         0.0600 
    204 H204        0.4852  -26.9361  -48.0002 H         1 UNK         0.0600 
    205 H205       -2.2932  -24.7496  -49.3187 H         1 UNK         0.3000 
    206 H206       -2.4395  -26.4099  -51.6830 H         1 UNK         0.0600 
    207 H207       -1.7126  -24.0388  -51.7716 H         1 UNK         0.0600 
    208 H208       -3.1441  -24.2846  -52.7586 H         1 UNK         0.0600 
    209 H209       -3.2898  -23.5116  -51.1857 H         1 UNK         0.0600 
    210 H210       -3.9492  -27.8182  -50.1791 H         1 UNK         0.3000 
    211 H211       -5.8920  -28.8794  -49.9052 H         1 UNK         0.0600 
    212 H212       -6.4435  -27.7986  -52.7172 H         1 UNK         0.0600 
    213 H213       -7.1753  -29.2278  -51.9986 H         1 UNK         0.0600 
    214 H214       -5.4536  -29.2060  -52.3377 H         1 UNK         0.0600 
    215 H215       -6.0220  -26.5111  -48.5401 H         1 UNK         0.3000 
    216 H216       -7.3354  -25.1249  -47.4307 H         1 UNK         0.0600 
    217 H217       -9.7029  -25.6933  -47.0331 H         1 UNK         0.0600 
    218 H218       -8.7090  -27.1389  -46.9486 H         1 UNK         0.0600 
    219 H219       -9.7009  -26.8295  -48.3726 H         1 UNK         0.0600 
    220 H220       -6.4066  -23.8521  -49.3125 H         1 UNK         0.3000 
    221 H221       -6.4395  -22.0294  -50.4536 H         1 UNK         0.0600 
    222 H222       -9.3289  -21.5786  -49.5549 H         1 UNK         0.0600 
    223 H223       -7.8936  -21.1694  -48.6159 H         1 UNK         0.0600 
    224 H224       -8.2107  -20.3553  -50.1383 H         1 UNK         0.0600 
    225 H225       -6.7355  -24.2670  -51.9907 H         1 UNK         0.3000 
    226 H226       -8.4812  -23.5741  -54.2713 H         1 UNK         0.0600 
    227 H227       -7.9841  -25.9763  -53.7412 H         1 UNK         0.0600 
    228 H228       -7.4015  -25.5113  -55.3342 H         1 UNK         0.0600 
    229 H229       -6.2671  -25.6778  -54.0030 H         1 UNK         0.0600 
    230 H230       -7.8787  -21.7642  -55.2779 H         1 UNK         0.3000 
    231 H231       -6.8446  -20.1795  -56.3699 H         1 UNK         0.0600 
    232 H232       -4.3080  -21.8927  -56.4744 H         1 UNK         0.0600 
    233 H233       -4.6442  -20.4605  -57.4318 H         1 UNK         0.0600 
    234 H234       -5.6102  -21.9093  -57.6625 H         1 UNK         0.0600 
    235 H235       -4.7492  -21.4679  -53.8110 H         1 UNK         0.3000 
    236 H236       -3.6664  -20.5863  -52.0685 H         1 UNK         0.0600 
    237 H237       -6.0406  -19.9719  -51.5000 H         1 UNK         0.0600 
    238 H238       -4.8839  -18.8634  -50.7826 H         1 UNK         0.0600 
    239 H239       -5.7911  -18.3812  -52.2063 H         1 UNK         0.0600 
    240 H240       -2.6099  -19.7506  -54.6499 H         1 UNK         0.3000 
    241 H241       -1.0606  -18.5079  -55.5611 H         1 UNK         0.0600 
    242 H242       -4.0442  -17.4346  -55.2278 H         1 UNK         0.3800 
    243 H243       -3.8496  -15.8286  -55.8808 H         1 UNK         0.3800 
    244 H244       -0.4643  -16.8164  -53.1034 H         1 UNK         0.0800 
    245 H245       -0.0513  -18.5028  -53.0946 H         1 UNK         0.0800 
    246 H246        1.9158  -19.5849  -54.2170 H         1 UNK         0.0800 
    247 H247        3.2831  -18.6490  -54.7662 H         1 UNK         0.0800 
@<TRIPOS>BOND
     1    1    2 1    
     2    1  127 1    
     3    1  128 1    
     4    1  129 1    
     5    2    3 2    
     6    2    4 am   BACKBONE|DICT|INTERRES
     7    4    5 1    
     8    4  130 1    
     9    5    6 1    
    10    5   65 1    
    11    5  131 1    
    12    6    7 1    
    13    6  132 1    
    14    6  133 1    
    15    7    8 1    
    16    8    9 1    
    17    8  134 1    
    18    8  135 1    
    19    9   10 ar   
    20    9   14 ar   
    21   10   11 ar   
    22   10  136 1    
    23   11   12 ar   
    24   11  126 1    
    25   12   13 ar   
    26   12  137 1    
    27   13   14 ar   
    28   13   15 1    
    29   14  138 1    
    30   15   16 1    
    31   15  139 1    
    32   15  140 1    
    33   16   17 1    
    34   17   18 1    
    35   17  141 1    
    36   17  142 1    
    37   18   19 1    
    38   18   67 1    
    39   18  143 1    
    40   19   20 am   BACKBONE|DICT|INTERRES
    41   19  144 1    
    42   20   21 2    
    43   20   22 1    
    44   22   23 1    
    45   22   24 1    
    46   22  145 1    
    47   23  146 1    
    48   23  147 1    
    49   23  148 1    
    50   24   25 am   BACKBONE|DICT|INTERRES
    51   24  149 1    
    52   25   26 2    
    53   25   27 1    
    54   27   28 1    
    55   27   29 1    
    56   27  150 1    
    57   28  151 1    
    58   28  152 1    
    59   28  153 1    
    60   29   30 am   BACKBONE|DICT|INTERRES
    61   29  154 1    
    62   30   31 2    
    63   30   32 1    
    64   32   33 1    
    65   32   34 1    
    66   32  155 1    
    67   33  156 1    
    68   33  157 1    
    69   33  158 1    
    70   34   35 am   BACKBONE|DICT|INTERRES
    71   34  159 1    
    72   35   36 2    
    73   35   37 1    
    74   37   38 1    
    75   37   39 1    
    76   37  160 1    
    77   38  161 1    
    78   38  162 1    
    79   38  163 1    
    80   39   40 am   BACKBONE|DICT|INTERRES
    81   39  164 1    
    82   40   41 2    
    83   40   42 1    
    84   42   43 1    
    85   42   44 1    
    86   42  165 1    
    87   43  166 1    
    88   43  167 1    
    89   43  168 1    
    90   44   45 am   BACKBONE|DICT|INTERRES
    91   44  169 1    
    92   45   46 2    
    93   45   47 1    
    94   47   48 1    
    95   47   49 1    
    96   47  170 1    
    97   48  171 1    
    98   48  172 1    
    99   48  173 1    
   100   49   50 am   BACKBONE|DICT|INTERRES
   101   49  174 1    
   102   50   51 2    
   103   50   52 1    
   104   52   53 1    
   105   52   54 1    
   106   52  175 1    
   107   53  176 1    
   108   53  177 1    
   109   53  178 1    
   110   54   55 am   BACKBONE|DICT|INTERRES
   111   54  179 1    
   112   55   56 2    
   113   55   57 1    
   114   57   58 1    
   115   57   59 1    
   116   57  180 1    
   117   58  181 1    
   118   58  182 1    
   119   58  183 1    
   120   59   60 am   BACKBONE|DICT|INTERRES
   121   59  184 1    
   122   60   61 2    
   123   60   62 1    
   124   62   63 1    
   125   62   64 1    
   126   62  185 1    
   127   63  186 1    
   128   63  187 1    
   129   63  188 1    
   130   64   65 am   BACKBONE|DICT|INTERRES
   131   64  189 1    
   132   65   66 2    
   133   67   68 2    
   134   67   69 am   BACKBONE|DICT|INTERRES
   135   69   70 1    
   136   69  190 1    
   137   70   71 1    
   138   70   72 1    
   139   70  191 1    
   140   71  192 1    
   141   71  193 1    
   142   71  194 1    
   143   72   73 2    
   144   72   74 am   BACKBONE|DICT|INTERRES
   145   74   75 1    
   146   74  195 1    
   147   75   76 1    
   148   75   77 1    
   149   75  196 1    
   150   76  197 1    
   151   76  198 1    
   152   76  199 1    
   153   77   78 2    
   154   77   79 am   BACKBONE|DICT|INTERRES
   155   79   80 1    
   156   79  200 1    
   157   80   81 1    
   158   80   82 1    
   159   80  201 1    
   160   81  202 1    
   161   81  203 1    
   162   81  204 1    
   163   82   83 2    
   164   82   84 am   BACKBONE|DICT|INTERRES
   165   84   85 1    
   166   84  205 1    
   167   85   86 1    
   168   85   87 1    
   169   85  206 1    
   170   86  207 1    
   171   86  208 1    
   172   86  209 1    
   173   87   88 2    
   174   87   89 am   BACKBONE|DICT|INTERRES
   175   89   90 1    
   176   89  210 1    
   177   90   91 1    
   178   90   92 1    
   179   90  211 1    
   180   91  212 1    
   181   91  213 1    
   182   91  214 1    
   183   92   93 2    
   184   92   94 am   BACKBONE|DICT|INTERRES
   185   94   95 1    
   186   94  215 1    
   187   95   96 1    
   188   95   97 1    
   189   95  216 1    
   190   96  217 1    
   191   96  218 1    
   192   96  219 1    
   193   97   98 2    
   194   97   99 am   BACKBONE|DICT|INTERRES
   195   99  100 1    
   196   99  220 1    
   197  100  101 1    
   198  100  102 1    
   199  100  221 1    
   200  101  222 1    
   201  101  223 1    
   202  101  224 1    
   203  102  103 2    
   204  102  104 am   BACKBONE|DICT|INTERRES
   205  104  105 1    
   206  104  225 1    
   207  105  106 1    
   208  105  107 1    
   209  105  226 1    
   210  106  227 1    
   211  106  228 1    
   212  106  229 1    
   213  107  108 2    
   214  107  109 am   BACKBONE|DICT|INTERRES
   215  109  110 1    
   216  109  230 1    
   217  110  111 1    
   218  110  112 1    
   219  110  231 1    
   220  111  232 1    
   221  111  233 1    
   222  111  234 1    
   223  112  113 2    
   224  112  114 am   BACKBONE|DICT|INTERRES
   225  114  115 1    
   226  114  235 1    
   227  115  116 1    
   228  115  117 1    
   229  115  236 1    
   230  116  237 1    
   231  116  238 1    
   232  116  239 1    
   233  117  118 2    
   234  117  119 am   BACKBONE|DICT|INTERRES
   235  119  120 1    
   236  119  240 1    
   237  120  121 1    
   238  120  124 1    
   239  120  241 1    
   240  121  122 am   BACKBONE|DICT|INTERRES
   241  121  123 2    
   242  122  242 1    
   243  122  243 1    
   244  124  125 1    
   245  124  244 1    
   246  124  245 1    
   247  125  126 1    
   248  126  246 1    
   249  126  247 1    
@<TRIPOS>SUBSTRUCTURE
     1 UNK         1 GROUP             0       ****    0 ROOT    
