@<TRIPOS>MOLECULE
3R540
247   249    1
SMALL
USER_CHARGES


@<TRIPOS>ATOM
      1 CA          5.9001  -14.3564  -46.5616 C.3       0 UNK        -0.1800 
      2 C           4.4887  -13.8443  -46.8060 C.2       0 UNK         0.5000 
      3 O           3.7475  -13.6145  -45.8516 O.2       0 UNK        -0.5000 
      4 N           4.1208  -13.6424  -48.0788 N.am      1 UNK        -0.5000 
      5 CA          2.7832  -13.2331  -48.5376 C.3       1 UNK         0.1400 
      6 C6          2.6455  -13.3163  -50.0780 C.3       23 UNK        -0.0398 
      7 S7          2.9515  -14.9932  -50.7296 S.3       23 UNK        -0.2404 
      8 C8          1.2951  -15.7166  -50.5324 C.3       23 UNK        -0.0205 
      9 C9          1.2322  -17.1523  -51.0303 C.ar      23 UNK        -0.0193 
     10 C10         0.5022  -17.4676  -52.1795 C.ar      23 UNK        -0.1150 
     11 C11         0.3929  -18.7927  -52.6110 C.ar      23 UNK        -0.0193 
     12 C12         1.0402  -19.8045  -51.8953 C.ar      23 UNK        -0.1150 
     13 C13         1.7946  -19.5009  -50.7578 C.ar      23 UNK        -0.0193 
     14 C14         1.8797  -18.1726  -50.3272 C.ar      23 UNK        -0.1150 
     15 C15         2.5609  -20.5967  -50.0270 C.3       23 UNK        -0.0205 
     16 S16         2.0580  -20.7737  -48.2860 S.3       23 UNK        -0.2404 
     17 C17         0.4915  -21.7045  -48.4192 C.3       23 UNK        -0.0398 
     18 CA          0.3600  -22.7735  -47.3080 C.3       11 UNK         0.1400 
     19 N           0.4367  -22.1978  -45.9606 N.am      11 UNK        -0.5000 
     20 C           0.7756  -22.8842  -44.8621 C.2       10 UNK         0.5000 
     21 O           0.9329  -24.1052  -44.8483 O.2       10 UNK        -0.5000 
     22 CA          0.9537  -22.0764  -43.5664 C.3       10 UNK         0.1400 
     23 CB          2.1899  -21.1674  -43.6541 C.3       10 UNK        -0.1800 
     24 N          -0.2234  -21.2739  -43.2415 N.am      10 UNK        -0.5000 
     25 C          -1.3962  -21.7752  -42.8318 C.2       9 UNK         0.5000 
     26 O          -1.6069  -22.9776  -42.6720 O.2       9 UNK        -0.5000 
     27 CA         -2.5303  -20.7665  -42.5650 C.3       9 UNK         0.1400 
     28 CB         -2.3914  -20.1429  -41.1679 C.3       9 UNK        -0.1800 
     29 N          -2.6001  -19.7030  -43.5670 N.am      9 UNK        -0.5000 
     30 C          -2.8880  -19.9044  -44.8602 C.2       8 UNK         0.5000 
     31 O          -3.1454  -21.0037  -45.3472 O.2       8 UNK        -0.5000 
     32 CA         -2.8274  -18.6776  -45.7816 C.3       8 UNK         0.1400 
     33 CB         -4.0897  -17.8145  -45.6431 C.3       8 UNK        -0.1800 
     34 N          -1.6277  -17.8684  -45.5677 N.am      8 UNK        -0.5000 
     35 C          -0.3751  -18.3150  -45.7402 C.2       7 UNK         0.5000 
     36 O          -0.1110  -19.4446  -46.1439 O.2       7 UNK        -0.5000 
     37 CA          0.7738  -17.3723  -45.3429 C.3       7 UNK         0.1400 
     38 CB          1.0563  -16.3462  -46.4492 C.3       7 UNK        -0.1800 
     39 N           0.5140  -16.6853  -44.0790 N.am      7 UNK        -0.5000 
     40 C           0.3543  -17.2994  -42.8978 C.2       6 UNK         0.5000 
     41 O           0.4637  -18.5138  -42.7352 O.2       6 UNK        -0.5000 
     42 CA         -0.0532  -16.4139  -41.7105 C.3       6 UNK         0.1400 
     43 CB          1.1693  -15.7163  -41.0952 C.3       6 UNK        -0.1800 
     44 N          -1.0497  -15.4196  -42.1060 N.am      6 UNK        -0.5000 
     45 C          -2.3263  -15.7089  -42.3940 C.2       5 UNK         0.5000 
     46 O          -2.8062  -16.8405  -42.3102 O.2       5 UNK        -0.5000 
     47 CA         -3.2017  -14.5429  -42.8914 C.3       5 UNK         0.1400 
     48 CB         -3.7542  -13.7361  -41.7069 C.3       5 UNK        -0.1800 
     49 N          -2.4874  -13.6438  -43.8012 N.am      5 UNK        -0.5000 
     50 C          -2.0819  -13.9894  -45.0308 C.2       4 UNK         0.5000 
     51 O          -2.2850  -15.0949  -45.5281 O.2       4 UNK        -0.5000 
     52 CA         -1.2795  -12.9451  -45.8284 C.3       4 UNK         0.1400 
     53 CB         -2.2264  -12.0056  -46.5889 C.3       4 UNK        -0.1800 
     54 N          -0.3397  -12.1473  -45.0351 N.am      4 UNK        -0.5000 
     55 C           0.6255  -12.6338  -44.2430 C.2       3 UNK         0.5000 
     56 O           0.7523  -13.8291  -43.9765 O.2       3 UNK        -0.5000 
     57 CA          1.6428  -11.6079  -43.7187 C.3       3 UNK         0.1400 
     58 CB          2.6052  -12.2034  -42.6756 C.3       3 UNK        -0.1800 
     59 N           2.4164  -11.1355  -44.8618 N.am      3 UNK        -0.5000 
     60 C           2.2267   -9.9741  -45.5025 C.2       2 UNK         0.5000 
     61 O           1.4517   -9.0996  -45.1142 O.2       2 UNK        -0.5000 
     62 CA          2.9969   -9.7715  -46.8247 C.3       2 UNK         0.1400 
     63 CB          4.3247   -9.0428  -46.5694 C.3       2 UNK        -0.1800 
     64 N           3.2680  -11.0288  -47.5259 N.am      2 UNK        -0.5000 
     65 C           2.3304  -11.8441  -48.0317 C.2       1 UNK         0.5000 
     66 O           1.1362  -11.5493  -48.0854 O.2       1 UNK        -0.5000 
     67 C          -0.8763  -23.6778  -47.5048 C.2       11 UNK         0.5000 
     68 O          -0.9083  -24.4495  -48.4645 O.2       11 UNK        -0.5000 
     69 N          -1.8399  -23.6436  -46.5705 N.am      12 UNK        -0.5000 
     70 CA         -2.9316  -24.6161  -46.4677 C.3       12 UNK         0.1400 
     71 CB         -3.8984  -24.2082  -45.3467 C.3       12 UNK        -0.1800 
     72 C          -2.4404  -26.0596  -46.2407 C.2       12 UNK         0.5000 
     73 O          -3.0868  -26.9905  -46.7195 O.2       12 UNK        -0.5000 
     74 N          -1.2845  -26.2296  -45.5784 N.am      13 UNK        -0.5000 
     75 CA         -0.6277  -27.5281  -45.3894 C.3       13 UNK         0.1400 
     76 CB          0.4832  -27.3913  -44.3380 C.3       13 UNK        -0.1800 
     77 C          -0.0630  -28.1134  -46.7005 C.2       13 UNK         0.5000 
     78 O           0.0598  -29.3328  -46.8171 O.2       13 UNK        -0.5000 
     79 N           0.2379  -27.2384  -47.6698 N.am      14 UNK        -0.5000 
     80 CA          0.6380  -27.5869  -49.0339 C.3       14 UNK         0.1400 
     81 CB          1.6677  -26.5514  -49.5192 C.3       14 UNK        -0.1800 
     82 C          -0.5683  -27.6533  -49.9957 C.2       14 UNK         0.5000 
     83 O          -0.3715  -27.9154  -51.1827 O.2       14 UNK        -0.5000 
     84 N          -1.7823  -27.3997  -49.4785 N.am      15 UNK        -0.5000 
     85 CA         -3.0616  -27.3033  -50.1887 C.3       15 UNK         0.1400 
     86 CB         -3.4710  -28.6714  -50.7731 C.3       15 UNK        -0.1800 
     87 C          -3.0909  -26.1627  -51.2292 C.2       15 UNK         0.5000 
     88 O          -3.7342  -26.2977  -52.2711 O.2       15 UNK        -0.5000 
     89 N          -2.3960  -25.0587  -50.9268 N.am      16 UNK        -0.5000 
     90 CA         -2.2382  -23.9005  -51.8018 C.3       16 UNK         0.1400 
     91 CB         -0.9486  -24.0548  -52.6304 C.3       16 UNK        -0.1800 
     92 C          -2.2685  -22.6121  -50.9666 C.2       16 UNK         0.5000 
     93 O          -1.3813  -21.7728  -51.1014 O.2       16 UNK        -0.5000 
     94 N          -3.2725  -22.5019  -50.0842 N.am      17 UNK        -0.5000 
     95 CA         -3.5142  -21.3669  -49.1905 C.3       17 UNK         0.1400 
     96 CB         -4.8202  -21.6122  -48.4223 C.3       17 UNK        -0.1800 
     97 C          -3.5727  -20.0190  -49.9352 C.2       17 UNK         0.5000 
     98 O          -4.3148  -19.9052  -50.9152 O.2       17 UNK        -0.5000 
     99 N          -2.7898  -19.0485  -49.4429 N.am      18 UNK        -0.5000 
    100 CA        -2.5495  -17.7175  -50.0027 C.3       18 UNK         0.1400 
    101 CB        -1.7560  -16.8819  -48.9857 C.3       18 UNK        -0.1800 
    102 C         -3.8240  -16.9780  -50.4477 C.2       18 UNK         0.5000 
    103 O         -4.6035  -16.5331  -49.6039 O.2       18 UNK        -0.5000 
    104 N         -4.0060  -16.8977  -51.7731 N.am      19 UNK        -0.5000 
    105 CA        -5.1218  -16.2830  -52.5018 C.3       19 UNK         0.1400 
    106 CB        -5.1863  -14.7665  -52.2251 C.3       19 UNK        -0.1800 
    107 C         -6.4888  -16.9743  -52.2960 C.2       19 UNK         0.5000 
    108 O         -7.5070  -16.4245  -52.7199 O.2       19 UNK        -0.5000 
    109 N         -6.4978  -18.1622  -51.6784 N.am      20 UNK        -0.5000 
    110 CA        -7.6937  -18.9516  -51.3891 C.3       20 UNK         0.1400 
    111 CB        -7.7513  -19.2365  -49.8804 C.3       20 UNK        -0.1800 
    112 C         -7.7125  -20.2620  -52.1916 C.2       20 UNK         0.5000 
    113 O         -8.7882  -20.6856  -52.6166 O.2       20 UNK        -0.5000 
    114 N         -6.5385  -20.8745  -52.3982 N.am      21 UNK        -0.5000 
    115 CA        -6.3774  -22.1435  -53.1122 C.3       21 UNK         0.1400 
    116 CB        -6.3346  -23.3006  -52.0970 C.3       21 UNK        -0.1800 
    117 C         -5.1606  -22.1359  -54.0574 C.2       21 UNK         0.5000 
    118 O         -4.7204  -23.2034  -54.4843 O.2       21 UNK        -0.5000 
    119 N         -4.6421  -20.9458  -54.3894 N.am      22 UNK        -0.5000 
    120 CA        -3.5218  -20.7577  -55.3318 C.3       22 UNK         0.1400 
    121 C         -3.8677  -21.0462  -56.8242 C.2       22 UNK         0.5000 
    122 N         -5.1336  -21.1517  -57.2105 N.am      22 UNK        -0.7600 
    123 O         -2.9668  -21.1799  -57.6477 O.2       22 UNK        -0.5000 
    124 C124       -2.8802  -19.3537  -55.1972 C.3       23 UNK        -0.0398 
    125 S125       -2.2006  -19.0453  -53.5351 S.3       23 UNK        -0.2404 
    126 C126       -0.4126  -19.1221  -53.8586 C.3       23 UNK        -0.0205 
    127 H127        6.4455  -14.5034  -47.4941 H         1 UNK         0.0600 
    128 H128        5.8652  -15.3093  -46.0336 H         1 UNK         0.0600 
    129 H129        6.4558  -13.6462  -45.9494 H         1 UNK         0.0600 
    130 H130        4.7794  -13.8505  -48.8163 H         1 UNK         0.3000 
    131 H131        2.0773  -13.9435  -48.1032 H         1 UNK         0.0600 
    132 H132        1.6522  -12.9968  -50.3998 H         1 UNK         0.0800 
    133 H133        3.3491  -12.6335  -50.5573 H         1 UNK         0.0800 
    134 H134        1.0150  -15.6910  -49.4797 H         1 UNK         0.0800 
    135 H135        0.5669  -15.0990  -51.0606 H         1 UNK         0.0800 
    136 H136       -0.0001  -16.6855  -52.7314 H         1 UNK         0.1150 
    137 H137        0.9613  -20.8295  -52.2296 H         1 UNK         0.1150 
    138 H138        2.4574  -17.9319  -49.4458 H         1 UNK         0.1150 
    139 H139        2.4619  -21.5563  -50.5366 H         1 UNK         0.0800 
    140 H140        3.6226  -20.3483  -50.0546 H         1 UNK         0.0800 
    141 H141        0.4622  -22.1856  -49.3969 H         1 UNK         0.0800 
    142 H142       -0.3377  -20.9976  -48.3916 H         1 UNK         0.0800 
    143 H143        1.2191  -23.4394  -47.4174 H         1 UNK         0.0600 
    144 H144        0.3002  -21.1891  -45.9043 H         1 UNK         0.3000 
    145 H145        1.1167  -22.7857  -42.7523 H         1 UNK         0.0600 
    146 H146        2.3753  -20.6642  -42.7050 H         1 UNK         0.0600 
    147 H147        3.0833  -21.7437  -43.8974 H         1 UNK         0.0600 
    148 H148        2.0744  -20.3999  -44.4203 H         1 UNK         0.0600 
    149 H149       -0.1130  -20.2646  -43.2905 H         1 UNK         0.3000 
    150 H150       -3.4737  -21.3155  -42.5983 H         1 UNK         0.0600 
    151 H151       -2.3667  -20.9137  -40.3967 H         1 UNK         0.0600 
    152 H152       -3.2319  -19.4853  -40.9449 H         1 UNK         0.0600 
    153 H153       -1.4766  -19.5568  -41.0766 H         1 UNK         0.0600 
    154 H154       -2.4151  -18.7591  -43.2470 H         1 UNK         0.3000 
    155 H155       -2.7923  -19.0519  -46.8027 H         1 UNK         0.0600 
    156 H156       -4.1576  -17.3530  -44.6580 H         1 UNK         0.0600 
    157 H157       -4.1067  -17.0183  -46.3875 H         1 UNK         0.0600 
    158 H158       -4.9899  -18.4123  -45.7906 H         1 UNK         0.0600 
    159 H159       -1.7755  -16.8995  -45.2975 H         1 UNK         0.3000 
    160 H160        1.6715  -17.9791  -45.2090 H         1 UNK         0.0600 
    161 H161        1.8665  -15.6744  -46.1660 H         1 UNK         0.0600 
    162 H162        0.1795  -15.7390  -46.6721 H         1 UNK         0.0600 
    163 H163        1.3546  -16.8476  -47.3701 H         1 UNK         0.0600 
    164 H164        0.4552  -15.6700  -44.1085 H         1 UNK         0.3000 
    165 H165       -0.4945  -17.0576  -40.9464 H         1 UNK         0.0600 
    166 H166        0.8845  -15.0953  -40.2459 H         1 UNK         0.0600 
    167 H167        1.8917  -16.4495  -40.7348 H         1 UNK         0.0600 
    168 H168        1.6830  -15.0827  -41.8181 H         1 UNK         0.0600 
    169 H169       -0.7091  -14.4859  -42.2867 H         1 UNK         0.3000 
    170 H170       -4.0472  -14.9723  -43.4333 H         1 UNK         0.0600 
    171 H171       -2.9570  -13.2567  -41.1374 H         1 UNK         0.0600 
    172 H172       -4.4399  -12.9591  -42.0451 H         1 UNK         0.0600 
    173 H173       -4.3067  -14.3797  -41.0209 H         1 UNK         0.0600 
    174 H174       -2.2733  -12.7172  -43.4629 H         1 UNK         0.3000 
    175 H175       -0.6865  -13.4886  -46.5661 H         1 UNK         0.0600 
    176 H176       -1.6721  -11.3411  -47.2522 H         1 UNK         0.0600 
    177 H177       -2.8145  -11.3887  -45.9083 H         1 UNK         0.0600 
    178 H178       -2.9244  -12.5711  -47.2080 H         1 UNK         0.0600 
    179 H179       -0.3465  -11.1527  -45.2122 H         1 UNK         0.3000 
    180 H180        1.0926  -10.7907  -43.2482 H         1 UNK         0.0600 
    181 H181        3.1766  -13.0393  -43.0819 H         1 UNK         0.0600 
    182 H182        2.0591  -12.5679  -41.8050 H         1 UNK         0.0600 
    183 H183        3.3150  -11.4544  -42.3244 H         1 UNK         0.0600 
    184 H184        3.0170  -11.8359  -45.2874 H         1 UNK         0.3000 
    185 H185        2.3807   -9.1473  -47.4752 H         1 UNK         0.0600 
    186 H186        4.9920   -9.6313  -45.9383 H         1 UNK         0.0600 
    187 H187        4.8449   -8.8307  -47.5037 H         1 UNK         0.0600 
    188 H188        4.1560   -8.0884  -46.0686 H         1 UNK         0.0600 
    189 H189        4.2244  -11.3520  -47.5247 H         1 UNK         0.3000 
    190 H190       -1.7749  -22.9564  -45.8308 H         1 UNK         0.3000 
    191 H191       -3.4780  -24.6043  -47.4127 H         1 UNK         0.0600 
    192 H192       -4.3839  -23.2584  -45.5643 H         1 UNK         0.0600 
    193 H193       -4.6906  -24.9478  -45.2233 H         1 UNK         0.0600 
    194 H194       -3.3869  -24.1130  -44.3888 H         1 UNK         0.0600 
    195 H195       -0.7871  -25.4177  -45.2300 H         1 UNK         0.3000 
    196 H196       -1.3716  -28.2303  -45.0072 H         1 UNK         0.0600 
    197 H197        0.9214  -28.3631  -44.1071 H         1 UNK         0.0600 
    198 H198        0.0985  -26.9777  -43.4056 H         1 UNK         0.0600 
    199 H199        1.2896  -26.7450  -44.6856 H         1 UNK         0.0600 
    200 H200        0.0766  -26.2552  -47.4987 H         1 UNK         0.3000 
    201 H201        1.1155  -28.5688  -49.0399 H         1 UNK         0.0600 
    202 H202        2.5213  -26.4970  -48.8435 H         1 UNK         0.0600 
    203 H203        1.2355  -25.5533  -49.5950 H         1 UNK         0.0600 
    204 H204        2.0527  -26.8149  -50.5050 H         1 UNK         0.0600 
    205 H205       -1.8380  -27.2181  -48.4849 H         1 UNK         0.3000 
    206 H206       -3.8045  -27.0368  -49.4358 H         1 UNK         0.0600 
    207 H207       -3.4466  -29.4488  -50.0094 H         1 UNK         0.0600 
    208 H208       -4.4868  -28.6394  -51.1687 H         1 UNK         0.0600 
    209 H209       -2.8139  -28.9788  -51.5869 H         1 UNK         0.0600 
    210 H210       -1.8945  -25.0085  -50.0428 H         1 UNK         0.3000 
    211 H211       -3.0812  -23.8371  -52.4904 H         1 UNK         0.0600 
    212 H212       -0.0670  -24.1071  -51.9902 H         1 UNK         0.0600 
    213 H213       -0.8165  -23.2122  -53.3105 H         1 UNK         0.0600 
    214 H214       -0.9762  -24.9603  -53.2367 H         1 UNK         0.0600 
    215 H215       -3.9428  -23.2535  -50.0385 H         1 UNK         0.3000 
    216 H216       -2.6980  -21.3382  -48.4675 H         1 UNK         0.0600 
    217 H217       -5.0460  -20.7795  -47.7546 H         1 UNK         0.0600 
    218 H218       -4.7528  -22.5080  -47.8073 H         1 UNK         0.0600 
    219 H219       -5.6668  -21.7371  -49.0982 H         1 UNK         0.0600 
    220 H220       -2.2176  -19.2722  -48.6444 H         1 UNK         0.3000 
    221 H221       -1.9106  -17.8601  -50.8730 H         1 UNK         0.0600 
    222 H222       -2.3198  -16.7190  -48.0674 H         1 UNK         0.0600 
    223 H223       -0.8161  -17.3674  -48.7239 H         1 UNK         0.0600 
    224 H224       -1.5150  -15.8998  -49.3933 H         1 UNK         0.0600 
    225 H225       -3.3282  -17.3684  -52.3607 H         1 UNK         0.3000 
    226 H226       -4.8859  -16.4107  -53.5591 H         1 UNK         0.0600 
    227 H227       -4.2189  -14.2933  -52.3932 H         1 UNK         0.0600 
    228 H228       -5.9031  -14.2769  -52.8852 H         1 UNK         0.0600 
    229 H229       -5.4910  -14.5539  -51.2001 H         1 UNK         0.0600 
    230 H230       -5.6137  -18.5572  -51.3719 H         1 UNK         0.3000 
    231 H231       -8.5956  -18.3973  -51.6565 H         1 UNK         0.0600 
    232 H232       -6.8557  -19.7498  -49.5331 H         1 UNK         0.0600 
    233 H233       -8.6102  -19.8602  -49.6293 H         1 UNK         0.0600 
    234 H234       -7.8426  -18.3108  -49.3119 H         1 UNK         0.0600 
    235 H235       -5.6974  -20.4939  -51.9679 H         1 UNK         0.3000 
    236 H236       -7.2368  -22.3077  -53.7650 H         1 UNK         0.0600 
    237 H237       -7.2458  -23.3326  -51.4997 H         1 UNK         0.0600 
    238 H238       -6.2424  -24.2663  -52.5956 H         1 UNK         0.0600 
    239 H239       -5.4935  -23.2018  -51.4150 H         1 UNK         0.0600 
    240 H240       -5.0554  -20.1094  -54.0069 H         1 UNK         0.3000 
    241 H241       -2.7547  -21.4875  -55.0644 H         1 UNK         0.0600 
    242 H242       -5.8853  -21.0440  -56.5491 H         1 UNK         0.3800 
    243 H243       -5.3420  -21.3424  -58.1783 H         1 UNK         0.3800 
    244 H244       -2.0836  -19.2200  -55.9313 H         1 UNK         0.0800 
    245 H245       -3.6179  -18.5793  -55.4131 H         1 UNK         0.0800 
    246 H246       -0.1524  -18.4180  -54.6503 H         1 UNK         0.0800 
    247 H247       -0.1583  -20.1168  -54.2282 H         1 UNK         0.0800 
@<TRIPOS>BOND
     1    1    2 1    
     2    1  127 1    
     3    1  128 1    
     4    1  129 1    
     5    2    3 2    
     6    2    4 am   BACKBONE|DICT|INTERRES
     7    4    5 1    
     8    4  130 1    
     9    5    6 1    
    10    5   65 1    
    11    5  131 1    
    12    6    7 1    
    13    6  132 1    
    14    6  133 1    
    15    7    8 1    
    16    8    9 1    
    17    8  134 1    
    18    8  135 1    
    19    9   10 ar   
    20    9   14 ar   
    21   10   11 ar   
    22   10  136 1    
    23   11   12 ar   
    24   11  126 1    
    25   12   13 ar   
    26   12  137 1    
    27   13   14 ar   
    28   13   15 1    
    29   14  138 1    
    30   15   16 1    
    31   15  139 1    
    32   15  140 1    
    33   16   17 1    
    34   17   18 1    
    35   17  141 1    
    36   17  142 1    
    37   18   19 1    
    38   18   67 1    
    39   18  143 1    
    40   19   20 am   BACKBONE|DICT|INTERRES
    41   19  144 1    
    42   20   21 2    
    43   20   22 1    
    44   22   23 1    
    45   22   24 1    
    46   22  145 1    
    47   23  146 1    
    48   23  147 1    
    49   23  148 1    
    50   24   25 am   BACKBONE|DICT|INTERRES
    51   24  149 1    
    52   25   26 2    
    53   25   27 1    
    54   27   28 1    
    55   27   29 1    
    56   27  150 1    
    57   28  151 1    
    58   28  152 1    
    59   28  153 1    
    60   29   30 am   BACKBONE|DICT|INTERRES
    61   29  154 1    
    62   30   31 2    
    63   30   32 1    
    64   32   33 1    
    65   32   34 1    
    66   32  155 1    
    67   33  156 1    
    68   33  157 1    
    69   33  158 1    
    70   34   35 am   BACKBONE|DICT|INTERRES
    71   34  159 1    
    72   35   36 2    
    73   35   37 1    
    74   37   38 1    
    75   37   39 1    
    76   37  160 1    
    77   38  161 1    
    78   38  162 1    
    79   38  163 1    
    80   39   40 am   BACKBONE|DICT|INTERRES
    81   39  164 1    
    82   40   41 2    
    83   40   42 1    
    84   42   43 1    
    85   42   44 1    
    86   42  165 1    
    87   43  166 1    
    88   43  167 1    
    89   43  168 1    
    90   44   45 am   BACKBONE|DICT|INTERRES
    91   44  169 1    
    92   45   46 2    
    93   45   47 1    
    94   47   48 1    
    95   47   49 1    
    96   47  170 1    
    97   48  171 1    
    98   48  172 1    
    99   48  173 1    
   100   49   50 am   BACKBONE|DICT|INTERRES
   101   49  174 1    
   102   50   51 2    
   103   50   52 1    
   104   52   53 1    
   105   52   54 1    
   106   52  175 1    
   107   53  176 1    
   108   53  177 1    
   109   53  178 1    
   110   54   55 am   BACKBONE|DICT|INTERRES
   111   54  179 1    
   112   55   56 2    
   113   55   57 1    
   114   57   58 1    
   115   57   59 1    
   116   57  180 1    
   117   58  181 1    
   118   58  182 1    
   119   58  183 1    
   120   59   60 am   BACKBONE|DICT|INTERRES
   121   59  184 1    
   122   60   61 2    
   123   60   62 1    
   124   62   63 1    
   125   62   64 1    
   126   62  185 1    
   127   63  186 1    
   128   63  187 1    
   129   63  188 1    
   130   64   65 am   BACKBONE|DICT|INTERRES
   131   64  189 1    
   132   65   66 2    
   133   67   68 2    
   134   67   69 am   BACKBONE|DICT|INTERRES
   135   69   70 1    
   136   69  190 1    
   137   70   71 1    
   138   70   72 1    
   139   70  191 1    
   140   71  192 1    
   141   71  193 1    
   142   71  194 1    
   143   72   73 2    
   144   72   74 am   BACKBONE|DICT|INTERRES
   145   74   75 1    
   146   74  195 1    
   147   75   76 1    
   148   75   77 1    
   149   75  196 1    
   150   76  197 1    
   151   76  198 1    
   152   76  199 1    
   153   77   78 2    
   154   77   79 am   BACKBONE|DICT|INTERRES
   155   79   80 1    
   156   79  200 1    
   157   80   81 1    
   158   80   82 1    
   159   80  201 1    
   160   81  202 1    
   161   81  203 1    
   162   81  204 1    
   163   82   83 2    
   164   82   84 am   BACKBONE|DICT|INTERRES
   165   84   85 1    
   166   84  205 1    
   167   85   86 1    
   168   85   87 1    
   169   85  206 1    
   170   86  207 1    
   171   86  208 1    
   172   86  209 1    
   173   87   88 2    
   174   87   89 am   BACKBONE|DICT|INTERRES
   175   89   90 1    
   176   89  210 1    
   177   90   91 1    
   178   90   92 1    
   179   90  211 1    
   180   91  212 1    
   181   91  213 1    
   182   91  214 1    
   183   92   93 2    
   184   92   94 am   BACKBONE|DICT|INTERRES
   185   94   95 1    
   186   94  215 1    
   187   95   96 1    
   188   95   97 1    
   189   95  216 1    
   190   96  217 1    
   191   96  218 1    
   192   96  219 1    
   193   97   98 2    
   194   97   99 am   BACKBONE|DICT|INTERRES
   195   99  100 1    
   196   99  220 1    
   197  100  101 1    
   198  100  102 1    
   199  100  221 1    
   200  101  222 1    
   201  101  223 1    
   202  101  224 1    
   203  102  103 2    
   204  102  104 am   BACKBONE|DICT|INTERRES
   205  104  105 1    
   206  104  225 1    
   207  105  106 1    
   208  105  107 1    
   209  105  226 1    
   210  106  227 1    
   211  106  228 1    
   212  106  229 1    
   213  107  108 2    
   214  107  109 am   BACKBONE|DICT|INTERRES
   215  109  110 1    
   216  109  230 1    
   217  110  111 1    
   218  110  112 1    
   219  110  231 1    
   220  111  232 1    
   221  111  233 1    
   222  111  234 1    
   223  112  113 2    
   224  112  114 am   BACKBONE|DICT|INTERRES
   225  114  115 1    
   226  114  235 1    
   227  115  116 1    
   228  115  117 1    
   229  115  236 1    
   230  116  237 1    
   231  116  238 1    
   232  116  239 1    
   233  117  118 2    
   234  117  119 am   BACKBONE|DICT|INTERRES
   235  119  120 1    
   236  119  240 1    
   237  120  121 1    
   238  120  124 1    
   239  120  241 1    
   240  121  122 am   BACKBONE|DICT|INTERRES
   241  121  123 2    
   242  122  242 1    
   243  122  243 1    
   244  124  125 1    
   245  124  244 1    
   246  124  245 1    
   247  125  126 1    
   248  126  246 1    
   249  126  247 1    
@<TRIPOS>SUBSTRUCTURE
     1 UNK         1 GROUP             0       ****    0 ROOT    
