@<TRIPOS>MOLECULE
3R540
247   249    1
SMALL
USER_CHARGES


@<TRIPOS>ATOM
      1 CA         -0.4375  -17.3298  -41.0472 C.3       0 UNK        -0.1800 
      2 C          -1.7387  -16.9079  -41.7095 C.2       0 UNK         0.5000 
      3 O          -2.8055  -17.0630  -41.1137 O.2       0 UNK        -0.5000 
      4 N          -1.6607  -16.3592  -42.9272 N.am      1 UNK        -0.5000 
      5 CA         -2.7867  -15.7778  -43.6691 C.3       1 UNK         0.1400 
      6 C6         -2.4746  -15.6604  -45.1788 C.3       23 UNK        -0.0398 
      7 S7         -2.3314  -17.2912  -45.9786 S.3       23 UNK        -0.2404 
      8 C8         -2.9906  -16.8997  -47.6254 C.3       23 UNK        -0.0205 
      9 C9         -2.8039  -18.0463  -48.6061 C.ar      23 UNK        -0.0193 
     10 C10        -3.9101  -18.6451  -49.2142 C.ar      23 UNK        -0.1150 
     11 C11        -3.7359  -19.6358  -50.1847 C.ar      23 UNK        -0.0193 
     12 C12        -2.4436  -20.0486  -50.5241 C.ar      23 UNK        -0.1150 
     13 C13        -1.3290  -19.4586  -49.9203 C.ar      23 UNK        -0.0193 
     14 C14        -1.5179  -18.4619  -48.9609 C.ar      23 UNK        -0.1150 
     15 C15         0.0780  -19.8400  -50.3557 C.3       23 UNK        -0.0205 
     16 S16         0.5772  -21.4866  -49.7704 S.3       23 UNK        -0.2404 
     17 C17         0.9031  -21.1929  -47.9976 C.3       23 UNK        -0.0398 
     18 CA          0.2761  -22.3041  -47.1213 C.3       11 UNK         0.1400 
     19 N           1.0542  -22.5741  -45.9097 N.am      11 UNK        -0.5000 
     20 C           0.9573  -23.7057  -45.1962 C.2       10 UNK         0.5000 
     21 O           0.2119  -24.6385  -45.4914 O.2       10 UNK        -0.5000 
     22 CA          1.7949  -23.7878  -43.9081 C.3       10 UNK         0.1400 
     23 CB          3.2570  -24.1329  -44.2284 C.3       10 UNK        -0.1800 
     24 N           1.7447  -22.5486  -43.1345 N.am      10 UNK        -0.5000 
     25 C           0.6305  -22.0428  -42.5876 C.2       9 UNK         0.5000 
     26 O          -0.4636  -22.6027  -42.6254 O.2       9 UNK        -0.5000 
     27 CA          0.7481  -20.6615  -41.9216 C.3       9 UNK         0.1400 
     28 CB          1.0585  -20.8204  -40.4253 C.3       9 UNK        -0.1800 
     29 N           1.7603  -19.7958  -42.5315 N.am      9 UNK        -0.5000 
     30 C           1.7638  -19.3719  -43.8031 C.2       8 UNK         0.5000 
     31 O           0.9291  -19.7050  -44.6489 O.2       8 UNK        -0.5000 
     32 CA          2.9671  -18.4983  -44.1965 C.3       8 UNK         0.1400 
     33 CB          4.1151  -19.3891  -44.6972 C.3       8 UNK        -0.1800 
     34 N           2.6747  -17.4963  -45.2193 N.am      8 UNK        -0.5000 
     35 C           1.8161  -16.4779  -45.0923 C.2       7 UNK         0.5000 
     36 O           1.0577  -16.3143  -44.1320 O.2       7 UNK        -0.5000 
     37 CA          1.8443  -15.4436  -46.2247 C.3       7 UNK         0.1400 
     38 CB          0.9271  -15.8512  -47.3900 C.3       7 UNK        -0.1800 
     39 N           1.4762  -14.1456  -45.6712 N.am      7 UNK        -0.5000 
     40 C           1.6289  -12.9611  -46.2736 C.2       6 UNK         0.5000 
     41 O           1.9885  -12.8188  -47.4429 O.2       6 UNK        -0.5000 
     42 CA          1.4071  -11.7228  -45.3908 C.3       6 UNK         0.1400 
     43 CB         -0.0758  -11.5434  -45.0306 C.3       6 UNK        -0.1800 
     44 N           2.2148  -11.8169  -44.1736 N.am      6 UNK        -0.5000 
     45 C           3.5347  -11.5715  -44.1349 C.2       5 UNK         0.5000 
     46 O           4.1763  -11.1529  -45.0994 O.2       5 UNK        -0.5000 
     47 CA          4.2758  -11.8276  -42.8070 C.3       5 UNK         0.1400 
     48 CB          4.4270  -10.5183  -42.0173 C.3       5 UNK        -0.1800 
     49 N           3.6172  -12.8162  -41.9563 N.am      5 UNK        -0.5000 
     50 C           3.5477  -14.1316  -42.2050 C.2       4 UNK         0.5000 
     51 O           4.1154  -14.6819  -43.1483 O.2       4 UNK        -0.5000 
     52 CA          2.6702  -14.9653  -41.2480 C.3       4 UNK         0.1400 
     53 CB          3.5350  -15.6923  -40.2082 C.3       4 UNK        -0.1800 
     54 N           1.6431  -14.1754  -40.5563 N.am      4 UNK        -0.5000 
     55 C           0.6249  -13.5627  -41.1730 C.2       3 UNK         0.5000 
     56 O           0.4496  -13.5950  -42.3933 O.2       3 UNK        -0.5000 
     57 CA         -0.3214  -12.7349  -40.2968 C.3       3 UNK         0.1400 
     58 CB          0.0915  -11.2541  -40.2919 C.3       3 UNK        -0.1800 
     59 N          -1.6575  -12.8732  -40.8527 N.am      3 UNK        -0.5000 
     60 C          -2.8038  -12.9041  -40.1685 C.2       2 UNK         0.5000 
     61 O          -2.8855  -12.6554  -38.9651 O.2       2 UNK        -0.5000 
     62 CA         -4.0655  -13.3485  -40.9369 C.3       2 UNK         0.1400 
     63 CB         -4.7864  -12.1559  -41.5947 C.3       2 UNK        -0.1800 
     64 N          -3.7992  -14.4430  -41.8831 N.am      2 UNK        -0.5000 
     65 C          -3.1493  -14.4091  -43.0551 C.2       1 UNK         0.5000 
     66 O          -2.7657  -13.3706  -43.5926 O.2       1 UNK        -0.5000 
     67 C          -1.2007  -22.0203  -46.7882 C.2       11 UNK         0.5000 
     68 O          -2.0800  -22.4932  -47.5084 O.2       11 UNK        -0.5000 
     69 N          -1.4435  -21.3170  -45.6705 N.am      12 UNK        -0.5000 
     70 CA         -2.7760  -21.0573  -45.1203 C.3       12 UNK         0.1400 
     71 CB         -2.6560  -20.1650  -43.8719 C.3       12 UNK        -0.1800 
     72 C          -3.5329  -22.3558  -44.7771 C.2       12 UNK         0.5000 
     73 O          -4.7138  -22.4781  -45.1034 O.2       12 UNK        -0.5000 
     74 N          -2.8289  -23.3030  -44.1408 N.am      13 UNK        -0.5000 
     75 CA         -3.3382  -24.6245  -43.7831 C.3       13 UNK         0.1400 
     76 CB         -2.3907  -25.2781  -42.7652 C.3       13 UNK        -0.1800 
     77 C          -3.5347  -25.5383  -45.0052 C.2       13 UNK         0.5000 
     78 O          -4.5538  -26.2259  -45.0829 O.2       13 UNK        -0.5000 
     79 N          -2.5613  -25.5408  -45.9282 N.am      14 UNK        -0.5000 
     80 CA         -2.5862  -26.3545  -47.1450 C.3       14 UNK         0.1400 
     81 CB         -1.2015  -26.3414  -47.8111 C.3       14 UNK        -0.1800 
     82 C          -3.6618  -25.9088  -48.1495 C.2       14 UNK         0.5000 
     83 O          -4.3151  -26.7670  -48.7441 O.2       14 UNK        -0.5000 
     84 N          -3.8115  -24.5850  -48.3172 N.am      15 UNK        -0.5000 
     85 CA         -4.6872  -23.9048  -49.2749 C.3       15 UNK         0.1400 
     86 CB         -6.1678  -24.0717  -48.8782 C.3       15 UNK        -0.1800 
     87 C          -4.3878  -24.3458  -50.7215 C.2       15 UNK         0.5000 
     88 O          -5.2625  -24.8775  -51.4093 O.2       15 UNK        -0.5000 
     89 N          -3.1311  -24.1545  -51.1346 N.am      16 UNK        -0.5000 
     90 CA         -2.6116  -24.5720  -52.4309 C.3       16 UNK         0.1400 
     91 CB         -1.9984  -25.9795  -52.3034 C.3       16 UNK        -0.1800 
     92 C          -1.6040  -23.5215  -52.9122 C.2       16 UNK         0.5000 
     93 O          -0.3982  -23.6862  -52.7183 O.2       16 UNK        -0.5000 
     94 N          -2.1224  -22.4353  -53.4958 N.am      17 UNK        -0.5000 
     95 CA         -1.3282  -21.3661  -54.0980 C.3       17 UNK         0.1400 
     96 CB         -2.2407  -20.1654  -54.3946 C.3       17 UNK        -0.1800 
     97 C          -0.6442  -21.8418  -55.3910 C.2       17 UNK         0.5000 
     98 O          -1.2680  -22.5514  -56.1831 O.2       17 UNK        -0.5000 
     99 N           0.5989  -21.3959  -55.6161 N.am      18 UNK        -0.5000 
    100 CA         1.4027  -21.7250  -56.8008 C.3       18 UNK         0.1400 
    101 CB         2.8315  -21.1969  -56.6010 C.3       18 UNK        -0.1800 
    102 C          0.8091  -21.1909  -58.1206 C.2       18 UNK         0.5000 
    103 O          1.0217  -21.7917  -59.1739 O.2       18 UNK        -0.5000 
    104 N          0.0510  -20.0902  -58.0298 N.am      19 UNK        -0.5000 
    105 CA        -0.7030  -19.4889  -59.1309 C.3       19 UNK         0.1400 
    106 CB        -0.9307  -18.0036  -58.8028 C.3       19 UNK        -0.1800 
    107 C         -2.0512  -20.1909  -59.4046 C.2       19 UNK         0.5000 
    108 O         -2.7286  -19.8202  -60.3637 O.2       19 UNK        -0.5000 
    109 N         -2.4375  -21.1527  -58.5484 N.am      20 UNK        -0.5000 
    110 CA        -3.7131  -21.8819  -58.5350 C.3       20 UNK         0.1400 
    111 CB        -3.8867  -22.7291  -59.8129 C.3       20 UNK        -0.1800 
    112 C         -4.9330  -20.9813  -58.2372 C.2       20 UNK         0.5000 
    113 O         -6.0580  -21.3229  -58.6056 O.2       20 UNK        -0.5000 
    114 N         -4.6904  -19.8488  -57.5613 N.am      21 UNK        -0.5000 
    115 CA        -5.7001  -18.8626  -57.1702 C.3       21 UNK         0.1400 
    116 CB        -4.9847  -17.5646  -56.7641 C.3       21 UNK        -0.1800 
    117 C         -6.6188  -19.3472  -56.0314 C.2       21 UNK         0.5000 
    118 O         -7.7486  -18.8700  -55.9168 O.2       21 UNK        -0.5000 
    119 N         -6.1212  -20.2821  -55.2181 N.am      22 UNK        -0.5000 
    120 CA        -6.8042  -20.8928  -54.0763 C.3       22 UNK         0.1400 
    121 C         -6.1058  -22.2124  -53.6667 C.2       22 UNK         0.5000 
    122 N         -6.7947  -23.0715  -52.9311 N.am      22 UNK        -0.7600 
    123 O         -4.9360  -22.4441  -53.9693 O.2       22 UNK        -0.5000 
    124 C124       -6.9697  -19.9262  -52.8688 C.3       23 UNK        -0.0398 
    125 S125       -5.4189  -19.1433  -52.2981 S.3       23 UNK        -0.2404 
    126 C126       -4.9447  -20.2126  -50.9021 C.3       23 UNK        -0.0205 
    127 H127       -0.1336  -16.5857  -40.3117 H         1 UNK         0.0600 
    128 H128        0.3650  -17.4419  -41.7744 H         1 UNK         0.0600 
    129 H129       -0.5732  -18.2791  -40.5318 H         1 UNK         0.0600 
    130 H130       -0.7480  -16.2603  -43.3661 H         1 UNK         0.3000 
    131 H131       -3.6573  -16.4280  -43.5576 H         1 UNK         0.0600 
    132 H132       -3.2625  -15.0968  -45.6819 H         1 UNK         0.0800 
    133 H133       -1.5492  -15.1043  -45.3389 H         1 UNK         0.0800 
    134 H134       -2.4836  -16.0176  -48.0191 H         1 UNK         0.0800 
    135 H135       -4.0455  -16.6372  -47.5324 H         1 UNK         0.0800 
    136 H136       -4.9080  -18.3130  -48.9646 H         1 UNK         0.1150 
    137 H137       -2.3021  -20.8070  -51.2793 H         1 UNK         0.1150 
    138 H138       -0.6636  -17.9883  -48.5029 H         1 UNK         0.1150 
    139 H139        0.8060  -19.1009  -50.0172 H         1 UNK         0.0800 
    140 H140        0.1248  -19.8274  -51.4447 H         1 UNK         0.0800 
    141 H141        0.5672  -20.2000  -47.6921 H         1 UNK         0.0800 
    142 H142        1.9874  -21.1872  -47.8792 H         1 UNK         0.0800 
    143 H143        0.2943  -23.2306  -47.6999 H         1 UNK         0.0600 
    144 H144        1.6246  -21.8188  -45.5576 H         1 UNK         0.3000 
    145 H145        1.3806  -24.5884  -43.2913 H         1 UNK         0.0600 
    146 H146        3.3223  -25.0608  -44.7982 H         1 UNK         0.0600 
    147 H147        3.8377  -24.2717  -43.3163 H         1 UNK         0.0600 
    148 H148        3.7383  -23.3510  -44.8173 H         1 UNK         0.0600 
    149 H149        2.6036  -22.0269  -43.0466 H         1 UNK         0.3000 
    150 H150       -0.2170  -20.1641  -42.0254 H         1 UNK         0.0600 
    151 H151        2.0082  -21.3320  -40.2639 H         1 UNK         0.0600 
    152 H152        0.2831  -21.4041  -39.9271 H         1 UNK         0.0600 
    153 H153        1.1114  -19.8555  -39.9217 H         1 UNK         0.0600 
    154 H154        2.5074  -19.4984  -41.9208 H         1 UNK         0.3000 
    155 H155        3.3067  -17.9599  -43.3089 H         1 UNK         0.0600 
    156 H156        5.0067  -18.7999  -44.9131 H         1 UNK         0.0600 
    157 H157        3.8399  -19.9266  -45.6058 H         1 UNK         0.0600 
    158 H158        4.3951  -20.1316  -43.9487 H         1 UNK         0.0600 
    159 H159        3.2273  -17.5571  -46.0612 H         1 UNK         0.3000 
    160 H160        2.8708  -15.3718  -46.5904 H         1 UNK         0.0600 
    161 H161       -0.1211  -15.8246  -47.1030 H         1 UNK         0.0600 
    162 H162        1.1581  -16.8619  -47.7263 H         1 UNK         0.0600 
    163 H163        1.0517  -15.1932  -48.2494 H         1 UNK         0.0600 
    164 H164        1.1820  -14.1797  -44.7006 H         1 UNK         0.3000 
    165 H165        1.7191  -10.8408  -45.9546 H         1 UNK         0.0600 
    166 H166       -0.2263  -10.6734  -44.3916 H         1 UNK         0.0600 
    167 H167       -0.6779  -11.3982  -45.9281 H         1 UNK         0.0600 
    168 H168       -0.4762  -12.4125  -44.5108 H         1 UNK         0.0600 
    169 H169        1.7594  -12.2142  -43.3614 H         1 UNK         0.3000 
    170 H170        5.2735  -12.1981  -43.0518 H         1 UNK         0.0600 
    171 H171        5.0117  -10.6696  -41.1097 H         1 UNK         0.0600 
    172 H172        3.4583  -10.1074  -41.7295 H         1 UNK         0.0600 
    173 H173        4.9414   -9.7611  -42.6107 H         1 UNK         0.0600 
    174 H174        3.1321  -12.4616  -41.1461 H         1 UNK         0.3000 
    175 H175        2.1633  -15.7207  -41.8492 H         1 UNK         0.0600 
    176 H176        4.2924  -16.3097  -40.6931 H         1 UNK         0.0600 
    177 H177        4.0528  -14.9902  -39.5536 H         1 UNK         0.0600 
    178 H178        2.9307  -16.3521  -39.5852 H         1 UNK         0.0600 
    179 H179        1.7357  -14.0957  -39.5536 H         1 UNK         0.3000 
    180 H180       -0.2996  -13.1294  -39.2787 H         1 UNK         0.0600 
    181 H181        0.0897  -10.8332  -41.2985 H         1 UNK         0.0600 
    182 H182        1.0944  -11.1276  -39.8826 H         1 UNK         0.0600 
    183 H183       -0.5867  -10.6588  -39.6803 H         1 UNK         0.0600 
    184 H184       -1.6804  -13.0860  -41.8462 H         1 UNK         0.3000 
    185 H185       -4.7479  -13.7691  -40.1966 H         1 UNK         0.0600 
    186 H186       -5.1179  -11.4436  -40.8384 H         1 UNK         0.0600 
    187 H187       -4.1401  -11.6124  -42.2841 H         1 UNK         0.0600 
    188 H188       -5.6693  -12.4815  -42.1446 H         1 UNK         0.0600 
    189 H189       -3.9550  -15.3697  -41.4991 H         1 UNK         0.3000 
    190 H190       -0.6568  -20.9243  -45.1649 H         1 UNK         0.3000 
    191 H191       -3.3403  -20.5152  -45.8821 H         1 UNK         0.0600 
    192 H192       -1.9448  -19.3530  -44.0189 H         1 UNK         0.0600 
    193 H193       -3.6187  -19.7158  -43.6264 H         1 UNK         0.0600 
    194 H194       -2.3314  -20.7268  -42.9968 H         1 UNK         0.0600 
    195 H195       -1.8803  -23.0898  -43.8458 H         1 UNK         0.3000 
    196 H196       -4.3107  -24.4947  -43.3036 H         1 UNK         0.0600 
    197 H197       -2.7493  -26.2660  -42.4739 H         1 UNK         0.0600 
    198 H198       -2.3147  -24.6787  -41.8577 H         1 UNK         0.0600 
    199 H199       -1.3850  -25.3980  -43.1702 H         1 UNK         0.0600 
    200 H200       -1.7223  -24.9926  -45.7657 H         1 UNK         0.3000 
    201 H201       -2.8089  -27.3837  -46.8554 H         1 UNK         0.0600 
    202 H202       -1.1979  -26.9464  -48.7188 H         1 UNK         0.0600 
    203 H203       -0.4403  -26.7499  -47.1465 H         1 UNK         0.0600 
    204 H204       -0.8988  -25.3317  -48.0894 H         1 UNK         0.0600 
    205 H205       -3.1914  -23.9638  -47.8017 H         1 UNK         0.3000 
    206 H206       -4.4473  -22.8422  -49.2127 H         1 UNK         0.0600 
    207 H207       -6.3432  -23.7162  -47.8627 H         1 UNK         0.0600 
    208 H208       -6.8144  -23.4962  -49.5417 H         1 UNK         0.0600 
    209 H209       -6.4891  -25.1124  -48.9289 H         1 UNK         0.0600 
    210 H210       -2.4692  -23.7043  -50.5171 H         1 UNK         0.3000 
    211 H211       -3.4158  -24.6155  -53.1687 H         1 UNK         0.0600 
    212 H212       -1.2126  -26.0112  -51.5476 H         1 UNK         0.0600 
    213 H213       -1.5619  -26.3020  -53.2494 H         1 UNK         0.0600 
    214 H214       -2.7555  -26.7133  -52.0262 H         1 UNK         0.0600 
    215 H215       -3.1290  -22.3983  -53.6486 H         1 UNK         0.3000 
    216 H216       -0.5635  -21.0585  -53.3828 H         1 UNK         0.0600 
    217 H217       -1.6801  -19.3447  -54.8436 H         1 UNK         0.0600 
    218 H218       -2.6975  -19.7816  -53.4832 H         1 UNK         0.0600 
    219 H219       -3.0435  -20.4322  -55.0818 H         1 UNK         0.0600 
    220 H220        1.0438  -20.8103  -54.9239 H         1 UNK         0.3000 
    221 H221        1.4487  -22.8132  -56.8810 H         1 UNK         0.0600 
    222 H222        2.8480  -20.1121  -56.4884 H         1 UNK         0.0600 
    223 H223        3.2942  -21.6346  -55.7163 H         1 UNK         0.0600 
    224 H224        3.4637  -21.4479  -57.4539 H         1 UNK         0.0600 
    225 H225       -0.0493  -19.6568  -57.1240 H         1 UNK         0.3000 
    226 H226       -0.1096  -19.5510  -60.0455 H         1 UNK         0.0600 
    227 H227       -1.4504  -17.4960  -59.6166 H         1 UNK         0.0600 
    228 H228       -1.5314  -17.8766  -57.9012 H         1 UNK         0.0600 
    229 H229        0.0155  -17.4835  -58.6522 H         1 UNK         0.0600 
    230 H230       -1.7988  -21.4190  -57.8071 H         1 UNK         0.3000 
    231 H231       -3.6490  -22.5749  -57.6949 H         1 UNK         0.0600 
    232 H232       -4.0482  -22.1086  -60.6946 H         1 UNK         0.0600 
    233 H233       -4.7438  -23.3976  -59.7249 H         1 UNK         0.0600 
    234 H234       -3.0101  -23.3509  -59.9950 H         1 UNK         0.0600 
    235 H235       -3.7355  -19.6403  -57.3144 H         1 UNK         0.3000 
    236 H236       -6.3293  -18.6523  -58.0376 H         1 UNK         0.0600 
    237 H237       -4.3323  -17.7173  -55.9031 H         1 UNK         0.0600 
    238 H238       -4.3780  -17.1750  -57.5819 H         1 UNK         0.0600 
    239 H239       -5.7042  -16.7897  -56.4964 H         1 UNK         0.0600 
    240 H240       -5.1958  -20.6494  -55.3882 H         1 UNK         0.3000 
    241 H241       -7.8005  -21.1750  -54.4223 H         1 UNK         0.0600 
    242 H242       -6.3191  -23.8988  -52.5792 H         1 UNK         0.3800 
    243 H243       -7.7572  -22.9120  -52.6799 H         1 UNK         0.3800 
    244 H244       -7.4562  -20.4287  -52.0314 H         1 UNK         0.0800 
    245 H245       -7.6504  -19.1216  -53.1485 H         1 UNK         0.0800 
    246 H246       -5.7794  -20.3085  -50.2060 H         1 UNK         0.0800 
    247 H247       -4.7221  -21.2153  -51.2680 H         1 UNK         0.0800 
@<TRIPOS>BOND
     1    1    2 1    
     2    1  127 1    
     3    1  128 1    
     4    1  129 1    
     5    2    3 2    
     6    2    4 am   BACKBONE|DICT|INTERRES
     7    4    5 1    
     8    4  130 1    
     9    5    6 1    
    10    5   65 1    
    11    5  131 1    
    12    6    7 1    
    13    6  132 1    
    14    6  133 1    
    15    7    8 1    
    16    8    9 1    
    17    8  134 1    
    18    8  135 1    
    19    9   10 ar   
    20    9   14 ar   
    21   10   11 ar   
    22   10  136 1    
    23   11   12 ar   
    24   11  126 1    
    25   12   13 ar   
    26   12  137 1    
    27   13   14 ar   
    28   13   15 1    
    29   14  138 1    
    30   15   16 1    
    31   15  139 1    
    32   15  140 1    
    33   16   17 1    
    34   17   18 1    
    35   17  141 1    
    36   17  142 1    
    37   18   19 1    
    38   18   67 1    
    39   18  143 1    
    40   19   20 am   BACKBONE|DICT|INTERRES
    41   19  144 1    
    42   20   21 2    
    43   20   22 1    
    44   22   23 1    
    45   22   24 1    
    46   22  145 1    
    47   23  146 1    
    48   23  147 1    
    49   23  148 1    
    50   24   25 am   BACKBONE|DICT|INTERRES
    51   24  149 1    
    52   25   26 2    
    53   25   27 1    
    54   27   28 1    
    55   27   29 1    
    56   27  150 1    
    57   28  151 1    
    58   28  152 1    
    59   28  153 1    
    60   29   30 am   BACKBONE|DICT|INTERRES
    61   29  154 1    
    62   30   31 2    
    63   30   32 1    
    64   32   33 1    
    65   32   34 1    
    66   32  155 1    
    67   33  156 1    
    68   33  157 1    
    69   33  158 1    
    70   34   35 am   BACKBONE|DICT|INTERRES
    71   34  159 1    
    72   35   36 2    
    73   35   37 1    
    74   37   38 1    
    75   37   39 1    
    76   37  160 1    
    77   38  161 1    
    78   38  162 1    
    79   38  163 1    
    80   39   40 am   BACKBONE|DICT|INTERRES
    81   39  164 1    
    82   40   41 2    
    83   40   42 1    
    84   42   43 1    
    85   42   44 1    
    86   42  165 1    
    87   43  166 1    
    88   43  167 1    
    89   43  168 1    
    90   44   45 am   BACKBONE|DICT|INTERRES
    91   44  169 1    
    92   45   46 2    
    93   45   47 1    
    94   47   48 1    
    95   47   49 1    
    96   47  170 1    
    97   48  171 1    
    98   48  172 1    
    99   48  173 1    
   100   49   50 am   BACKBONE|DICT|INTERRES
   101   49  174 1    
   102   50   51 2    
   103   50   52 1    
   104   52   53 1    
   105   52   54 1    
   106   52  175 1    
   107   53  176 1    
   108   53  177 1    
   109   53  178 1    
   110   54   55 am   BACKBONE|DICT|INTERRES
   111   54  179 1    
   112   55   56 2    
   113   55   57 1    
   114   57   58 1    
   115   57   59 1    
   116   57  180 1    
   117   58  181 1    
   118   58  182 1    
   119   58  183 1    
   120   59   60 am   BACKBONE|DICT|INTERRES
   121   59  184 1    
   122   60   61 2    
   123   60   62 1    
   124   62   63 1    
   125   62   64 1    
   126   62  185 1    
   127   63  186 1    
   128   63  187 1    
   129   63  188 1    
   130   64   65 am   BACKBONE|DICT|INTERRES
   131   64  189 1    
   132   65   66 2    
   133   67   68 2    
   134   67   69 am   BACKBONE|DICT|INTERRES
   135   69   70 1    
   136   69  190 1    
   137   70   71 1    
   138   70   72 1    
   139   70  191 1    
   140   71  192 1    
   141   71  193 1    
   142   71  194 1    
   143   72   73 2    
   144   72   74 am   BACKBONE|DICT|INTERRES
   145   74   75 1    
   146   74  195 1    
   147   75   76 1    
   148   75   77 1    
   149   75  196 1    
   150   76  197 1    
   151   76  198 1    
   152   76  199 1    
   153   77   78 2    
   154   77   79 am   BACKBONE|DICT|INTERRES
   155   79   80 1    
   156   79  200 1    
   157   80   81 1    
   158   80   82 1    
   159   80  201 1    
   160   81  202 1    
   161   81  203 1    
   162   81  204 1    
   163   82   83 2    
   164   82   84 am   BACKBONE|DICT|INTERRES
   165   84   85 1    
   166   84  205 1    
   167   85   86 1    
   168   85   87 1    
   169   85  206 1    
   170   86  207 1    
   171   86  208 1    
   172   86  209 1    
   173   87   88 2    
   174   87   89 am   BACKBONE|DICT|INTERRES
   175   89   90 1    
   176   89  210 1    
   177   90   91 1    
   178   90   92 1    
   179   90  211 1    
   180   91  212 1    
   181   91  213 1    
   182   91  214 1    
   183   92   93 2    
   184   92   94 am   BACKBONE|DICT|INTERRES
   185   94   95 1    
   186   94  215 1    
   187   95   96 1    
   188   95   97 1    
   189   95  216 1    
   190   96  217 1    
   191   96  218 1    
   192   96  219 1    
   193   97   98 2    
   194   97   99 am   BACKBONE|DICT|INTERRES
   195   99  100 1    
   196   99  220 1    
   197  100  101 1    
   198  100  102 1    
   199  100  221 1    
   200  101  222 1    
   201  101  223 1    
   202  101  224 1    
   203  102  103 2    
   204  102  104 am   BACKBONE|DICT|INTERRES
   205  104  105 1    
   206  104  225 1    
   207  105  106 1    
   208  105  107 1    
   209  105  226 1    
   210  106  227 1    
   211  106  228 1    
   212  106  229 1    
   213  107  108 2    
   214  107  109 am   BACKBONE|DICT|INTERRES
   215  109  110 1    
   216  109  230 1    
   217  110  111 1    
   218  110  112 1    
   219  110  231 1    
   220  111  232 1    
   221  111  233 1    
   222  111  234 1    
   223  112  113 2    
   224  112  114 am   BACKBONE|DICT|INTERRES
   225  114  115 1    
   226  114  235 1    
   227  115  116 1    
   228  115  117 1    
   229  115  236 1    
   230  116  237 1    
   231  116  238 1    
   232  116  239 1    
   233  117  118 2    
   234  117  119 am   BACKBONE|DICT|INTERRES
   235  119  120 1    
   236  119  240 1    
   237  120  121 1    
   238  120  124 1    
   239  120  241 1    
   240  121  122 am   BACKBONE|DICT|INTERRES
   241  121  123 2    
   242  122  242 1    
   243  122  243 1    
   244  124  125 1    
   245  124  244 1    
   246  124  245 1    
   247  125  126 1    
   248  126  246 1    
   249  126  247 1    
@<TRIPOS>SUBSTRUCTURE
     1 UNK         1 GROUP             0       ****    0 ROOT    
