@<TRIPOS>MOLECULE
3R540
247   249    1
SMALL
USER_CHARGES


@<TRIPOS>ATOM
      1 CA         -3.9274  -12.0733  -49.3977 C.3       0 UNK        -0.1800 
      2 C          -2.6798  -12.8617  -49.0271 C.2       0 UNK         0.5000 
      3 O          -1.9183  -12.4284  -48.1637 O.2       0 UNK        -0.5000 
      4 N          -2.4763  -14.0227  -49.6648 N.am      1 UNK        -0.5000 
      5 CA         -1.3400  -14.9280  -49.4466 C.3       1 UNK         0.1400 
      6 C6         -1.3581  -16.0918  -50.4682 C.3       23 UNK        -0.0398 
      7 S7          0.2326  -16.9722  -50.6370 S.3       23 UNK        -0.2404 
      8 C8         -0.0068  -18.3693  -49.4954 C.3       23 UNK        -0.0205 
      9 C9          0.8747  -19.5497  -49.8659 C.ar      23 UNK        -0.0193 
     10 C10         0.4618  -20.4434  -50.8578 C.ar      23 UNK        -0.1150 
     11 C11         1.2456  -21.5521  -51.1884 C.ar      23 UNK        -0.0193 
     12 C12         2.4497  -21.7656  -50.5139 C.ar      23 UNK        -0.1150 
     13 C13         2.8768  -20.8763  -49.5240 C.ar      23 UNK        -0.0193 
     14 C14         2.0861  -19.7675  -49.2045 C.ar      23 UNK        -0.1150 
     15 C15         4.1989  -21.1149  -48.8122 C.3       23 UNK        -0.0205 
     16 S16         4.0945  -22.4823  -47.6152 S.3       23 UNK        -0.2404 
     17 C17         3.0537  -21.7467  -46.3116 C.3       23 UNK        -0.0398 
     18 CA          1.8772  -22.6534  -45.8788 C.3       11 UNK         0.1400 
     19 N           1.4093  -22.2901  -44.5376 N.am      11 UNK        -0.5000 
     20 C           0.5655  -23.0115  -43.7874 C.2       10 UNK         0.5000 
     21 O           0.0831  -24.0867  -44.1412 O.2       10 UNK        -0.5000 
     22 CA          0.1748  -22.4141  -42.4225 C.3       10 UNK         0.1400 
     23 CB          1.2751  -22.6519  -41.3771 C.3       10 UNK        -0.1800 
     24 N          -0.1139  -20.9833  -42.5138 N.am      10 UNK        -0.5000 
     25 C          -1.1877  -20.4727  -43.1326 C.2       9 UNK         0.5000 
     26 O          -2.0905  -21.1585  -43.6117 O.2       9 UNK        -0.5000 
     27 CA         -1.2516  -18.9395  -43.2573 C.3       9 UNK         0.1400 
     28 CB         -1.8263  -18.3298  -41.9683 C.3       9 UNK        -0.1800 
     29 N           0.0512  -18.3382  -43.5559 N.am      9 UNK        -0.5000 
     30 C           0.7773  -18.5781  -44.6579 C.2       8 UNK         0.5000 
     31 O           0.3991  -19.2924  -45.5816 O.2       8 UNK        -0.5000 
     32 CA          2.1935  -17.9814  -44.7158 C.3       8 UNK         0.1400 
     33 CB          2.1752  -16.5507  -45.2685 C.3       8 UNK        -0.1800 
     34 N           2.8518  -18.0102  -43.4109 N.am      8 UNK        -0.5000 
     35 C           3.2558  -19.1326  -42.7988 C.2       7 UNK         0.5000 
     36 O           3.1431  -20.2549  -43.2904 O.2       7 UNK        -0.5000 
     37 CA          3.8352  -18.9760  -41.3814 C.3       7 UNK         0.1400 
     38 CB          5.3207  -18.5911  -41.4421 C.3       7 UNK        -0.1800 
     39 N           3.1055  -17.9786  -40.5979 N.am      7 UNK        -0.5000 
     40 C           1.8366  -18.1217  -40.1886 C.2       6 UNK         0.5000 
     41 O           1.1794  -19.1489  -40.3576 O.2       6 UNK        -0.5000 
     42 CA          1.1811  -16.8892  -39.5327 C.3       6 UNK         0.1400 
     43 CB          1.4371  -16.8819  -38.0185 C.3       6 UNK        -0.1800 
     44 N           1.6429  -15.6217  -40.1126 N.am      6 UNK        -0.5000 
     45 C           1.4222  -15.2531  -41.3813 C.2       5 UNK         0.5000 
     46 O           0.7679  -15.9267  -42.1793 O.2       5 UNK        -0.5000 
     47 CA          2.1061  -13.9665  -41.8612 C.3       5 UNK         0.1400 
     48 CB          3.6109  -14.2292  -42.0851 C.3       5 UNK        -0.1800 
     49 N           1.4696  -13.5355  -43.1043 N.am      5 UNK        -0.5000 
     50 C           1.6926  -12.3856  -43.7512 C.2       4 UNK         0.5000 
     51 O           2.4639  -11.5129  -43.3500 O.2       4 UNK        -0.5000 
     52 CA          0.9249  -12.1596  -45.0687 C.3       4 UNK         0.1400 
     53 CB          1.7134  -12.7258  -46.2592 C.3       4 UNK        -0.1800 
     54 N          -0.4286  -12.7178  -45.0831 N.am      4 UNK        -0.5000 
     55 C          -1.4419  -12.2851  -44.3180 C.2       3 UNK         0.5000 
     56 O          -1.3166  -11.4161  -43.4540 O.2       3 UNK        -0.5000 
     57 CA         -2.8380  -12.8904  -44.5669 C.3       3 UNK         0.1400 
     58 CB         -3.7867  -11.8377  -45.1636 C.3       3 UNK        -0.1800 
     59 N          -2.8124  -14.0537  -45.4546 N.am      3 UNK        -0.5000 
     60 C          -2.5692  -15.3075  -45.0520 C.2       2 UNK         0.5000 
     61 O          -2.3414  -15.6056  -43.8827 O.2       2 UNK        -0.5000 
     62 CA         -2.5937  -16.4167  -46.1230 C.3       2 UNK         0.1400 
     63 CB         -3.9036  -17.2152  -46.0366 C.3       2 UNK        -0.1800 
     64 N          -2.4396  -15.9124  -47.4887 N.am      2 UNK        -0.5000 
     65 C          -1.2899  -15.4440  -47.9932 C.2       1 UNK         0.5000 
     66 O          -0.2459  -15.3666  -47.3476 O.2       1 UNK        -0.5000 
     67 C           0.7325  -22.6791  -46.9193 C.2       11 UNK         0.5000 
     68 O           0.6881  -23.5866  -47.7514 O.2       11 UNK        -0.5000 
     69 N          -0.2065  -21.7259  -46.8092 N.am      12 UNK        -0.5000 
     70 CA         -1.3899  -21.5574  -47.6585 C.3       12 UNK         0.1400 
     71 CB         -2.2107  -20.3582  -47.1587 C.3       12 UNK        -0.1800 
     72 C          -2.2924  -22.7969  -47.7722 C.2       12 UNK         0.5000 
     73 O          -2.9410  -22.9661  -48.8041 O.2       12 UNK        -0.5000 
     74 N          -2.2755  -23.6661  -46.7500 N.am      13 UNK        -0.5000 
     75 CA         -2.9908  -24.9437  -46.7050 C.3       13 UNK         0.1400 
     76 CB         -2.7227  -25.6239  -45.3553 C.3       13 UNK        -0.1800 
     77 C          -2.6495  -25.8993  -47.8670 C.2       13 UNK         0.5000 
     78 O          -3.4938  -26.7153  -48.2385 O.2       13 UNK        -0.5000 
     79 N          -1.4577  -25.7450  -48.4655 N.am      14 UNK        -0.5000 
     80 CA         -1.0312  -26.4401  -49.6831 C.3       14 UNK         0.1400 
     81 CB          0.4548  -26.1418  -49.9321 C.3       14 UNK        -0.1800 
     82 C          -1.8733  -26.0925  -50.9316 C.2       14 UNK         0.5000 
     83 O          -1.8906  -26.8795  -51.8786 O.2       14 UNK        -0.5000 
     84 N          -2.5705  -24.9488  -50.9053 N.am      15 UNK        -0.5000 
     85 CA         -3.5316  -24.5077  -51.9151 C.3       15 UNK         0.1400 
     86 CB         -2.9597  -23.2861  -52.6544 C.3       15 UNK        -0.1800 
     87 C          -4.9034  -24.2240  -51.2703 C.2       15 UNK         0.5000 
     88 O          -5.6561  -23.3886  -51.7764 O.2       15 UNK        -0.5000 
     89 N          -5.2050  -24.9221  -50.1630 N.am      16 UNK        -0.5000 
     90 CA         -6.4077  -24.8164  -49.3331 C.3       16 UNK         0.1400 
     91 CB         -7.6435  -25.3525  -50.0890 C.3       16 UNK        -0.1800 
     92 C          -6.5981  -23.3949  -48.7662 C.2       16 UNK         0.5000 
     93 O          -6.0173  -23.0744  -47.7293 O.2       16 UNK        -0.5000 
     94 N          -7.4065  -22.5751  -49.4489 N.am      17 UNK        -0.5000 
     95 CA         -7.6396  -21.1697  -49.1186 C.3       17 UNK         0.1400 
     96 CB         -9.0130  -20.7576  -49.6728 C.3       17 UNK        -0.1800 
     97 C          -6.5445  -20.2331  -49.6662 C.2       17 UNK         0.5000 
     98 O          -6.4349  -19.1055  -49.1840 O.2       17 UNK        -0.5000 
     99 N          -5.7838  -20.6962  -50.6727 N.am      18 UNK        -0.5000 
    100 CA        -4.7588  -19.9583  -51.4207 C.3       18 UNK         0.1400 
    101 CB        -3.5358  -19.6548  -50.5351 C.3       18 UNK        -0.1800 
    102 C         -5.3194  -18.7062  -52.1277 C.2       18 UNK         0.5000 
    103 O         -4.6842  -17.6498  -52.1297 O.2       18 UNK        -0.5000 
    104 N         -6.5098  -18.8518  -52.7289 N.am      19 UNK        -0.5000 
    105 CA        -7.2384  -17.7876  -53.4287 C.3       19 UNK         0.1400 
    106 CB        -8.6443  -18.2951  -53.7833 C.3       19 UNK        -0.1800 
    107 C         -6.5168  -17.2626  -54.6869 C.2       19 UNK         0.5000 
    108 O         -6.6778  -16.0931  -55.0363 O.2       19 UNK        -0.5000 
    109 N         -5.7134  -18.1281  -55.3174 N.am      20 UNK        -0.5000 
    110 CA        -4.8213  -17.8128  -56.4354 C.3       20 UNK         0.1400 
    111 CB        -5.0955  -18.8065  -57.5786 C.3       20 UNK        -0.1800 
    112 C         -3.3461  -17.8453  -55.9821 C.2       20 UNK         0.5000 
    113 O         -2.4605  -18.1307  -56.7927 O.2       20 UNK        -0.5000 
    114 N         -3.1097  -17.5893  -54.6845 N.am      21 UNK        -0.5000 
    115 CA        -1.8394  -17.7227  -53.9710 C.3       21 UNK         0.1400 
    116 CB        -0.8399  -16.6303  -54.4138 C.3       21 UNK        -0.1800 
    117 C         -1.3148  -19.1657  -54.0852 C.2       21 UNK         0.5000 
    118 O         -1.9637  -20.0776  -53.5718 O.2       21 UNK        -0.5000 
    119 N         -0.1930  -19.3460  -54.7845 N.am      22 UNK        -0.5000 
    120 CA         0.3928  -20.6455  -55.1329 C.3       22 UNK         0.1400 
    121 C          0.5126  -20.8444  -56.6733 C.2       22 UNK         0.5000 
    122 N         -0.2005  -20.0804  -57.4957 N.am      22 UNK        -0.7600 
    123 O          1.2505  -21.7080  -57.1391 O.2       22 UNK        -0.5000 
    124 C124        1.7213  -20.8739  -54.3575 C.3       23 UNK        -0.0398 
    125 S125        1.8860  -22.5729  -53.7130 S.3       23 UNK        -0.2404 
    126 C126        0.7811  -22.5251  -52.2620 C.3       23 UNK        -0.0205 
    127 H127       -3.6507  -11.0822  -49.7570 H         1 UNK         0.0600 
    128 H128       -4.5682  -11.9535  -48.5242 H         1 UNK         0.0600 
    129 H129       -4.5047  -12.5695  -50.1782 H         1 UNK         0.0600 
    130 H130       -3.1450  -14.3163  -50.3627 H         1 UNK         0.3000 
    131 H131       -0.4343  -14.3411  -49.6154 H         1 UNK         0.0600 
    132 H132       -1.5776  -15.6869  -51.4568 H         1 UNK         0.0800 
    133 H133       -2.1660  -16.7954  -50.2608 H         1 UNK         0.0800 
    134 H134       -1.0477  -18.6889  -49.5041 H         1 UNK         0.0800 
    135 H135        0.2038  -18.0449  -48.4748 H         1 UNK         0.0800 
    136 H136       -0.4766  -20.2779  -51.3668 H         1 UNK         0.1150 
    137 H137        3.0564  -22.6255  -50.7609 H         1 UNK         0.1150 
    138 H138        2.4075  -19.0770  -48.4376 H         1 UNK         0.1150 
    139 H139        4.9644  -21.3535  -49.5520 H         1 UNK         0.0800 
    140 H140        4.5384  -20.2103  -48.3051 H         1 UNK         0.0800 
    141 H141        2.6950  -20.7599  -46.6046 H         1 UNK         0.0800 
    142 H142        3.7199  -21.5777  -45.4654 H         1 UNK         0.0800 
    143 H143        2.2559  -23.6749  -45.8002 H         1 UNK         0.0600 
    144 H144        1.7973  -21.4396  -44.1419 H         1 UNK         0.3000 
    145 H145       -0.7291  -22.9233  -42.0815 H         1 UNK         0.0600 
    146 H146        0.9769  -22.2725  -40.3994 H         1 UNK         0.0600 
    147 H147        2.2102  -22.1640  -41.6519 H         1 UNK         0.0600 
    148 H148        1.4815  -23.7169  -41.2647 H         1 UNK         0.0600 
    149 H149        0.5538  -20.3483  -42.0929 H         1 UNK         0.3000 
    150 H150       -1.9226  -18.6963  -44.0822 H         1 UNK         0.0600 
    151 H151       -2.8685  -18.6217  -41.8359 H         1 UNK         0.0600 
    152 H152       -1.7920  -17.2416  -41.9847 H         1 UNK         0.0600 
    153 H153       -1.2829  -18.6602  -41.0840 H         1 UNK         0.0600 
    154 H154        0.4022  -17.6596  -42.8862 H         1 UNK         0.3000 
    155 H155        2.7864  -18.5920  -45.3998 H         1 UNK         0.0600 
    156 H156        1.8640  -16.5533  -46.3132 H         1 UNK         0.0600 
    157 H157        3.1629  -16.0917  -45.2280 H         1 UNK         0.0600 
    158 H158        1.4806  -15.9112  -44.7254 H         1 UNK         0.0600 
    159 H159        2.9273  -17.1334  -42.9198 H         1 UNK         0.3000 
    160 H160        3.7501  -19.9405  -40.8762 H         1 UNK         0.0600 
    161 H161        5.4689  -17.6210  -41.9183 H         1 UNK         0.0600 
    162 H162        5.8907  -19.3269  -42.0110 H         1 UNK         0.0600 
    163 H163        5.7567  -18.5453  -40.4440 H         1 UNK         0.0600 
    164 H164        3.5804  -17.1099  -40.4042 H         1 UNK         0.3000 
    165 H165        0.1039  -16.9623  -39.6966 H         1 UNK         0.0600 
    166 H166        0.9119  -16.0586  -37.5339 H         1 UNK         0.0600 
    167 H167        1.0840  -17.8061  -37.5591 H         1 UNK         0.0600 
    168 H168        2.4989  -16.7856  -37.7886 H         1 UNK         0.0600 
    169 H169        2.1906  -15.0223  -39.5117 H         1 UNK         0.3000 
    170 H170        1.9679  -13.1929  -41.1036 H         1 UNK         0.0600 
    171 H171        3.7776  -14.9555  -42.8813 H         1 UNK         0.0600 
    172 H172        4.1434  -13.3172  -42.3532 H         1 UNK         0.0600 
    173 H173        4.0867  -14.6147  -41.1828 H         1 UNK         0.0600 
    174 H174        0.7895  -14.1922  -43.4678 H         1 UNK         0.3000 
    175 H175        0.8350  -11.0806  -45.2106 H         1 UNK         0.0600 
    176 H176        1.8197  -13.8085  -46.1930 H         1 UNK         0.0600 
    177 H177        1.2189  -12.4973  -47.2038 H         1 UNK         0.0600 
    178 H178        2.7161  -12.2990  -46.3041 H         1 UNK         0.0600 
    179 H179       -0.6189  -13.4249  -45.7804 H         1 UNK         0.3000 
    180 H180       -3.2397  -13.1894  -43.5964 H         1 UNK         0.0600 
    181 H181       -4.7835  -12.2488  -45.3241 H         1 UNK         0.0600 
    182 H182       -3.4210  -11.4587  -46.1181 H         1 UNK         0.0600 
    183 H183       -3.8934  -10.9837  -44.4936 H         1 UNK         0.0600 
    184 H184       -2.9480  -13.8745  -46.4389 H         1 UNK         0.3000 
    185 H185       -1.7630  -17.0940  -45.9144 H         1 UNK         0.0600 
    186 H186       -4.7728  -16.5814  -46.2166 H         1 UNK         0.0600 
    187 H187       -3.9255  -18.0245  -46.7661 H         1 UNK         0.0600 
    188 H188       -4.0243  -17.6641  -45.0499 H         1 UNK         0.0600 
    189 H189       -3.2665  -15.9112  -48.0681 H         1 UNK         0.3000 
    190 H190       -0.0483  -20.9793  -46.1360 H         1 UNK         0.3000 
    191 H191       -1.0358  -21.3365  -48.6650 H         1 UNK         0.0600 
    192 H192       -1.6554  -19.4262  -47.2522 H         1 UNK         0.0600 
    193 H193       -2.4933  -20.4746  -46.1135 H         1 UNK         0.0600 
    194 H194       -3.1342  -20.2447  -47.7263 H         1 UNK         0.0600 
    195 H195       -1.6849  -23.4531  -45.9576 H         1 UNK         0.3000 
    196 H196       -4.0569  -24.7201  -46.7698 H         1 UNK         0.0600 
    197 H197       -3.0020  -24.9776  -44.5228 H         1 UNK         0.0600 
    198 H198       -1.6697  -25.8837  -45.2404 H         1 UNK         0.0600 
    199 H199       -3.2998  -26.5447  -45.2605 H         1 UNK         0.0600 
    200 H200       -0.8256  -25.0334  -48.1127 H         1 UNK         0.3000 
    201 H201       -1.1390  -27.5125  -49.5092 H         1 UNK         0.0600 
    202 H202        1.0695  -26.4804  -49.0980 H         1 UNK         0.0600 
    203 H203        0.6322  -25.0743  -50.0625 H         1 UNK         0.0600 
    204 H204        0.8145  -26.6484  -50.8286 H         1 UNK         0.0600 
    205 H205       -2.5207  -24.3563  -50.0797 H         1 UNK         0.3000 
    206 H206       -3.7047  -25.2965  -52.6494 H         1 UNK         0.0600 
    207 H207       -2.7213  -22.4751  -51.9651 H         1 UNK         0.0600 
    208 H208       -2.0506  -23.5528  -53.1921 H         1 UNK         0.0600 
    209 H209       -3.6610  -22.8977  -53.3938 H         1 UNK         0.0600 
    210 H210       -4.5056  -25.5649  -49.8122 H         1 UNK         0.3000 
    211 H211       -6.2442  -25.4690  -48.4740 H         1 UNK         0.0600 
    212 H212       -7.8331  -24.8157  -51.0186 H         1 UNK         0.0600 
    213 H213       -8.5411  -25.2765  -49.4739 H         1 UNK         0.0600 
    214 H214       -7.5154  -26.4054  -50.3405 H         1 UNK         0.0600 
    215 H215       -7.8187  -22.9168  -50.3053 H         1 UNK         0.3000 
    216 H216       -7.6615  -21.0546  -48.0328 H         1 UNK         0.0600 
    217 H217       -9.2404  -19.7203  -49.4231 H         1 UNK         0.0600 
    218 H218       -9.8085  -21.3732  -49.2526 H         1 UNK         0.0600 
    219 H219       -9.0543  -20.8497  -50.7588 H         1 UNK         0.0600 
    220 H220       -5.9321  -21.6533  -50.9825 H         1 UNK         0.3000 
    221 H221       -4.4249  -20.6240  -52.2173 H         1 UNK         0.0600 
    222 H222       -3.7824  -18.9823  -49.7135 H         1 UNK         0.0600 
    223 H223       -3.1229  -20.5719  -50.1179 H         1 UNK         0.0600 
    224 H224       -2.7440  -19.1842  -51.1166 H         1 UNK         0.0600 
    225 H225       -6.9661  -19.7507  -52.6740 H         1 UNK         0.3000 
    226 H226       -7.3426  -16.9478  -52.7384 H         1 UNK         0.0600 
    227 H227       -9.1947  -18.5897  -52.8895 H         1 UNK         0.0600 
    228 H228       -9.2265  -17.5179  -54.2803 H         1 UNK         0.0600 
    229 H229       -8.6049  -19.1549  -54.4533 H         1 UNK         0.0600 
    230 H230       -5.6422  -19.0640  -54.9443 H         1 UNK         0.3000 
    231 H231       -5.0148  -16.8055  -56.8089 H         1 UNK         0.0600 
    232 H232       -4.4996  -18.5673  -58.4603 H         1 UNK         0.0600 
    233 H233       -6.1425  -18.7788  -57.8809 H         1 UNK         0.0600 
    234 H234       -4.8572  -19.8302  -57.2872 H         1 UNK         0.0600 
    235 H235       -3.9056  -17.4037  -54.0855 H         1 UNK         0.3000 
    236 H236       -2.0562  -17.5651  -52.9151 H         1 UNK         0.0600 
    237 H237       -0.5957  -16.6907  -55.4746 H         1 UNK         0.0600 
    238 H238       -1.2486  -15.6370  -54.2290 H         1 UNK         0.0600 
    239 H239        0.0920  -16.7002  -53.8511 H         1 UNK         0.0600 
    240 H240        0.2481  -18.5413  -55.2062 H         1 UNK         0.3000 
    241 H241       -0.3121  -21.4245  -54.8393 H         1 UNK         0.0600 
    242 H242       -0.1174  -20.2195  -58.4903 H         1 UNK         0.3800 
    243 H243       -0.8661  -19.3999  -57.1437 H         1 UNK         0.3800 
    244 H244        1.8013  -20.1904  -53.5112 H         1 UNK         0.0800 
    245 H245        2.5891  -20.6492  -54.9797 H         1 UNK         0.0800 
    246 H246        0.7160  -23.5253  -51.8344 H         1 UNK         0.0800 
    247 H247       -0.2246  -22.2679  -52.5925 H         1 UNK         0.0800 
@<TRIPOS>BOND
     1    1    2 1    
     2    1  127 1    
     3    1  128 1    
     4    1  129 1    
     5    2    3 2    
     6    2    4 am   BACKBONE|DICT|INTERRES
     7    4    5 1    
     8    4  130 1    
     9    5    6 1    
    10    5   65 1    
    11    5  131 1    
    12    6    7 1    
    13    6  132 1    
    14    6  133 1    
    15    7    8 1    
    16    8    9 1    
    17    8  134 1    
    18    8  135 1    
    19    9   10 ar   
    20    9   14 ar   
    21   10   11 ar   
    22   10  136 1    
    23   11   12 ar   
    24   11  126 1    
    25   12   13 ar   
    26   12  137 1    
    27   13   14 ar   
    28   13   15 1    
    29   14  138 1    
    30   15   16 1    
    31   15  139 1    
    32   15  140 1    
    33   16   17 1    
    34   17   18 1    
    35   17  141 1    
    36   17  142 1    
    37   18   19 1    
    38   18   67 1    
    39   18  143 1    
    40   19   20 am   BACKBONE|DICT|INTERRES
    41   19  144 1    
    42   20   21 2    
    43   20   22 1    
    44   22   23 1    
    45   22   24 1    
    46   22  145 1    
    47   23  146 1    
    48   23  147 1    
    49   23  148 1    
    50   24   25 am   BACKBONE|DICT|INTERRES
    51   24  149 1    
    52   25   26 2    
    53   25   27 1    
    54   27   28 1    
    55   27   29 1    
    56   27  150 1    
    57   28  151 1    
    58   28  152 1    
    59   28  153 1    
    60   29   30 am   BACKBONE|DICT|INTERRES
    61   29  154 1    
    62   30   31 2    
    63   30   32 1    
    64   32   33 1    
    65   32   34 1    
    66   32  155 1    
    67   33  156 1    
    68   33  157 1    
    69   33  158 1    
    70   34   35 am   BACKBONE|DICT|INTERRES
    71   34  159 1    
    72   35   36 2    
    73   35   37 1    
    74   37   38 1    
    75   37   39 1    
    76   37  160 1    
    77   38  161 1    
    78   38  162 1    
    79   38  163 1    
    80   39   40 am   BACKBONE|DICT|INTERRES
    81   39  164 1    
    82   40   41 2    
    83   40   42 1    
    84   42   43 1    
    85   42   44 1    
    86   42  165 1    
    87   43  166 1    
    88   43  167 1    
    89   43  168 1    
    90   44   45 am   BACKBONE|DICT|INTERRES
    91   44  169 1    
    92   45   46 2    
    93   45   47 1    
    94   47   48 1    
    95   47   49 1    
    96   47  170 1    
    97   48  171 1    
    98   48  172 1    
    99   48  173 1    
   100   49   50 am   BACKBONE|DICT|INTERRES
   101   49  174 1    
   102   50   51 2    
   103   50   52 1    
   104   52   53 1    
   105   52   54 1    
   106   52  175 1    
   107   53  176 1    
   108   53  177 1    
   109   53  178 1    
   110   54   55 am   BACKBONE|DICT|INTERRES
   111   54  179 1    
   112   55   56 2    
   113   55   57 1    
   114   57   58 1    
   115   57   59 1    
   116   57  180 1    
   117   58  181 1    
   118   58  182 1    
   119   58  183 1    
   120   59   60 am   BACKBONE|DICT|INTERRES
   121   59  184 1    
   122   60   61 2    
   123   60   62 1    
   124   62   63 1    
   125   62   64 1    
   126   62  185 1    
   127   63  186 1    
   128   63  187 1    
   129   63  188 1    
   130   64   65 am   BACKBONE|DICT|INTERRES
   131   64  189 1    
   132   65   66 2    
   133   67   68 2    
   134   67   69 am   BACKBONE|DICT|INTERRES
   135   69   70 1    
   136   69  190 1    
   137   70   71 1    
   138   70   72 1    
   139   70  191 1    
   140   71  192 1    
   141   71  193 1    
   142   71  194 1    
   143   72   73 2    
   144   72   74 am   BACKBONE|DICT|INTERRES
   145   74   75 1    
   146   74  195 1    
   147   75   76 1    
   148   75   77 1    
   149   75  196 1    
   150   76  197 1    
   151   76  198 1    
   152   76  199 1    
   153   77   78 2    
   154   77   79 am   BACKBONE|DICT|INTERRES
   155   79   80 1    
   156   79  200 1    
   157   80   81 1    
   158   80   82 1    
   159   80  201 1    
   160   81  202 1    
   161   81  203 1    
   162   81  204 1    
   163   82   83 2    
   164   82   84 am   BACKBONE|DICT|INTERRES
   165   84   85 1    
   166   84  205 1    
   167   85   86 1    
   168   85   87 1    
   169   85  206 1    
   170   86  207 1    
   171   86  208 1    
   172   86  209 1    
   173   87   88 2    
   174   87   89 am   BACKBONE|DICT|INTERRES
   175   89   90 1    
   176   89  210 1    
   177   90   91 1    
   178   90   92 1    
   179   90  211 1    
   180   91  212 1    
   181   91  213 1    
   182   91  214 1    
   183   92   93 2    
   184   92   94 am   BACKBONE|DICT|INTERRES
   185   94   95 1    
   186   94  215 1    
   187   95   96 1    
   188   95   97 1    
   189   95  216 1    
   190   96  217 1    
   191   96  218 1    
   192   96  219 1    
   193   97   98 2    
   194   97   99 am   BACKBONE|DICT|INTERRES
   195   99  100 1    
   196   99  220 1    
   197  100  101 1    
   198  100  102 1    
   199  100  221 1    
   200  101  222 1    
   201  101  223 1    
   202  101  224 1    
   203  102  103 2    
   204  102  104 am   BACKBONE|DICT|INTERRES
   205  104  105 1    
   206  104  225 1    
   207  105  106 1    
   208  105  107 1    
   209  105  226 1    
   210  106  227 1    
   211  106  228 1    
   212  106  229 1    
   213  107  108 2    
   214  107  109 am   BACKBONE|DICT|INTERRES
   215  109  110 1    
   216  109  230 1    
   217  110  111 1    
   218  110  112 1    
   219  110  231 1    
   220  111  232 1    
   221  111  233 1    
   222  111  234 1    
   223  112  113 2    
   224  112  114 am   BACKBONE|DICT|INTERRES
   225  114  115 1    
   226  114  235 1    
   227  115  116 1    
   228  115  117 1    
   229  115  236 1    
   230  116  237 1    
   231  116  238 1    
   232  116  239 1    
   233  117  118 2    
   234  117  119 am   BACKBONE|DICT|INTERRES
   235  119  120 1    
   236  119  240 1    
   237  120  121 1    
   238  120  124 1    
   239  120  241 1    
   240  121  122 am   BACKBONE|DICT|INTERRES
   241  121  123 2    
   242  122  242 1    
   243  122  243 1    
   244  124  125 1    
   245  124  244 1    
   246  124  245 1    
   247  125  126 1    
   248  126  246 1    
   249  126  247 1    
@<TRIPOS>SUBSTRUCTURE
     1 UNK         1 GROUP             0       ****    0 ROOT    
