@<TRIPOS>MOLECULE
3R540
247   249    1
SMALL
USER_CHARGES


@<TRIPOS>ATOM
      1 CA         -0.9773  -16.0139  -50.1650 C.3       0 UNK        -0.1800 
      2 C          -0.5359  -15.1882  -48.9655 C.2       0 UNK         0.5000 
      3 O           0.6383  -14.8295  -48.8690 O.2       0 UNK        -0.5000 
      4 N          -1.4713  -14.8675  -48.0616 N.am      1 UNK        -0.5000 
      5 CA         -1.2707  -14.0313  -46.8719 C.3       1 UNK         0.1400 
      6 C6         -2.3585  -14.2842  -45.7922 C.3       23 UNK        -0.0398 
      7 S7         -1.9483  -15.6949  -44.7123 S.3       23 UNK        -0.2404 
      8 C8         -3.0949  -16.9896  -45.2871 C.3       23 UNK        -0.0205 
      9 C9         -2.6478  -17.6837  -46.5682 C.ar      23 UNK        -0.0193 
     10 C10        -3.5855  -17.9970  -47.5538 C.ar      23 UNK        -0.1150 
     11 C11        -3.2077  -18.7168  -48.6901 C.ar      23 UNK        -0.0193 
     12 C12        -1.8714  -19.0952  -48.8564 C.ar      23 UNK        -0.1150 
     13 C13        -0.9146  -18.7755  -47.8883 C.ar      23 UNK        -0.0193 
     14 C14        -1.3189  -18.0787  -46.7454 C.ar      23 UNK        -0.1150 
     15 C15         0.5515  -19.1448  -48.1085 C.3       23 UNK        -0.0205 
     16 S16         1.3812  -19.7944  -46.6139 S.3       23 UNK        -0.2404 
     17 C17         1.8167  -21.5009  -47.0851 C.3       23 UNK        -0.0398 
     18 CA          0.8374  -22.6120  -46.6313 C.3       11 UNK         0.1400 
     19 N           0.6206  -22.6941  -45.1818 N.am      11 UNK        -0.5000 
     20 C           0.2503  -23.8314  -44.5691 C.2       10 UNK         0.5000 
     21 O           0.0816  -24.8977  -45.1632 O.2       10 UNK        -0.5000 
     22 CA         -0.0170  -23.7706  -43.0531 C.3       10 UNK         0.1400 
     23 CB          1.3029  -23.7232  -42.2687 C.3       10 UNK        -0.1800 
     24 N          -0.8533  -22.6376  -42.6627 N.am      10 UNK        -0.5000 
     25 C          -2.1081  -22.4234  -43.0828 C.2       9 UNK         0.5000 
     26 O          -2.7275  -23.2103  -43.7983 O.2       9 UNK        -0.5000 
     27 CA         -2.7740  -21.0921  -42.6679 C.3       9 UNK         0.1400 
     28 CB         -3.7215  -21.3164  -41.4805 C.3       9 UNK        -0.1800 
     29 N          -1.8399  -20.0072  -42.3367 N.am      9 UNK        -0.5000 
     30 C          -0.8887  -19.5350  -43.1533 C.2       8 UNK         0.5000 
     31 O          -0.6785  -19.9993  -44.2742 O.2       8 UNK        -0.5000 
     32 CA          0.0005  -18.4066  -42.6074 C.3       8 UNK         0.1400 
     33 CB          0.7683  -18.8677  -41.3501 C.3       8 UNK        -0.1800 
     34 N           0.9466  -17.9906  -43.6409 N.am      8 UNK        -0.5000 
     35 C           1.6636  -16.8630  -43.6243 C.2       7 UNK         0.5000 
     36 O           1.5704  -16.0063  -42.7385 O.2       7 UNK        -0.5000 
     37 CA          2.6782  -16.6707  -44.7644 C.3       7 UNK         0.1400 
     38 CB          2.0435  -16.0445  -46.0135 C.3       7 UNK        -0.1800 
     39 N           3.7194  -15.7818  -44.2756 N.am      7 UNK        -0.5000 
     40 C           5.0234  -15.8314  -44.5609 C.2       6 UNK         0.5000 
     41 O           5.5220  -16.6060  -45.3781 O.2       6 UNK        -0.5000 
     42 CA          5.9268  -14.8594  -43.7738 C.3       6 UNK         0.1400 
     43 CB          6.1430  -13.5639  -44.5711 C.3       6 UNK        -0.1800 
     44 N           5.3676  -14.5184  -42.4637 N.am      6 UNK        -0.5000 
     45 C           5.2225  -15.3637  -41.4354 C.2       5 UNK         0.5000 
     46 O           5.6942  -16.5010  -41.4201 O.2       5 UNK        -0.5000 
     47 CA          4.3615  -14.8885  -40.2476 C.3       5 UNK         0.1400 
     48 CB          5.2061  -14.1290  -39.2065 C.3       5 UNK        -0.1800 
     49 N           3.1600  -14.1328  -40.6393 N.am      5 UNK        -0.5000 
     50 C           3.0743  -12.9086  -41.1764 C.2       4 UNK         0.5000 
     51 O           4.0504  -12.1942  -41.4199 O.2       4 UNK        -0.5000 
     52 CA          1.6548  -12.4051  -41.4967 C.3       4 UNK         0.1400 
     53 CB          1.0061  -11.7929  -40.2454 C.3       4 UNK        -0.1800 
     54 N           1.6692  -11.4001  -42.5601 N.am      4 UNK        -0.5000 
     55 C           1.8974  -11.6707  -43.8496 C.2       3 UNK         0.5000 
     56 O           2.0466  -12.8101  -44.2994 O.2       3 UNK        -0.5000 
     57 CA          1.9838  -10.4670  -44.7966 C.3       3 UNK         0.1400 
     58 CB          3.4297   -9.9542  -44.9109 C.3       3 UNK        -0.1800 
     59 N           1.5012  -10.8950  -46.1014 N.am      3 UNK        -0.5000 
     60 C           0.9412  -10.1200  -47.0366 C.2       2 UNK         0.5000 
     61 O           0.8443   -8.8957  -46.9455 O.2       2 UNK        -0.5000 
     62 CA          0.3706  -10.8419  -48.2743 C.3       2 UNK         0.1400 
     63 CB          1.4097  -10.8817  -49.4048 C.3       2 UNK        -0.1800 
     64 N          -0.0535  -12.2096  -47.9684 N.am      2 UNK        -0.5000 
     65 C          -1.1371  -12.5390  -47.2544 C.2       1 UNK         0.5000 
     66 O          -1.9887  -11.7207  -46.9024 O.2       1 UNK        -0.5000 
     67 C          -0.4908  -22.5997  -47.4085 C.2       11 UNK         0.5000 
     68 O          -0.5291  -23.1250  -48.5198 O.2       11 UNK        -0.5000 
     69 N          -1.5638  -22.0735  -46.7980 N.am      12 UNK        -0.5000 
     70 CA         -2.9247  -22.1233  -47.3377 C.3       12 UNK         0.1400 
     71 CB         -3.8757  -21.3132  -46.4427 C.3       12 UNK        -0.1800 
     72 C          -3.4281  -23.5676  -47.4920 C.2       12 UNK         0.5000 
     73 O          -3.9519  -23.9203  -48.5498 O.2       12 UNK        -0.5000 
     74 N          -3.2151  -24.3783  -46.4457 N.am      13 UNK        -0.5000 
     75 CA         -3.5238  -25.8050  -46.4128 C.3       13 UNK         0.1400 
     76 CB         -3.3599  -26.3319  -44.9793 C.3       13 UNK        -0.1800 
     77 C          -2.6656  -26.6171  -47.3974 C.2       13 UNK         0.5000 
     78 O          -3.2083  -27.4646  -48.1061 O.2       13 UNK        -0.5000 
     79 N          -1.3567  -26.3259  -47.4525 N.am      14 UNK        -0.5000 
     80 CA         -0.4037  -26.9715  -48.3611 C.3       14 UNK         0.1400 
     81 CB          1.0265  -26.5423  -48.0035 C.3       14 UNK        -0.1800 
     82 C          -0.6979  -26.6874  -49.8465 C.2       14 UNK         0.5000 
     83 O          -0.5990  -27.5962  -50.6714 O.2       14 UNK        -0.5000 
     84 N          -1.0833  -25.4418  -50.1537 N.am      15 UNK        -0.5000 
     85 CA         -1.5039  -25.0003  -51.4842 C.3       15 UNK         0.1400 
     86 CB         -1.4200  -23.4667  -51.5379 C.3       15 UNK        -0.1800 
     87 C          -2.9281  -25.4519  -51.8613 C.2       15 UNK         0.5000 
     88 O          -3.3085  -25.3227  -53.0271 O.2       15 UNK        -0.5000 
     89 N          -3.7031  -25.9065  -50.8634 N.am      16 UNK        -0.5000 
     90 CA         -5.1332  -26.2293  -50.9138 C.3       16 UNK         0.1400 
     91 CB         -5.3651  -27.5163  -51.7308 C.3       16 UNK        -0.1800 
     92 C          -5.9771  -25.0369  -51.4133 C.2       16 UNK         0.5000 
     93 O          -6.9234  -25.2252  -52.1803 O.2       16 UNK        -0.5000 
     94 N          -5.5594  -23.8220  -51.0224 N.am      17 UNK        -0.5000 
     95 CA         -5.9740  -22.4937  -51.4933 C.3       17 UNK         0.1400 
     96 CB         -7.4574  -22.2254  -51.1756 C.3       17 UNK        -0.1800 
     97 C          -5.6647  -22.2098  -52.9806 C.2       17 UNK         0.5000 
     98 O          -5.1678  -21.1287  -53.3024 O.2       17 UNK        -0.5000 
     99 N          -5.9712  -23.1743  -53.8546 N.am      18 UNK        -0.5000 
    100 CA        -5.9187  -23.0942  -55.3113 C.3       18 UNK         0.1400 
    101 CB        -6.4460  -24.4096  -55.9038 C.3       18 UNK        -0.1800 
    102 C         -4.5330  -22.7612  -55.8855 C.2       18 UNK         0.5000 
    103 O         -4.4412  -21.8894  -56.7500 O.2       18 UNK        -0.5000 
    104 N         -3.4766  -23.4269  -55.3943 N.am      19 UNK        -0.5000 
    105 CA        -2.1099  -23.2496  -55.9047 C.3       19 UNK         0.1400 
    106 CB        -1.2244  -24.4154  -55.4417 C.3       19 UNK        -0.1800 
    107 C         -1.4812  -21.8938  -55.5241 C.2       19 UNK         0.5000 
    108 O         -0.5432  -21.4530  -56.1888 O.2       19 UNK        -0.5000 
    109 N         -2.0232  -21.2502  -54.4828 N.am      20 UNK        -0.5000 
    110 CA        -1.6607  -19.9038  -54.0408 C.3       20 UNK         0.1400 
    111 CB        -1.7587  -19.8585  -52.5095 C.3       20 UNK        -0.1800 
    112 C         -2.5540  -18.8197  -54.6781 C.2       20 UNK         0.5000 
    113 O         -2.3135  -17.6346  -54.4458 O.2       20 UNK        -0.5000 
    114 N         -3.5650  -19.2389  -55.4565 N.am      21 UNK        -0.5000 
    115 CA        -4.5978  -18.4233  -56.1004 C.3       21 UNK         0.1400 
    116 CB        -3.9850  -17.4861  -57.1624 C.3       21 UNK        -0.1800 
    117 C         -5.5099  -17.6904  -55.0928 C.2       21 UNK         0.5000 
    118 O         -6.0047  -16.6015  -55.3914 O.2       21 UNK        -0.5000 
    119 N         -5.7350  -18.3070  -53.9246 N.am      22 UNK        -0.5000 
    120 CA        -6.6320  -17.7965  -52.8745 C.3       22 UNK         0.1400 
    121 C         -8.1429  -18.0560  -53.1519 C.2       22 UNK         0.5000 
    122 N         -8.5144  -18.8675  -54.1353 N.am      22 UNK        -0.7600 
    123 O         -8.9970  -17.5035  -52.4642 O.2       22 UNK        -0.5000 
    124 C124       -6.2444  -18.3277  -51.4726 C.3       23 UNK        -0.0398 
    125 S125       -4.5760  -17.8311  -50.9318 S.3       23 UNK        -0.2404 
    126 C126       -4.2630  -19.1308  -49.7002 C.3       23 UNK        -0.0205 
    127 H127       -0.3673  -16.9127  -50.2500 H         1 UNK         0.0600 
    128 H128       -2.0208  -16.3174  -50.0836 H         1 UNK         0.0600 
    129 H129       -0.8620  -15.4363  -51.0818 H         1 UNK         0.0600 
    130 H130       -2.4131  -15.2034  -48.2007 H         1 UNK         0.3000 
    131 H131       -0.3103  -14.2974  -46.4317 H         1 UNK         0.0600 
    132 H132       -3.3437  -14.4115  -46.2430 H         1 UNK         0.0800 
    133 H133       -2.4517  -13.4340  -45.1144 H         1 UNK         0.0800 
    134 H134       -4.0928  -16.5632  -45.3991 H         1 UNK         0.0800 
    135 H135       -3.1731  -17.7481  -44.5075 H         1 UNK         0.0800 
    136 H136       -4.6210  -17.7174  -47.4199 H         1 UNK         0.1150 
    137 H137       -1.5780  -19.6483  -49.7358 H         1 UNK         0.1150 
    138 H138       -0.5988  -17.8501  -45.9770 H         1 UNK         0.1150 
    139 H139        0.6409  -19.8592  -48.9274 H         1 UNK         0.0800 
    140 H140        1.0813  -18.2474  -48.4302 H         1 UNK         0.0800 
    141 H141        1.9791  -21.5546  -48.1627 H         1 UNK         0.0800 
    142 H142        2.7941  -21.7044  -46.6460 H         1 UNK         0.0800 
    143 H143        1.3295  -23.5418  -46.9219 H         1 UNK         0.0600 
    144 H144        0.6509  -21.8241  -44.6655 H         1 UNK         0.3000 
    145 H145       -0.5462  -24.6843  -42.7745 H         1 UNK         0.0600 
    146 H146        1.1250  -23.7768  -41.1945 H         1 UNK         0.0600 
    147 H147        1.9442  -24.5651  -42.5330 H         1 UNK         0.0600 
    148 H148        1.8613  -22.8083  -42.4713 H         1 UNK         0.0600 
    149 H149       -0.4237  -21.9353  -42.0802 H         1 UNK         0.3000 
    150 H150       -3.3694  -20.7534  -43.5172 H         1 UNK         0.0600 
    151 H151       -4.4503  -22.0970  -41.7035 H         1 UNK         0.0600 
    152 H152       -4.2810  -20.4110  -41.2444 H         1 UNK         0.0600 
    153 H153       -3.1782  -21.6205  -40.5850 H         1 UNK         0.0600 
    154 H154       -1.9493  -19.5903  -41.4236 H         1 UNK         0.3000 
    155 H155       -0.6462  -17.5629  -42.3582 H         1 UNK         0.0600 
    156 H156        1.3903  -18.0695  -40.9451 H         1 UNK         0.0600 
    157 H157        1.4186  -19.7157  -41.5686 H         1 UNK         0.0600 
    158 H158        0.0890  -19.1700  -40.5527 H         1 UNK         0.0600 
    159 H159        1.0110  -18.6340  -44.4227 H         1 UNK         0.3000 
    160 H160        3.1049  -17.6441  -45.0153 H         1 UNK         0.0600 
    161 H161        1.6976  -15.0326  -45.8103 H         1 UNK         0.0600 
    162 H162        1.1935  -16.6222  -46.3693 H         1 UNK         0.0600 
    163 H163        2.7602  -15.9895  -46.8328 H         1 UNK         0.0600 
    164 H164        3.3959  -15.1313  -43.5705 H         1 UNK         0.3000 
    165 H165        6.8937  -15.3434  -43.6223 H         1 UNK         0.0600 
    166 H166        5.2034  -13.0345  -44.7373 H         1 UNK         0.0600 
    167 H167        6.8214  -12.8879  -44.0502 H         1 UNK         0.0600 
    168 H168        6.5795  -13.7744  -45.5483 H         1 UNK         0.0600 
    169 H169        4.9711  -13.5890  -42.3577 H         1 UNK         0.3000 
    170 H170        3.9861  -15.7903  -39.7612 H         1 UNK         0.0600 
    171 H171        6.0124  -14.7595  -38.8297 H         1 UNK         0.0600 
    172 H172        5.6663  -13.2333  -39.6241 H         1 UNK         0.0600 
    173 H173        4.6013  -13.8289  -38.3508 H         1 UNK         0.0600 
    174 H174        2.2978  -14.6537  -40.5467 H         1 UNK         0.3000 
    175 H175        1.0495  -13.2524  -41.8275 H         1 UNK         0.0600 
    176 H176        1.5742  -10.9388  -39.8743 H         1 UNK         0.0600 
    177 H177       -0.0102  -11.4566  -40.4522 H         1 UNK         0.0600 
    178 H178        0.9467  -12.5230  -39.4372 H         1 UNK         0.0600 
    179 H179        1.6006  -10.4372  -42.2650 H         1 UNK         0.3000 
    180 H180        1.3399   -9.6719  -44.4144 H         1 UNK         0.0600 
    181 H181        4.0963  -10.7212  -45.3073 H         1 UNK         0.0600 
    182 H182        3.8165   -9.6547  -43.9361 H         1 UNK         0.0600 
    183 H183        3.4911   -9.0856  -45.5666 H         1 UNK         0.0600 
    184 H184        1.5202  -11.8981  -46.2347 H         1 UNK         0.3000 
    185 H185       -0.4965  -10.2771  -48.6228 H         1 UNK         0.0600 
    186 H186        1.7325   -9.8752  -49.6741 H         1 UNK         0.0600 
    187 H187        2.2974  -11.4459  -49.1159 H         1 UNK         0.0600 
    188 H188        0.9973  -11.3421  -50.3029 H         1 UNK         0.0600 
    189 H189        0.5473  -12.9660  -48.2844 H         1 UNK         0.3000 
    190 H190       -1.4363  -21.6251  -45.9003 H         1 UNK         0.3000 
    191 H191       -2.9028  -21.6662  -48.3280 H         1 UNK         0.0600 
    192 H192       -4.7933  -21.0700  -46.9790 H         1 UNK         0.0600 
    193 H193       -3.4221  -20.3768  -46.1229 H         1 UNK         0.0600 
    194 H194       -4.1634  -21.8593  -45.5451 H         1 UNK         0.0600 
    195 H195       -2.8223  -23.9816  -45.5967 H         1 UNK         0.3000 
    196 H196       -4.5695  -25.9272  -46.7026 H         1 UNK         0.0600 
    197 H197       -3.5958  -27.3952  -44.9234 H         1 UNK         0.0600 
    198 H198       -4.0279  -25.8131  -44.2914 H         1 UNK         0.0600 
    199 H199       -2.3404  -26.2002  -44.6149 H         1 UNK         0.0600 
    200 H200       -0.9789  -25.6454  -46.8021 H         1 UNK         0.3000 
    201 H201       -0.4809  -28.0499  -48.2075 H         1 UNK         0.0600 
    202 H202        1.2555  -26.7534  -46.9588 H         1 UNK         0.0600 
    203 H203        1.1795  -25.4774  -48.1750 H         1 UNK         0.0600 
    204 H204        1.7562  -27.0783  -48.6115 H         1 UNK         0.0600 
    205 H205       -1.0726  -24.7283  -49.4292 H         1 UNK         0.3000 
    206 H206       -0.8165  -25.4148  -52.2237 H         1 UNK         0.0600 
    207 H207       -0.4023  -23.1193  -51.3597 H         1 UNK         0.0600 
    208 H208       -1.7258  -23.0895  -52.5115 H         1 UNK         0.0600 
    209 H209       -2.0688  -23.0022  -50.7938 H         1 UNK         0.0600 
    210 H210       -3.2892  -25.9481  -49.9415 H         1 UNK         0.3000 
    211 H211       -5.4446  -26.4209  -49.8860 H         1 UNK         0.0600 
    212 H212       -5.1187  -27.3770  -52.7840 H         1 UNK         0.0600 
    213 H213       -6.4075  -27.8319  -51.6767 H         1 UNK         0.0600 
    214 H214       -4.7576  -28.3374  -51.3499 H         1 UNK         0.0600 
    215 H215       -4.8030  -23.8140  -50.3434 H         1 UNK         0.3000 
    216 H216       -5.3828  -21.7841  -50.9150 H         1 UNK         0.0600 
    217 H217       -8.1191  -22.9248  -51.6866 H         1 UNK         0.0600 
    218 H218       -7.7553  -21.2240  -51.4860 H         1 UNK         0.0600 
    219 H219       -7.6493  -22.3051  -50.1056 H         1 UNK         0.0600 
    220 H220       -6.3642  -24.0273  -53.4642 H         1 UNK         0.3000 
    221 H221       -6.5963  -22.2928  -55.6124 H         1 UNK         0.0600 
    222 H222       -5.8432  -25.2621  -55.5877 H         1 UNK         0.0600 
    223 H223       -7.4749  -24.5959  -55.5951 H         1 UNK         0.0600 
    224 H224       -6.4339  -24.3824  -56.9943 H         1 UNK         0.0600 
    225 H225       -3.6099  -24.1140  -54.6575 H         1 UNK         0.3000 
    226 H226       -2.1548  -23.2864  -56.9954 H         1 UNK         0.0600 
    227 H227       -1.6645  -25.3774  -55.7047 H         1 UNK         0.0600 
    228 H228       -0.2418  -24.3671  -55.9124 H         1 UNK         0.0600 
    229 H229       -1.0678  -24.4004  -54.3654 H         1 UNK         0.0600 
    230 H230       -2.8149  -21.6740  -54.0190 H         1 UNK         0.3000 
    231 H231       -0.6292  -19.6822  -54.3219 H         1 UNK         0.0600 
    232 H232       -2.7589  -20.1273  -52.1724 H         1 UNK         0.0600 
    233 H233       -1.5380  -18.8612  -52.1262 H         1 UNK         0.0600 
    234 H234       -1.0506  -20.5470  -52.0488 H         1 UNK         0.0600 
    235 H235       -3.6660  -20.2359  -55.6007 H         1 UNK         0.3000 
    236 H236       -5.2448  -19.1269  -56.6259 H         1 UNK         0.0600 
    237 H237       -3.3511  -18.0383  -57.8562 H         1 UNK         0.0600 
    238 H238       -4.7640  -17.0021  -57.7525 H         1 UNK         0.0600 
    239 H239       -3.3823  -16.6979  -56.7106 H         1 UNK         0.0600 
    240 H240       -5.3166  -19.2161  -53.7519 H         1 UNK         0.3000 
    241 H241       -6.5230  -16.7107  -52.8437 H         1 UNK         0.0600 
    242 H242       -7.8257  -19.3255  -54.7090 H         1 UNK         0.3800 
    243 H243       -9.4955  -19.0208  -54.3079 H         1 UNK         0.3800 
    244 H244       -6.9455  -17.9698  -50.7164 H         1 UNK         0.0800 
    245 H245       -6.3089  -19.4145  -51.4595 H         1 UNK         0.0800 
    246 H246       -3.9610  -20.0474  -50.2056 H         1 UNK         0.0800 
    247 H247       -5.1881  -19.3662  -49.1715 H         1 UNK         0.0800 
@<TRIPOS>BOND
     1    1    2 1    
     2    1  127 1    
     3    1  128 1    
     4    1  129 1    
     5    2    3 2    
     6    2    4 am   BACKBONE|DICT|INTERRES
     7    4    5 1    
     8    4  130 1    
     9    5    6 1    
    10    5   65 1    
    11    5  131 1    
    12    6    7 1    
    13    6  132 1    
    14    6  133 1    
    15    7    8 1    
    16    8    9 1    
    17    8  134 1    
    18    8  135 1    
    19    9   10 ar   
    20    9   14 ar   
    21   10   11 ar   
    22   10  136 1    
    23   11   12 ar   
    24   11  126 1    
    25   12   13 ar   
    26   12  137 1    
    27   13   14 ar   
    28   13   15 1    
    29   14  138 1    
    30   15   16 1    
    31   15  139 1    
    32   15  140 1    
    33   16   17 1    
    34   17   18 1    
    35   17  141 1    
    36   17  142 1    
    37   18   19 1    
    38   18   67 1    
    39   18  143 1    
    40   19   20 am   BACKBONE|DICT|INTERRES
    41   19  144 1    
    42   20   21 2    
    43   20   22 1    
    44   22   23 1    
    45   22   24 1    
    46   22  145 1    
    47   23  146 1    
    48   23  147 1    
    49   23  148 1    
    50   24   25 am   BACKBONE|DICT|INTERRES
    51   24  149 1    
    52   25   26 2    
    53   25   27 1    
    54   27   28 1    
    55   27   29 1    
    56   27  150 1    
    57   28  151 1    
    58   28  152 1    
    59   28  153 1    
    60   29   30 am   BACKBONE|DICT|INTERRES
    61   29  154 1    
    62   30   31 2    
    63   30   32 1    
    64   32   33 1    
    65   32   34 1    
    66   32  155 1    
    67   33  156 1    
    68   33  157 1    
    69   33  158 1    
    70   34   35 am   BACKBONE|DICT|INTERRES
    71   34  159 1    
    72   35   36 2    
    73   35   37 1    
    74   37   38 1    
    75   37   39 1    
    76   37  160 1    
    77   38  161 1    
    78   38  162 1    
    79   38  163 1    
    80   39   40 am   BACKBONE|DICT|INTERRES
    81   39  164 1    
    82   40   41 2    
    83   40   42 1    
    84   42   43 1    
    85   42   44 1    
    86   42  165 1    
    87   43  166 1    
    88   43  167 1    
    89   43  168 1    
    90   44   45 am   BACKBONE|DICT|INTERRES
    91   44  169 1    
    92   45   46 2    
    93   45   47 1    
    94   47   48 1    
    95   47   49 1    
    96   47  170 1    
    97   48  171 1    
    98   48  172 1    
    99   48  173 1    
   100   49   50 am   BACKBONE|DICT|INTERRES
   101   49  174 1    
   102   50   51 2    
   103   50   52 1    
   104   52   53 1    
   105   52   54 1    
   106   52  175 1    
   107   53  176 1    
   108   53  177 1    
   109   53  178 1    
   110   54   55 am   BACKBONE|DICT|INTERRES
   111   54  179 1    
   112   55   56 2    
   113   55   57 1    
   114   57   58 1    
   115   57   59 1    
   116   57  180 1    
   117   58  181 1    
   118   58  182 1    
   119   58  183 1    
   120   59   60 am   BACKBONE|DICT|INTERRES
   121   59  184 1    
   122   60   61 2    
   123   60   62 1    
   124   62   63 1    
   125   62   64 1    
   126   62  185 1    
   127   63  186 1    
   128   63  187 1    
   129   63  188 1    
   130   64   65 am   BACKBONE|DICT|INTERRES
   131   64  189 1    
   132   65   66 2    
   133   67   68 2    
   134   67   69 am   BACKBONE|DICT|INTERRES
   135   69   70 1    
   136   69  190 1    
   137   70   71 1    
   138   70   72 1    
   139   70  191 1    
   140   71  192 1    
   141   71  193 1    
   142   71  194 1    
   143   72   73 2    
   144   72   74 am   BACKBONE|DICT|INTERRES
   145   74   75 1    
   146   74  195 1    
   147   75   76 1    
   148   75   77 1    
   149   75  196 1    
   150   76  197 1    
   151   76  198 1    
   152   76  199 1    
   153   77   78 2    
   154   77   79 am   BACKBONE|DICT|INTERRES
   155   79   80 1    
   156   79  200 1    
   157   80   81 1    
   158   80   82 1    
   159   80  201 1    
   160   81  202 1    
   161   81  203 1    
   162   81  204 1    
   163   82   83 2    
   164   82   84 am   BACKBONE|DICT|INTERRES
   165   84   85 1    
   166   84  205 1    
   167   85   86 1    
   168   85   87 1    
   169   85  206 1    
   170   86  207 1    
   171   86  208 1    
   172   86  209 1    
   173   87   88 2    
   174   87   89 am   BACKBONE|DICT|INTERRES
   175   89   90 1    
   176   89  210 1    
   177   90   91 1    
   178   90   92 1    
   179   90  211 1    
   180   91  212 1    
   181   91  213 1    
   182   91  214 1    
   183   92   93 2    
   184   92   94 am   BACKBONE|DICT|INTERRES
   185   94   95 1    
   186   94  215 1    
   187   95   96 1    
   188   95   97 1    
   189   95  216 1    
   190   96  217 1    
   191   96  218 1    
   192   96  219 1    
   193   97   98 2    
   194   97   99 am   BACKBONE|DICT|INTERRES
   195   99  100 1    
   196   99  220 1    
   197  100  101 1    
   198  100  102 1    
   199  100  221 1    
   200  101  222 1    
   201  101  223 1    
   202  101  224 1    
   203  102  103 2    
   204  102  104 am   BACKBONE|DICT|INTERRES
   205  104  105 1    
   206  104  225 1    
   207  105  106 1    
   208  105  107 1    
   209  105  226 1    
   210  106  227 1    
   211  106  228 1    
   212  106  229 1    
   213  107  108 2    
   214  107  109 am   BACKBONE|DICT|INTERRES
   215  109  110 1    
   216  109  230 1    
   217  110  111 1    
   218  110  112 1    
   219  110  231 1    
   220  111  232 1    
   221  111  233 1    
   222  111  234 1    
   223  112  113 2    
   224  112  114 am   BACKBONE|DICT|INTERRES
   225  114  115 1    
   226  114  235 1    
   227  115  116 1    
   228  115  117 1    
   229  115  236 1    
   230  116  237 1    
   231  116  238 1    
   232  116  239 1    
   233  117  118 2    
   234  117  119 am   BACKBONE|DICT|INTERRES
   235  119  120 1    
   236  119  240 1    
   237  120  121 1    
   238  120  124 1    
   239  120  241 1    
   240  121  122 am   BACKBONE|DICT|INTERRES
   241  121  123 2    
   242  122  242 1    
   243  122  243 1    
   244  124  125 1    
   245  124  244 1    
   246  124  245 1    
   247  125  126 1    
   248  126  246 1    
   249  126  247 1    
@<TRIPOS>SUBSTRUCTURE
     1 UNK         1 GROUP             0       ****    0 ROOT    
