@<TRIPOS>MOLECULE
3R540
247   249    1
SMALL
USER_CHARGES


@<TRIPOS>ATOM
      1 CA          1.1607  -17.2957  -47.4138 C.3       0 UNK        -0.1800 
      2 C           0.9975  -16.1859  -48.4389 C.2       0 UNK         0.5000 
      3 O          -0.0611  -15.5592  -48.5125 O.2       0 UNK        -0.5000 
      4 N           2.0485  -15.9579  -49.2337 N.am      1 UNK        -0.5000 
      5 CA          2.0913  -15.0200  -50.3570 C.3       1 UNK         0.1400 
      6 C6          3.4329  -15.1017  -51.1276 C.3       23 UNK        -0.0398 
      7 S7          4.0050  -16.7839  -51.5619 S.3       23 UNK        -0.2404 
      8 C8          2.5678  -17.5394  -52.3933 C.3       23 UNK        -0.0205 
      9 C9          1.7971  -18.4940  -51.4875 C.ar      23 UNK        -0.0193 
     10 C10         0.4348  -18.2972  -51.2360 C.ar      23 UNK        -0.1150 
     11 C11        -0.2943  -19.2243  -50.4829 C.ar      23 UNK        -0.0193 
     12 C12         0.3599  -20.3426  -49.9602 C.ar      23 UNK        -0.1150 
     13 C13         1.7240  -20.5407  -50.1817 C.ar      23 UNK        -0.0193 
     14 C14         2.4348  -19.6171  -50.9514 C.ar      23 UNK        -0.1150 
     15 C15         2.4149  -21.7825  -49.6417 C.3       23 UNK        -0.0205 
     16 S16         3.0955  -21.5609  -47.9664 S.3       23 UNK        -0.2404 
     17 C17         1.6102  -21.4657  -46.9081 C.3       23 UNK        -0.0398 
     18 CA          1.0890  -22.8464  -46.4261 C.3       11 UNK         0.1400 
     19 N           0.5784  -22.7893  -45.0523 N.am      11 UNK        -0.5000 
     20 C           0.2257  -23.8518  -44.3139 C.2       10 UNK         0.5000 
     21 O           0.2122  -25.0049  -44.7444 O.2       10 UNK        -0.5000 
     22 CA         -0.1831  -23.5817  -42.8559 C.3       10 UNK         0.1400 
     23 CB          1.0585  -23.3480  -41.9812 C.3       10 UNK        -0.1800 
     24 N          -1.0631  -22.4184  -42.7643 N.am      10 UNK        -0.5000 
     25 C          -2.4015  -22.4792  -42.7177 C.2       9 UNK         0.5000 
     26 O          -3.0360  -23.5317  -42.6384 O.2       9 UNK        -0.5000 
     27 CA         -3.1715  -21.1419  -42.7973 C.3       9 UNK         0.1400 
     28 CB         -3.4609  -20.6029  -41.3885 C.3       9 UNK        -0.1800 
     29 N          -2.4901  -20.1002  -43.5691 N.am      9 UNK        -0.5000 
     30 C          -2.0928  -20.2212  -44.8428 C.2       8 UNK         0.5000 
     31 O          -2.2924  -21.2171  -45.5326 O.2       8 UNK        -0.5000 
     32 CA         -1.2703  -19.0681  -45.4317 C.3       8 UNK         0.1400 
     33 CB         -2.1952  -18.0292  -46.0817 C.3       8 UNK        -0.1800 
     34 N          -0.3869  -18.4234  -44.4574 N.am      8 UNK        -0.5000 
     35 C           0.5697  -19.0360  -43.7425 C.2       7 UNK         0.5000 
     36 O           0.7817  -20.2487  -43.7811 O.2       7 UNK        -0.5000 
     37 CA          1.4065  -18.1520  -42.8063 C.3       7 UNK         0.1400 
     38 CB          2.5177  -17.4312  -43.5853 C.3       7 UNK        -0.1800 
     39 N           0.5629  -17.1695  -42.1300 N.am      7 UNK        -0.5000 
     40 C          -0.1015  -17.4032  -40.9903 C.2       6 UNK         0.5000 
     41 O           0.0035  -18.4417  -40.3371 O.2       6 UNK        -0.5000 
     42 CA         -1.0601  -16.2986  -40.5032 C.3       6 UNK         0.1400 
     43 CB         -0.3252  -15.3176  -39.5773 C.3       6 UNK        -0.1800 
     44 N          -1.6897  -15.5494  -41.5928 N.am      6 UNK        -0.5000 
     45 C          -2.5523  -16.0705  -42.4758 C.2       5 UNK         0.5000 
     46 O          -2.9184  -17.2468  -42.4665 O.2       5 UNK        -0.5000 
     47 CA         -3.0596  -15.1286  -43.5848 C.3       5 UNK         0.1400 
     48 CB         -4.2822  -14.3349  -43.1025 C.3       5 UNK        -0.1800 
     49 N          -2.0679  -14.1971  -44.1356 N.am      5 UNK        -0.5000 
     50 C          -0.8408  -14.5013  -44.5799 C.2       4 UNK         0.5000 
     51 O          -0.3278  -15.6137  -44.4617 O.2       4 UNK        -0.5000 
     52 CA         -0.0859  -13.3802  -45.3171 C.3       4 UNK         0.1400 
     53 CB          1.4198  -13.6690  -45.4465 C.3       4 UNK        -0.1800 
     54 N          -0.6534  -13.1870  -46.6510 N.am      4 UNK        -0.5000 
     55 C          -1.7772  -12.5062  -46.9091 C.2       3 UNK         0.5000 
     56 O          -2.4285  -11.9279  -46.0358 O.2       3 UNK        -0.5000 
     57 CA         -2.2576  -12.4871  -48.3757 C.3       3 UNK         0.1400 
     58 CB         -3.3718  -11.4472  -48.6239 C.3       3 UNK        -0.1800 
     59 N          -1.1656  -12.3296  -49.3393 N.am      3 UNK        -0.5000 
     60 C          -0.3352  -11.2842  -49.4745 C.2       2 UNK         0.5000 
     61 O          -0.3873  -10.2660  -48.7828 O.2       2 UNK        -0.5000 
     62 CA          0.7219  -11.4099  -50.5950 C.3       2 UNK         0.1400 
     63 CB          1.9193  -10.4527  -50.4127 C.3       2 UNK        -0.1800 
     64 N           1.1717  -12.7939  -50.8041 N.am      2 UNK        -0.5000 
     65 C           1.8195  -13.5654  -49.9181 C.2       1 UNK         0.5000 
     66 O           2.1996  -13.1770  -48.8113 O.2       1 UNK        -0.5000 
     67 C           0.0765  -23.4620  -47.4175 C.2       11 UNK         0.5000 
     68 O           0.4688  -24.2815  -48.2482 O.2       11 UNK        -0.5000 
     69 N          -1.2120  -23.1104  -47.2904 N.am      12 UNK        -0.5000 
     70 CA         -2.2939  -23.6216  -48.1371 C.3       12 UNK         0.1400 
     71 CB         -3.5890  -22.8431  -47.8584 C.3       12 UNK        -0.1800 
     72 C          -2.5332  -25.1344  -47.9804 C.2       12 UNK         0.5000 
     73 O          -2.9296  -25.7880  -48.9451 O.2       12 UNK        -0.5000 
     74 N          -2.2675  -25.6686  -46.7805 N.am      13 UNK        -0.5000 
     75 CA         -2.3283  -27.1012  -46.4937 C.3       13 UNK         0.1400 
     76 CB         -2.4387  -27.3132  -44.9759 C.3       13 UNK        -0.1800 
     77 C          -1.1193  -27.8636  -47.0692 C.2       13 UNK         0.5000 
     78 O          -1.2526  -29.0438  -47.3952 O.2       13 UNK        -0.5000 
     79 N           0.0303  -27.1842  -47.1852 N.am      14 UNK        -0.5000 
     80 CA          1.2589  -27.7261  -47.7579 C.3       14 UNK         0.1400 
     81 CB          2.4694  -26.9305  -47.2404 C.3       14 UNK        -0.1800 
     82 C           1.2094  -27.7459  -49.2958 C.2       14 UNK         0.5000 
     83 O           1.3684  -28.8138  -49.8890 O.2       14 UNK        -0.5000 
     84 N           0.9848  -26.5773  -49.9110 N.am      15 UNK        -0.5000 
     85 CA          0.9663  -26.3766  -51.3593 C.3       15 UNK         0.1400 
     86 CB          2.3736  -26.5868  -51.9614 C.3       15 UNK        -0.1800 
     87 C           0.4322  -24.9688  -51.6600 C.2       15 UNK         0.5000 
     88 O           1.2168  -24.0233  -51.7421 O.2       15 UNK        -0.5000 
     89 N          -0.8946  -24.8479  -51.7877 N.am      16 UNK        -0.5000 
     90 CA         -1.5960  -23.5940  -52.0713 C.3       16 UNK         0.1400 
     91 CB         -3.1120  -23.8509  -52.0152 C.3       16 UNK        -0.1800 
     92 C          -1.2249  -22.9529  -53.4240 C.2       16 UNK         0.5000 
     93 O          -0.9272  -23.6670  -54.3851 O.2       16 UNK        -0.5000 
     94 N          -1.3098  -21.6186  -53.4733 N.am      17 UNK        -0.5000 
     95 CA         -1.1414  -20.7991  -54.6693 C.3       17 UNK         0.1400 
     96 CB          0.1816  -20.0162  -54.5822 C.3       17 UNK        -0.1800 
     97 C          -2.3880  -19.9108  -54.8197 C.2       17 UNK         0.5000 
     98 O          -3.3999  -20.3934  -55.3293 O.2       17 UNK        -0.5000 
     99 N          -2.3212  -18.6530  -54.3652 N.am      18 UNK        -0.5000 
    100 CA        -3.4119  -17.6805  -54.4168 C.3       18 UNK         0.1400 
    101 CB        -3.4200  -16.9834  -55.7888 C.3       18 UNK        -0.1800 
    102 C         -3.2524  -16.6576  -53.2809 C.2       18 UNK         0.5000 
    103 O         -2.1340  -16.4596  -52.8026 O.2       18 UNK        -0.5000 
    104 N         -4.3769  -16.0299  -52.9055 N.am      19 UNK        -0.5000 
    105 CA        -4.5822  -15.0536  -51.8248 C.3       19 UNK         0.1400 
    106 CB        -3.5108  -13.9447  -51.8227 C.3       19 UNK        -0.1800 
    107 C         -4.7326  -15.6999  -50.4322 C.2       19 UNK         0.5000 
    108 O         -4.2201  -16.7922  -50.1849 O.2       19 UNK        -0.5000 
    109 N         -5.4574  -15.0005  -49.5448 N.am      20 UNK        -0.5000 
    110 CA        -5.8205  -15.4048  -48.1799 C.3       20 UNK         0.1400 
    111 CB        -4.6172  -15.2475  -47.2237 C.3       20 UNK        -0.1800 
    112 C         -6.4867  -16.7979  -48.1379 C.2       20 UNK         0.5000 
    113 O         -7.4869  -17.0043  -48.8289 O.2       20 UNK        -0.5000 
    114 N         -5.9181  -17.7321  -47.3620 N.am      21 UNK        -0.5000 
    115 CA        -6.3924  -19.1101  -47.1984 C.3       21 UNK         0.1400 
    116 CB        -5.5506  -19.8045  -46.1180 C.3       21 UNK        -0.1800 
    117 C         -6.3794  -19.9412  -48.4973 C.2       21 UNK         0.5000 
    118 O         -7.1185  -20.9222  -48.5875 O.2       21 UNK        -0.5000 
    119 N         -5.5668  -19.5298  -49.4791 N.am      22 UNK        -0.5000 
    120 CA        -5.5505  -20.1010  -50.8318 C.3       22 UNK         0.1400 
    121 C         -6.7204  -19.6081  -51.7364 C.2       22 UNK         0.5000 
    122 N         -7.5234  -18.6285  -51.3341 N.am      22 UNK        -0.7600 
    123 O         -6.9064  -20.1299  -52.8317 O.2       22 UNK        -0.5000 
    124 C124       -4.1940  -19.8735  -51.5390 C.3       23 UNK        -0.0398 
    125 S125       -2.7615  -20.5123  -50.6101 S.3       23 UNK        -0.2404 
    126 C126       -1.7833  -19.0165  -50.2353 C.3       23 UNK        -0.0205 
    127 H127        2.1907  -17.6477  -47.3513 H         1 UNK         0.0600 
    128 H128        0.5308  -18.1399  -47.6887 H         1 UNK         0.0600 
    129 H129        0.8634  -16.9405  -46.4300 H         1 UNK         0.0600 
    130 H130        2.8831  -16.5132  -49.1159 H         1 UNK         0.3000 
    131 H131        1.2855  -15.3130  -51.0320 H         1 UNK         0.0600 
    132 H132        3.3711  -14.5229  -52.0508 H         1 UNK         0.0800 
    133 H133        4.2310  -14.6422  -50.5408 H         1 UNK         0.0800 
    134 H134        1.9175  -16.7660  -52.8036 H         1 UNK         0.0800 
    135 H135        2.9301  -18.1077  -53.2511 H         1 UNK         0.0800 
    136 H136       -0.0634  -17.4305  -51.6449 H         1 UNK         0.1150 
    137 H137       -0.2015  -21.0700  -49.3922 H         1 UNK         0.1150 
    138 H138        3.4849  -19.7805  -51.1493 H         1 UNK         0.1150 
    139 H139        1.7253  -22.6221  -49.6528 H         1 UNK         0.0800 
    140 H140        3.2280  -22.0669  -50.3111 H         1 UNK         0.0800 
    141 H141        1.9273  -20.8746  -46.0491 H         1 UNK         0.0800 
    142 H142        0.8305  -20.8707  -47.3782 H         1 UNK         0.0800 
    143 H143        1.9395  -23.5306  -46.3870 H         1 UNK         0.0600 
    144 H144        0.5858  -21.8747  -44.6079 H         1 UNK         0.3000 
    145 H145       -0.6923  -24.4721  -42.4809 H         1 UNK         0.0600 
    146 H146        0.7813  -23.2097  -40.9361 H         1 UNK         0.0600 
    147 H147        1.7349  -24.2025  -42.0280 H         1 UNK         0.0600 
    148 H148        1.6191  -22.4673  -42.2968 H         1 UNK         0.0600 
    149 H149       -0.6222  -21.5122  -42.8675 H         1 UNK         0.3000 
    150 H150       -4.1239  -21.3432  -43.2919 H         1 UNK         0.0600 
    151 H151       -3.9831  -21.3451  -40.7833 H         1 UNK         0.0600 
    152 H152       -4.0914  -19.7143  -41.4287 H         1 UNK         0.0600 
    153 H153       -2.5414  -20.3367  -40.8649 H         1 UNK         0.0600 
    154 H154       -2.3227  -19.2196  -43.0952 H         1 UNK         0.3000 
    155 H155       -0.6349  -19.4894  -46.2098 H         1 UNK         0.0600 
    156 H156       -1.6462  -17.1541  -46.4294 H         1 UNK         0.0600 
    157 H157       -2.9635  -17.6961  -45.3867 H         1 UNK         0.0600 
    158 H158       -2.7043  -18.4542  -46.9465 H         1 UNK         0.0600 
    159 H159       -0.4632  -17.4112  -44.3820 H         1 UNK         0.3000 
    160 H160        1.8818  -18.8005  -42.0672 H         1 UNK         0.0600 
    161 H161        2.1160  -16.7430  -44.3290 H         1 UNK         0.0600 
    162 H162        3.1533  -18.1460  -44.1096 H         1 UNK         0.0600 
    163 H163        3.1575  -16.8581  -42.9143 H         1 UNK         0.0600 
    164 H164        0.3622  -16.3213  -42.6463 H         1 UNK         0.3000 
    165 H165       -1.8527  -16.7824  -39.9281 H         1 UNK         0.0600 
    166 H166        0.4653  -14.7819  -40.1045 H         1 UNK         0.0600 
    167 H167       -1.0108  -14.5802  -39.1593 H         1 UNK         0.0600 
    168 H168        0.1360  -15.8423  -38.7395 H         1 UNK         0.0600 
    169 H169       -1.4351  -14.5772  -41.6870 H         1 UNK         0.3000 
    170 H170       -3.3846  -15.7577  -44.4107 H         1 UNK         0.0600 
    171 H171       -5.0527  -15.0007  -42.7111 H         1 UNK         0.0600 
    172 H172       -4.0187  -13.6338  -42.3098 H         1 UNK         0.0600 
    173 H173       -4.7301  -13.7667  -43.9182 H         1 UNK         0.0600 
    174 H174       -2.4046  -13.2631  -44.3391 H         1 UNK         0.3000 
    175 H175       -0.1971  -12.4613  -44.7377 H         1 UNK         0.0600 
    176 H176        1.9392  -12.8358  -45.9202 H         1 UNK         0.0600 
    177 H177        1.8743  -13.8229  -44.4671 H         1 UNK         0.0600 
    178 H178        1.6143  -14.5605  -46.0417 H         1 UNK         0.0600 
    179 H179       -0.2109  -13.6989  -47.4063 H         1 UNK         0.3000 
    180 H180       -2.6746  -13.4741  -48.5762 H         1 UNK         0.0600 
    181 H181       -3.6644  -11.4103  -49.6719 H         1 UNK         0.0600 
    182 H182       -4.2644  -11.6885  -48.0457 H         1 UNK         0.0600 
    183 H183       -3.0589  -10.4435  -48.3344 H         1 UNK         0.0600 
    184 H184       -0.9972  -13.1301  -49.9315 H         1 UNK         0.3000 
    185 H185        0.2130  -11.1173  -51.5146 H         1 UNK         0.0600 
    186 H186        2.6457  -10.5717  -51.2165 H         1 UNK         0.0600 
    187 H187        1.5919   -9.4126  -50.4245 H         1 UNK         0.0600 
    188 H188        2.4346  -10.6193  -49.4665 H         1 UNK         0.0600 
    189 H189        0.9122  -13.1966  -51.6943 H         1 UNK         0.3000 
    190 H190       -1.4893  -22.4474  -46.5676 H         1 UNK         0.3000 
    191 H191       -2.0070  -23.4393  -49.1718 H         1 UNK         0.0600 
    192 H192       -4.3842  -23.1488  -48.5394 H         1 UNK         0.0600 
    193 H193       -3.4446  -21.7714  -47.9925 H         1 UNK         0.0600 
    194 H194       -3.9452  -23.0053  -46.8404 H         1 UNK         0.0600 
    195 H195       -1.9132  -25.0700  -46.0476 H         1 UNK         0.3000 
    196 H196       -3.2295  -27.5103  -46.9557 H         1 UNK         0.0600 
    197 H197       -2.5496  -28.3720  -44.7391 H         1 UNK         0.0600 
    198 H198       -3.3065  -26.7958  -44.5664 H         1 UNK         0.0600 
    199 H199       -1.5546  -26.9529  -44.4499 H         1 UNK         0.0600 
    200 H200        0.0507  -26.2141  -46.9003 H         1 UNK         0.3000 
    201 H201        1.3754  -28.7563  -47.4143 H         1 UNK         0.0600 
    202 H202        2.5208  -26.9582  -46.1517 H         1 UNK         0.0600 
    203 H203        2.4369  -25.8846  -47.5442 H         1 UNK         0.0600 
    204 H204        3.4008  -27.3511  -47.6212 H         1 UNK         0.0600 
    205 H205        0.8310  -25.7414  -49.3476 H         1 UNK         0.3000 
    206 H206        0.2857  -27.1030  -51.8081 H         1 UNK         0.0600 
    207 H207        2.6973  -27.6240  -51.8807 H         1 UNK         0.0600 
    208 H208        2.3855  -26.3315  -53.0218 H         1 UNK         0.0600 
    209 H209        3.1195  -25.9647  -51.4651 H         1 UNK         0.0600 
    210 H210       -1.4713  -25.6714  -51.6962 H         1 UNK         0.3000 
    211 H211       -1.3189  -22.8924  -51.2841 H         1 UNK         0.0600 
    212 H212       -3.4160  -24.6067  -52.7403 H         1 UNK         0.0600 
    213 H213       -3.6767  -22.9448  -52.2366 H         1 UNK         0.0600 
    214 H214       -3.4259  -24.1886  -51.0289 H         1 UNK         0.0600 
    215 H215       -1.5962  -21.1216  -52.6394 H         1 UNK         0.3000 
    216 H216       -1.0988  -21.4280  -55.5609 H         1 UNK         0.0600 
    217 H217        0.3154  -19.3729  -55.4527 H         1 UNK         0.0600 
    218 H218        1.0334  -20.6956  -54.5465 H         1 UNK         0.0600 
    219 H219        0.2276  -19.3894  -53.6952 H         1 UNK         0.0600 
    220 H220       -1.4848  -18.3177  -53.9046 H         1 UNK         0.3000 
    221 H221       -4.3623  -18.1989  -54.2707 H         1 UNK         0.0600 
    222 H222       -2.4791  -16.4656  -55.9792 H         1 UNK         0.0600 
    223 H223       -3.5772  -17.6992  -56.5958 H         1 UNK         0.0600 
    224 H224       -4.2205  -16.2454  -55.8515 H         1 UNK         0.0600 
    225 H225       -5.2288  -16.2946  -53.3798 H         1 UNK         0.3000 
    226 H226       -5.5370  -14.5801  -52.0586 H         1 UNK         0.0600 
    227 H227       -3.3469  -13.5463  -52.8239 H         1 UNK         0.0600 
    228 H228       -3.8214  -13.1134  -51.1925 H         1 UNK         0.0600 
    229 H229       -2.5547  -14.3011  -51.4385 H         1 UNK         0.0600 
    230 H230       -5.8689  -14.1308  -49.8522 H         1 UNK         0.3000 
    231 H231       -6.5898  -14.7066  -47.8468 H         1 UNK         0.0600 
    232 H232       -4.8712  -15.5634  -46.2121 H         1 UNK         0.0600 
    233 H233       -4.3256  -14.2020  -47.1473 H         1 UNK         0.0600 
    234 H234       -3.7477  -15.8180  -47.5530 H         1 UNK         0.0600 
    235 H235       -5.0852  -17.4820  -46.8519 H         1 UNK         0.3000 
    236 H236       -7.4262  -19.0622  -46.8504 H         1 UNK         0.0600 
    237 H237       -5.5349  -19.2352  -45.1884 H         1 UNK         0.0600 
    238 H238       -5.9495  -20.7932  -45.8877 H         1 UNK         0.0600 
    239 H239       -4.5234  -19.9428  -46.4510 H         1 UNK         0.0600 
    240 H240       -5.0099  -18.6940  -49.3488 H         1 UNK         0.3000 
    241 H241       -5.6814  -21.1807  -50.7373 H         1 UNK         0.0600 
    242 H242       -7.4052  -18.1817  -50.4308 H         1 UNK         0.3800 
    243 H243       -8.2791  -18.3373  -51.9333 H         1 UNK         0.3800 
    244 H244       -4.1950  -20.3711  -52.5096 H         1 UNK         0.0800 
    245 H245       -4.0587  -18.8162  -51.7437 H         1 UNK         0.0800 
    246 H246       -1.9378  -18.7392  -49.1929 H         1 UNK         0.0800 
    247 H247       -2.1362  -18.1752  -50.8277 H         1 UNK         0.0800 
@<TRIPOS>BOND
     1    1    2 1    
     2    1  127 1    
     3    1  128 1    
     4    1  129 1    
     5    2    3 2    
     6    2    4 am   BACKBONE|DICT|INTERRES
     7    4    5 1    
     8    4  130 1    
     9    5    6 1    
    10    5   65 1    
    11    5  131 1    
    12    6    7 1    
    13    6  132 1    
    14    6  133 1    
    15    7    8 1    
    16    8    9 1    
    17    8  134 1    
    18    8  135 1    
    19    9   10 ar   
    20    9   14 ar   
    21   10   11 ar   
    22   10  136 1    
    23   11   12 ar   
    24   11  126 1    
    25   12   13 ar   
    26   12  137 1    
    27   13   14 ar   
    28   13   15 1    
    29   14  138 1    
    30   15   16 1    
    31   15  139 1    
    32   15  140 1    
    33   16   17 1    
    34   17   18 1    
    35   17  141 1    
    36   17  142 1    
    37   18   19 1    
    38   18   67 1    
    39   18  143 1    
    40   19   20 am   BACKBONE|DICT|INTERRES
    41   19  144 1    
    42   20   21 2    
    43   20   22 1    
    44   22   23 1    
    45   22   24 1    
    46   22  145 1    
    47   23  146 1    
    48   23  147 1    
    49   23  148 1    
    50   24   25 am   BACKBONE|DICT|INTERRES
    51   24  149 1    
    52   25   26 2    
    53   25   27 1    
    54   27   28 1    
    55   27   29 1    
    56   27  150 1    
    57   28  151 1    
    58   28  152 1    
    59   28  153 1    
    60   29   30 am   BACKBONE|DICT|INTERRES
    61   29  154 1    
    62   30   31 2    
    63   30   32 1    
    64   32   33 1    
    65   32   34 1    
    66   32  155 1    
    67   33  156 1    
    68   33  157 1    
    69   33  158 1    
    70   34   35 am   BACKBONE|DICT|INTERRES
    71   34  159 1    
    72   35   36 2    
    73   35   37 1    
    74   37   38 1    
    75   37   39 1    
    76   37  160 1    
    77   38  161 1    
    78   38  162 1    
    79   38  163 1    
    80   39   40 am   BACKBONE|DICT|INTERRES
    81   39  164 1    
    82   40   41 2    
    83   40   42 1    
    84   42   43 1    
    85   42   44 1    
    86   42  165 1    
    87   43  166 1    
    88   43  167 1    
    89   43  168 1    
    90   44   45 am   BACKBONE|DICT|INTERRES
    91   44  169 1    
    92   45   46 2    
    93   45   47 1    
    94   47   48 1    
    95   47   49 1    
    96   47  170 1    
    97   48  171 1    
    98   48  172 1    
    99   48  173 1    
   100   49   50 am   BACKBONE|DICT|INTERRES
   101   49  174 1    
   102   50   51 2    
   103   50   52 1    
   104   52   53 1    
   105   52   54 1    
   106   52  175 1    
   107   53  176 1    
   108   53  177 1    
   109   53  178 1    
   110   54   55 am   BACKBONE|DICT|INTERRES
   111   54  179 1    
   112   55   56 2    
   113   55   57 1    
   114   57   58 1    
   115   57   59 1    
   116   57  180 1    
   117   58  181 1    
   118   58  182 1    
   119   58  183 1    
   120   59   60 am   BACKBONE|DICT|INTERRES
   121   59  184 1    
   122   60   61 2    
   123   60   62 1    
   124   62   63 1    
   125   62   64 1    
   126   62  185 1    
   127   63  186 1    
   128   63  187 1    
   129   63  188 1    
   130   64   65 am   BACKBONE|DICT|INTERRES
   131   64  189 1    
   132   65   66 2    
   133   67   68 2    
   134   67   69 am   BACKBONE|DICT|INTERRES
   135   69   70 1    
   136   69  190 1    
   137   70   71 1    
   138   70   72 1    
   139   70  191 1    
   140   71  192 1    
   141   71  193 1    
   142   71  194 1    
   143   72   73 2    
   144   72   74 am   BACKBONE|DICT|INTERRES
   145   74   75 1    
   146   74  195 1    
   147   75   76 1    
   148   75   77 1    
   149   75  196 1    
   150   76  197 1    
   151   76  198 1    
   152   76  199 1    
   153   77   78 2    
   154   77   79 am   BACKBONE|DICT|INTERRES
   155   79   80 1    
   156   79  200 1    
   157   80   81 1    
   158   80   82 1    
   159   80  201 1    
   160   81  202 1    
   161   81  203 1    
   162   81  204 1    
   163   82   83 2    
   164   82   84 am   BACKBONE|DICT|INTERRES
   165   84   85 1    
   166   84  205 1    
   167   85   86 1    
   168   85   87 1    
   169   85  206 1    
   170   86  207 1    
   171   86  208 1    
   172   86  209 1    
   173   87   88 2    
   174   87   89 am   BACKBONE|DICT|INTERRES
   175   89   90 1    
   176   89  210 1    
   177   90   91 1    
   178   90   92 1    
   179   90  211 1    
   180   91  212 1    
   181   91  213 1    
   182   91  214 1    
   183   92   93 2    
   184   92   94 am   BACKBONE|DICT|INTERRES
   185   94   95 1    
   186   94  215 1    
   187   95   96 1    
   188   95   97 1    
   189   95  216 1    
   190   96  217 1    
   191   96  218 1    
   192   96  219 1    
   193   97   98 2    
   194   97   99 am   BACKBONE|DICT|INTERRES
   195   99  100 1    
   196   99  220 1    
   197  100  101 1    
   198  100  102 1    
   199  100  221 1    
   200  101  222 1    
   201  101  223 1    
   202  101  224 1    
   203  102  103 2    
   204  102  104 am   BACKBONE|DICT|INTERRES
   205  104  105 1    
   206  104  225 1    
   207  105  106 1    
   208  105  107 1    
   209  105  226 1    
   210  106  227 1    
   211  106  228 1    
   212  106  229 1    
   213  107  108 2    
   214  107  109 am   BACKBONE|DICT|INTERRES
   215  109  110 1    
   216  109  230 1    
   217  110  111 1    
   218  110  112 1    
   219  110  231 1    
   220  111  232 1    
   221  111  233 1    
   222  111  234 1    
   223  112  113 2    
   224  112  114 am   BACKBONE|DICT|INTERRES
   225  114  115 1    
   226  114  235 1    
   227  115  116 1    
   228  115  117 1    
   229  115  236 1    
   230  116  237 1    
   231  116  238 1    
   232  116  239 1    
   233  117  118 2    
   234  117  119 am   BACKBONE|DICT|INTERRES
   235  119  120 1    
   236  119  240 1    
   237  120  121 1    
   238  120  124 1    
   239  120  241 1    
   240  121  122 am   BACKBONE|DICT|INTERRES
   241  121  123 2    
   242  122  242 1    
   243  122  243 1    
   244  124  125 1    
   245  124  244 1    
   246  124  245 1    
   247  125  126 1    
   248  126  246 1    
   249  126  247 1    
@<TRIPOS>SUBSTRUCTURE
     1 UNK         1 GROUP             0       ****    0 ROOT    
