@<TRIPOS>MOLECULE
3R540
247   249    1
SMALL
USER_CHARGES


@<TRIPOS>ATOM
      1 CA          1.9437  -10.4890  -49.9910 C.3       0 UNK        -0.1800 
      2 C           1.7419  -11.5906  -48.9616 C.2       0 UNK         0.5000 
      3 O           1.0527  -11.3758  -47.9654 O.2       0 UNK        -0.5000 
      4 N           2.3185  -12.7757  -49.2065 N.am      1 UNK        -0.5000 
      5 CA          2.2724  -13.9543  -48.3264 C.3       1 UNK         0.1400 
      6 C6          3.1200  -15.1171  -48.9063 C.3       23 UNK        -0.0398 
      7 S7          3.8108  -16.2241  -47.6306 S.3       23 UNK        -0.2404 
      8 C8          2.6422  -17.6226  -47.6227 C.3       23 UNK        -0.0205 
      9 C9          2.7389  -18.4653  -48.8853 C.ar      23 UNK        -0.0193 
     10 C10         1.7946  -18.3211  -49.9055 C.ar      23 UNK        -0.1150 
     11 C11         1.8867  -19.0881  -51.0698 C.ar      23 UNK        -0.0193 
     12 C12         2.9200  -20.0198  -51.2023 C.ar      23 UNK        -0.1150 
     13 C13         3.8642  -20.1811  -50.1843 C.ar      23 UNK        -0.0193 
     14 C14         3.7691  -19.3987  -49.0290 C.ar      23 UNK        -0.1150 
     15 C15         5.0071  -21.1730  -50.3521 C.3       23 UNK        -0.0205 
     16 S16         4.4739  -22.9020  -50.1399 S.3       23 UNK        -0.2404 
     17 C17         4.1237  -22.9673  -48.3498 C.3       23 UNK        -0.0398 
     18 CA          2.8736  -23.8075  -47.9929 C.3       11 UNK         0.1400 
     19 N           2.8463  -24.1040  -46.5573 N.am      11 UNK        -0.5000 
     20 C           2.0090  -24.9623  -45.9602 C.2       10 UNK         0.5000 
     21 O           1.1543  -25.6169  -46.5573 O.2       10 UNK        -0.5000 
     22 CA          2.1240  -25.0783  -44.4269 C.3       10 UNK         0.1400 
     23 CB          3.2118  -26.0956  -44.0507 C.3       10 UNK        -0.1800 
     24 N           2.3815  -23.8152  -43.7216 N.am      10 UNK        -0.5000 
     25 C           1.6685  -22.6861  -43.8404 C.2       9 UNK         0.5000 
     26 O           0.7774  -22.5232  -44.6746 O.2       9 UNK        -0.5000 
     27 CA          2.0475  -21.5319  -42.8962 C.3       9 UNK         0.1400 
     28 CB          3.2537  -20.7652  -43.4602 C.3       9 UNK        -0.1800 
     29 N           0.9299  -20.6045  -42.6888 N.am      9 UNK        -0.5000 
     30 C          -0.1751  -20.8993  -41.9835 C.2       8 UNK         0.5000 
     31 O          -0.3333  -21.9755  -41.4043 O.2       8 UNK        -0.5000 
     32 CA         -1.2825  -19.8287  -41.8607 C.3       8 UNK         0.1400 
     33 CB         -1.3470  -19.2878  -40.4235 C.3       8 UNK        -0.1800 
     34 N          -1.1100  -18.6995  -42.7727 N.am      8 UNK        -0.5000 
     35 C          -1.4869  -18.6906  -44.0594 C.2       7 UNK         0.5000 
     36 O          -2.1265  -19.6028  -44.5811 O.2       7 UNK        -0.5000 
     37 CA         -1.0778  -17.4693  -44.9161 C.3       7 UNK         0.1400 
     38 CB         -2.2952  -16.5757  -45.1887 C.3       7 UNK        -0.1800 
     39 N          -0.0080  -16.6564  -44.3310 N.am      7 UNK        -0.5000 
     40 C           1.2287  -17.0953  -44.0509 C.2       6 UNK         0.5000 
     41 O           1.6185  -18.2227  -44.3466 O.2       6 UNK        -0.5000 
     42 CA          2.1664  -16.1736  -43.2416 C.3       6 UNK         0.1400 
     43 CB          3.2619  -15.5884  -44.1418 C.3       6 UNK        -0.1800 
     44 N           1.4866  -15.0744  -42.5571 N.am      6 UNK        -0.5000 
     45 C           0.5171  -15.1843  -41.6370 C.2       5 UNK         0.5000 
     46 O           0.1437  -16.2594  -41.1667 O.2       5 UNK        -0.5000 
     47 CA         -0.1943  -13.8769  -41.2240 C.3       5 UNK         0.1400 
     48 CB          0.2862  -13.4180  -39.8392 C.3       5 UNK        -0.1800 
     49 N          -0.0159  -12.7757  -42.1817 N.am      5 UNK        -0.5000 
     50 C          -0.4211  -12.7890  -43.4603 C.2       4 UNK         0.5000 
     51 O          -1.0392  -13.7293  -43.9643 O.2       4 UNK        -0.5000 
     52 CA          0.0273  -11.5886  -44.3171 C.3       4 UNK         0.1400 
     53 CB          1.5397  -11.6653  -44.5890 C.3       4 UNK        -0.1800 
     54 N          -0.6566  -11.5223  -45.6052 N.am      4 UNK        -0.5000 
     55 C          -1.9475  -11.2232  -45.7921 C.2       3 UNK         0.5000 
     56 O          -2.7174  -10.9020  -44.8855 O.2       3 UNK        -0.5000 
     57 CA         -2.4602  -11.2846  -47.2411 C.3       3 UNK         0.1400 
     58 CB         -2.2086   -9.9501  -47.9610 C.3       3 UNK        -0.1800 
     59 N          -1.8198  -12.3645  -47.9942 N.am      3 UNK        -0.5000 
     60 C          -2.2993  -13.6131  -48.0798 C.2       2 UNK         0.5000 
     61 O          -3.3599  -13.9708  -47.5675 O.2       2 UNK        -0.5000 
     62 CA         -1.4808  -14.6345  -48.8963 C.3       2 UNK         0.1400 
     63 CB         -2.0565  -14.7608  -50.3154 C.3       2 UNK        -0.1800 
     64 N          -0.0613  -14.2993  -49.0038 N.am      2 UNK        -0.5000 
     65 C           0.8319  -14.4172  -48.0115 C.2       1 UNK         0.5000 
     66 O           0.5562  -14.8347  -46.8891 O.2       1 UNK        -0.5000 
     67 C           1.5620  -23.1480  -48.4793 C.2       11 UNK         0.5000 
     68 O           1.0559  -23.5075  -49.5428 O.2       11 UNK        -0.5000 
     69 N           1.0136  -22.2331  -47.6694 N.am      12 UNK        -0.5000 
     70 CA         -0.2619  -21.5732  -47.9305 C.3       12 UNK         0.1400 
     71 CB         -0.2913  -20.2235  -47.2096 C.3       12 UNK        -0.1800 
     72 C          -1.4528  -22.4427  -47.5005 C.2       12 UNK         0.5000 
     73 O          -2.4733  -22.4452  -48.1877 O.2       12 UNK        -0.5000 
     74 N          -1.3136  -23.1850  -46.3931 N.am      13 UNK        -0.5000 
     75 CA         -2.3220  -24.1052  -45.8593 C.3       13 UNK         0.1400 
     76 CB         -1.8515  -24.6745  -44.5152 C.3       13 UNK        -0.1800 
     77 C          -2.6758  -25.2400  -46.8382 C.2       13 UNK         0.5000 
     78 O          -3.8452  -25.6117  -46.9352 O.2       13 UNK        -0.5000 
     79 N          -1.6804  -25.7093  -47.6046 N.am      14 UNK        -0.5000 
     80 CA         -1.8406  -26.6481  -48.7198 C.3       14 UNK         0.1400 
     81 CB         -0.4498  -27.0577  -49.2269 C.3       14 UNK        -0.1800 
     82 C          -2.6968  -26.0959  -49.8817 C.2       14 UNK         0.5000 
     83 O          -3.2712  -26.8810  -50.6360 O.2       14 UNK        -0.5000 
     84 N          -2.7919  -24.7644  -49.9830 N.am      15 UNK        -0.5000 
     85 CA         -3.6390  -24.0211  -50.9134 C.3       15 UNK         0.1400 
     86 CB         -2.7921  -22.9083  -51.5561 C.3       15 UNK        -0.1800 
     87 C          -4.8940  -23.4620  -50.2065 C.2       15 UNK         0.5000 
     88 O          -5.4514  -22.4612  -50.6586 O.2       15 UNK        -0.5000 
     89 N          -5.3070  -24.0997  -49.0989 N.am      16 UNK        -0.5000 
     90 CA         -6.4678  -23.7742  -48.2621 C.3       16 UNK         0.1400 
     91 CB         -7.7813  -24.0339  -49.0286 C.3       16 UNK        -0.1800 
     92 C          -6.3834  -22.3646  -47.6394 C.2       16 UNK         0.5000 
     93 O          -7.3660  -21.6234  -47.6415 O.2       16 UNK        -0.5000 
     94 N          -5.1898  -22.0332  -47.1275 N.am      17 UNK        -0.5000 
     95 CA         -4.7722  -20.7341  -46.5882 C.3       17 UNK         0.1400 
     96 CB         -5.6284  -20.3051  -45.3785 C.3       17 UNK        -0.1800 
     97 C          -4.6780  -19.6697  -47.6986 C.2       17 UNK         0.5000 
     98 O          -5.1608  -18.5483  -47.5349 O.2       17 UNK        -0.5000 
     99 N          -4.0523  -20.0712  -48.8156 N.am      18 UNK        -0.5000 
    100 CA        -3.8163  -19.3024  -50.0402 C.3       18 UNK         0.1400 
    101 CB        -2.7994  -18.1741  -49.7759 C.3       18 UNK        -0.1800 
    102 C         -5.1110  -18.8037  -50.7197 C.2       18 UNK         0.5000 
    103 O         -5.1436  -17.6967  -51.2615 O.2       18 UNK        -0.5000 
    104 N         -6.1596  -19.6347  -50.6947 N.am      19 UNK        -0.5000 
    105 CA        -7.4789  -19.3415  -51.2479 C.3       19 UNK         0.1400 
    106 CB        -8.5359  -20.1364  -50.4644 C.3       19 UNK        -0.1800 
    107 C         -7.5102  -19.6491  -52.7549 C.2       19 UNK         0.5000 
    108 O         -8.0271  -20.6895  -53.1653 O.2       19 UNK        -0.5000 
    109 N         -6.9074  -18.7526  -53.5484 N.am      20 UNK        -0.5000 
    110 CA        -6.7932  -18.7385  -55.0170 C.3       20 UNK         0.1400 
    111 CB        -8.1784  -18.7305  -55.6906 C.3       20 UNK        -0.1800 
    112 C         -5.8935  -19.8403  -55.6142 C.2       20 UNK         0.5000 
    113 O         -5.1960  -19.5801  -56.5959 O.2       20 UNK        -0.5000 
    114 N         -5.8682  -21.0258  -54.9914 N.am      21 UNK        -0.5000 
    115 CA        -5.0346  -22.1816  -55.3425 C.3       21 UNK         0.1400 
    116 CB        -5.4358  -23.3649  -54.4481 C.3       21 UNK        -0.1800 
    117 C         -3.5155  -21.9170  -55.2568 C.2       21 UNK         0.5000 
    118 O         -2.7342  -22.6624  -55.8484 O.2       21 UNK        -0.5000 
    119 N         -3.1340  -20.8474  -54.5476 N.am      22 UNK        -0.5000 
    120 CA        -1.7805  -20.2759  -54.5149 C.3       22 UNK         0.1400 
    121 C         -1.3281  -19.6223  -55.8572 C.2       22 UNK         0.5000 
    122 N         -2.2189  -19.3326  -56.8001 N.am      22 UNK        -0.7600 
    123 O         -0.1409  -19.3725  -56.0449 O.2       22 UNK        -0.5000 
    124 C124       -1.6311  -19.2799  -53.3274 C.3       23 UNK        -0.0398 
    125 S125       -0.5800  -19.9320  -51.9878 S.3       23 UNK        -0.2404 
    126 C126        0.8882  -18.8826  -52.1951 C.3       23 UNK        -0.0205 
    127 H127        2.5531  -10.8240  -50.8306 H         1 UNK         0.0600 
    128 H128        2.4381   -9.6338  -49.5304 H         1 UNK         0.0600 
    129 H129        0.9802  -10.1585  -50.3788 H         1 UNK         0.0600 
    130 H130        2.8640  -12.8816  -50.0501 H         1 UNK         0.3000 
    131 H131        2.7198  -13.6383  -47.3815 H         1 UNK         0.0600 
    132 H132        2.5711  -15.6819  -49.6599 H         1 UNK         0.0800 
    133 H133        3.9854  -14.7116  -49.4321 H         1 UNK         0.0800 
    134 H134        1.6251  -17.2587  -47.4742 H         1 UNK         0.0800 
    135 H135        2.8612  -18.2519  -46.7590 H         1 UNK         0.0800 
    136 H136        0.9916  -17.6050  -49.7991 H         1 UNK         0.1150 
    137 H137        2.9942  -20.6160  -52.1010 H         1 UNK         0.1150 
    138 H138        4.5021  -19.5066  -48.2419 H         1 UNK         0.1150 
    139 H139        5.4331  -21.0590  -51.3499 H         1 UNK         0.0800 
    140 H140        5.8156  -20.9554  -49.6524 H         1 UNK         0.0800 
    141 H141        4.0345  -21.9613  -47.9396 H         1 UNK         0.0800 
    142 H142        5.0056  -23.4017  -47.8769 H         1 UNK         0.0800 
    143 H143        2.9581  -24.7676  -48.5072 H         1 UNK         0.0600 
    144 H144        3.5044  -23.6050  -45.9773 H         1 UNK         0.3000 
    145 H145        1.1736  -25.4612  -44.0555 H         1 UNK         0.0600 
    146 H146        3.2237  -26.2827  -42.9768 H         1 UNK         0.0600 
    147 H147        3.0386  -27.0537  -44.5429 H         1 UNK         0.0600 
    148 H148        4.2044  -25.7510  -44.3431 H         1 UNK         0.0600 
    149 H149        3.1144  -23.8453  -43.0276 H         1 UNK         0.3000 
    150 H150        2.3245  -21.9506  -41.9265 H         1 UNK         0.0600 
    151 H151        4.1387  -21.4012  -43.4993 H         1 UNK         0.0600 
    152 H152        3.5015  -19.9029  -42.8408 H         1 UNK         0.0600 
    153 H153        3.0660  -20.4082  -44.4737 H         1 UNK         0.0600 
    154 H154        0.9809  -19.7260  -43.1934 H         1 UNK         0.3000 
    155 H155       -2.2337  -20.3187  -42.0790 H         1 UNK         0.0600 
    156 H156       -2.1481  -18.5569  -40.3119 H         1 UNK         0.0600 
    157 H157       -1.5383  -20.0902  -39.7099 H         1 UNK         0.0600 
    158 H158       -0.4119  -18.8067  -40.1336 H         1 UNK         0.0600 
    159 H159       -0.6134  -17.8965  -42.4044 H         1 UNK         0.3000 
    160 H160       -0.7110  -17.8396  -45.8734 H         1 UNK         0.0600 
    161 H161       -3.0864  -17.1310  -45.6947 H         1 UNK         0.0600 
    162 H162       -2.7109  -16.1711  -44.2652 H         1 UNK         0.0600 
    163 H163       -2.0274  -15.7353  -45.8285 H         1 UNK         0.0600 
    164 H164       -0.2488  -15.6962  -44.1101 H         1 UNK         0.3000 
    165 H165        2.6429  -16.7910  -42.4777 H         1 UNK         0.0600 
    166 H166        3.9607  -14.9753  -43.5726 H         1 UNK         0.0600 
    167 H167        3.8404  -16.3838  -44.6128 H         1 UNK         0.0600 
    168 H168        2.8395  -14.9716  -44.9362 H         1 UNK         0.0600 
    169 H169        1.7132  -14.1464  -42.8799 H         1 UNK         0.3000 
    170 H170       -1.2623  -14.0960  -41.1631 H         1 UNK         0.0600 
    171 H171        1.3469  -13.1637  -39.8453 H         1 UNK         0.0600 
    172 H172       -0.2682  -12.5436  -39.4981 H         1 UNK         0.0600 
    173 H173        0.1412  -14.2027  -39.0953 H         1 UNK         0.0600 
    174 H174        0.4919  -11.9716  -41.8413 H         1 UNK         0.3000 
    175 H175       -0.1895  -10.6718  -43.7654 H         1 UNK         0.0600 
    176 H176        1.8762  -10.8138  -45.1811 H         1 UNK         0.0600 
    177 H177        1.8013  -12.5725  -45.1358 H         1 UNK         0.0600 
    178 H178        2.1155  -11.6593  -43.6631 H         1 UNK         0.0600 
    179 H179       -0.0904  -11.7311  -46.4207 H         1 UNK         0.3000 
    180 H180       -3.5396  -11.4469  -47.2078 H         1 UNK         0.0600 
    181 H181       -1.1451   -9.7166  -48.0235 H         1 UNK         0.0600 
    182 H182       -2.6944   -9.1269  -47.4357 H         1 UNK         0.0600 
    183 H183       -2.6075   -9.9688  -48.9753 H         1 UNK         0.0600 
    184 H184       -0.9122  -12.1599  -48.3914 H         1 UNK         0.3000 
    185 H185       -1.5679  -15.6034  -48.3999 H         1 UNK         0.0600 
    186 H186       -3.0997  -15.0791  -50.2875 H         1 UNK         0.0600 
    187 H187       -2.0181  -13.8115  -50.8509 H         1 UNK         0.0600 
    188 H188       -1.5068  -15.4972  -50.9017 H         1 UNK         0.0600 
    189 H189        0.2499  -13.9265  -49.8888 H         1 UNK         0.3000 
    190 H190        1.4295  -22.0636  -46.7635 H         1 UNK         0.3000 
    191 H191       -0.3595  -21.3818  -49.0018 H         1 UNK         0.0600 
    192 H192        0.4337  -19.5354  -47.6379 H         1 UNK         0.0600 
    193 H193       -1.2730  -19.7560  -47.2922 H         1 UNK         0.0600 
    194 H194       -0.0602  -20.3323  -46.1498 H         1 UNK         0.0600 
    195 H195       -0.4699  -23.0629  -45.8354 H         1 UNK         0.3000 
    196 H196       -3.2278  -23.5255  -45.6755 H         1 UNK         0.0600 
    197 H197       -2.6429  -25.2575  -44.0429 H         1 UNK         0.0600 
    198 H198       -1.5718  -23.8812  -43.8211 H         1 UNK         0.0600 
    199 H199       -0.9947  -25.3337  -44.6419 H         1 UNK         0.0600 
    200 H200       -0.7355  -25.3902  -47.4166 H         1 UNK         0.3000 
    201 H201       -2.3435  -27.5384  -48.3373 H         1 UNK         0.0600 
    202 H202        0.1341  -27.5307  -48.4372 H         1 UNK         0.0600 
    203 H203        0.1137  -26.1970  -49.5895 H         1 UNK         0.0600 
    204 H204       -0.5252  -27.7723  -50.0476 H         1 UNK         0.0600 
    205 H205       -2.3185  -24.1937  -49.2927 H         1 UNK         0.3000 
    206 H206       -3.9943  -24.6769  -51.7103 H         1 UNK         0.0600 
    207 H207       -1.9764  -23.3260  -52.1461 H         1 UNK         0.0600 
    208 H208       -3.3872  -22.2879  -52.2237 H         1 UNK         0.0600 
    209 H209       -2.3533  -22.2495  -50.8076 H         1 UNK         0.0600 
    210 H210       -4.7500  -24.8775  -48.7666 H         1 UNK         0.3000 
    211 H211       -6.4419  -24.4702  -47.4225 H         1 UNK         0.0600 
    212 H212       -7.8784  -23.3892  -49.9011 H         1 UNK         0.0600 
    213 H213       -8.6497  -23.8595  -48.3924 H         1 UNK         0.0600 
    214 H214       -7.8354  -25.0668  -49.3723 H         1 UNK         0.0600 
    215 H215       -4.4343  -22.6902  -47.2718 H         1 UNK         0.3000 
    216 H216       -3.7555  -20.8770  -46.2222 H         1 UNK         0.0600 
    217 H217       -5.2006  -19.4232  -44.9002 H         1 UNK         0.0600 
    218 H218       -5.6705  -21.0927  -44.6264 H         1 UNK         0.0600 
    219 H219       -6.6499  -20.0554  -45.6652 H         1 UNK         0.0600 
    220 H220       -3.6827  -21.0165  -48.8186 H         1 UNK         0.3000 
    221 H221       -3.3626  -19.9988  -50.7444 H         1 UNK         0.0600 
    222 H222       -3.1987  -17.4217  -49.0955 H         1 UNK         0.0600 
    223 H223       -1.8774  -18.5638  -49.3454 H         1 UNK         0.0600 
    224 H224       -2.5294  -17.6709  -50.7039 H         1 UNK         0.0600 
    225 H225       -6.0216  -20.5765  -50.3397 H         1 UNK         0.3000 
    226 H226       -7.7027  -18.2808  -51.1157 H         1 UNK         0.0600 
    227 H227       -8.5435  -19.8477  -49.4133 H         1 UNK         0.0600 
    228 H228       -9.5361  -19.9548  -50.8593 H         1 UNK         0.0600 
    229 H229       -8.3506  -21.2089  -50.5144 H         1 UNK         0.0600 
    230 H230       -6.4420  -17.9837  -53.0795 H         1 UNK         0.3000 
    231 H231       -6.3116  -17.7897  -55.2587 H         1 UNK         0.0600 
    232 H232       -8.7195  -19.6626  -55.5259 H         1 UNK         0.0600 
    233 H233       -8.0841  -18.5979  -56.7692 H         1 UNK         0.0600 
    234 H234       -8.7947  -17.9132  -55.3160 H         1 UNK         0.0600 
    235 H235       -6.5183  -21.1492  -54.2199 H         1 UNK         0.3000 
    236 H236       -5.2536  -22.4453  -56.3790 H         1 UNK         0.0600 
    237 H237       -5.3387  -23.1187  -53.3912 H         1 UNK         0.0600 
    238 H238       -6.4710  -23.6566  -54.6258 H         1 UNK         0.0600 
    239 H239       -4.8139  -24.2395  -54.6437 H         1 UNK         0.0600 
    240 H240       -3.8608  -20.3026  -54.1110 H         1 UNK         0.3000 
    241 H241       -1.0949  -21.1124  -54.3655 H         1 UNK         0.0600 
    242 H242       -3.2089  -19.5134  -56.6702 H         1 UNK         0.3800 
    243 H243       -1.9034  -18.9133  -57.6603 H         1 UNK         0.3800 
    244 H244       -1.2345  -18.3140  -53.6463 H         1 UNK         0.0800 
    245 H245       -2.6021  -19.0356  -52.8963 H         1 UNK         0.0800 
    246 H246        1.3526  -19.0981  -53.1589 H         1 UNK         0.0800 
    247 H247        0.5880  -17.8340  -52.2242 H         1 UNK         0.0800 
@<TRIPOS>BOND
     1    1    2 1    
     2    1  127 1    
     3    1  128 1    
     4    1  129 1    
     5    2    3 2    
     6    2    4 am   BACKBONE|DICT|INTERRES
     7    4    5 1    
     8    4  130 1    
     9    5    6 1    
    10    5   65 1    
    11    5  131 1    
    12    6    7 1    
    13    6  132 1    
    14    6  133 1    
    15    7    8 1    
    16    8    9 1    
    17    8  134 1    
    18    8  135 1    
    19    9   10 ar   
    20    9   14 ar   
    21   10   11 ar   
    22   10  136 1    
    23   11   12 ar   
    24   11  126 1    
    25   12   13 ar   
    26   12  137 1    
    27   13   14 ar   
    28   13   15 1    
    29   14  138 1    
    30   15   16 1    
    31   15  139 1    
    32   15  140 1    
    33   16   17 1    
    34   17   18 1    
    35   17  141 1    
    36   17  142 1    
    37   18   19 1    
    38   18   67 1    
    39   18  143 1    
    40   19   20 am   BACKBONE|DICT|INTERRES
    41   19  144 1    
    42   20   21 2    
    43   20   22 1    
    44   22   23 1    
    45   22   24 1    
    46   22  145 1    
    47   23  146 1    
    48   23  147 1    
    49   23  148 1    
    50   24   25 am   BACKBONE|DICT|INTERRES
    51   24  149 1    
    52   25   26 2    
    53   25   27 1    
    54   27   28 1    
    55   27   29 1    
    56   27  150 1    
    57   28  151 1    
    58   28  152 1    
    59   28  153 1    
    60   29   30 am   BACKBONE|DICT|INTERRES
    61   29  154 1    
    62   30   31 2    
    63   30   32 1    
    64   32   33 1    
    65   32   34 1    
    66   32  155 1    
    67   33  156 1    
    68   33  157 1    
    69   33  158 1    
    70   34   35 am   BACKBONE|DICT|INTERRES
    71   34  159 1    
    72   35   36 2    
    73   35   37 1    
    74   37   38 1    
    75   37   39 1    
    76   37  160 1    
    77   38  161 1    
    78   38  162 1    
    79   38  163 1    
    80   39   40 am   BACKBONE|DICT|INTERRES
    81   39  164 1    
    82   40   41 2    
    83   40   42 1    
    84   42   43 1    
    85   42   44 1    
    86   42  165 1    
    87   43  166 1    
    88   43  167 1    
    89   43  168 1    
    90   44   45 am   BACKBONE|DICT|INTERRES
    91   44  169 1    
    92   45   46 2    
    93   45   47 1    
    94   47   48 1    
    95   47   49 1    
    96   47  170 1    
    97   48  171 1    
    98   48  172 1    
    99   48  173 1    
   100   49   50 am   BACKBONE|DICT|INTERRES
   101   49  174 1    
   102   50   51 2    
   103   50   52 1    
   104   52   53 1    
   105   52   54 1    
   106   52  175 1    
   107   53  176 1    
   108   53  177 1    
   109   53  178 1    
   110   54   55 am   BACKBONE|DICT|INTERRES
   111   54  179 1    
   112   55   56 2    
   113   55   57 1    
   114   57   58 1    
   115   57   59 1    
   116   57  180 1    
   117   58  181 1    
   118   58  182 1    
   119   58  183 1    
   120   59   60 am   BACKBONE|DICT|INTERRES
   121   59  184 1    
   122   60   61 2    
   123   60   62 1    
   124   62   63 1    
   125   62   64 1    
   126   62  185 1    
   127   63  186 1    
   128   63  187 1    
   129   63  188 1    
   130   64   65 am   BACKBONE|DICT|INTERRES
   131   64  189 1    
   132   65   66 2    
   133   67   68 2    
   134   67   69 am   BACKBONE|DICT|INTERRES
   135   69   70 1    
   136   69  190 1    
   137   70   71 1    
   138   70   72 1    
   139   70  191 1    
   140   71  192 1    
   141   71  193 1    
   142   71  194 1    
   143   72   73 2    
   144   72   74 am   BACKBONE|DICT|INTERRES
   145   74   75 1    
   146   74  195 1    
   147   75   76 1    
   148   75   77 1    
   149   75  196 1    
   150   76  197 1    
   151   76  198 1    
   152   76  199 1    
   153   77   78 2    
   154   77   79 am   BACKBONE|DICT|INTERRES
   155   79   80 1    
   156   79  200 1    
   157   80   81 1    
   158   80   82 1    
   159   80  201 1    
   160   81  202 1    
   161   81  203 1    
   162   81  204 1    
   163   82   83 2    
   164   82   84 am   BACKBONE|DICT|INTERRES
   165   84   85 1    
   166   84  205 1    
   167   85   86 1    
   168   85   87 1    
   169   85  206 1    
   170   86  207 1    
   171   86  208 1    
   172   86  209 1    
   173   87   88 2    
   174   87   89 am   BACKBONE|DICT|INTERRES
   175   89   90 1    
   176   89  210 1    
   177   90   91 1    
   178   90   92 1    
   179   90  211 1    
   180   91  212 1    
   181   91  213 1    
   182   91  214 1    
   183   92   93 2    
   184   92   94 am   BACKBONE|DICT|INTERRES
   185   94   95 1    
   186   94  215 1    
   187   95   96 1    
   188   95   97 1    
   189   95  216 1    
   190   96  217 1    
   191   96  218 1    
   192   96  219 1    
   193   97   98 2    
   194   97   99 am   BACKBONE|DICT|INTERRES
   195   99  100 1    
   196   99  220 1    
   197  100  101 1    
   198  100  102 1    
   199  100  221 1    
   200  101  222 1    
   201  101  223 1    
   202  101  224 1    
   203  102  103 2    
   204  102  104 am   BACKBONE|DICT|INTERRES
   205  104  105 1    
   206  104  225 1    
   207  105  106 1    
   208  105  107 1    
   209  105  226 1    
   210  106  227 1    
   211  106  228 1    
   212  106  229 1    
   213  107  108 2    
   214  107  109 am   BACKBONE|DICT|INTERRES
   215  109  110 1    
   216  109  230 1    
   217  110  111 1    
   218  110  112 1    
   219  110  231 1    
   220  111  232 1    
   221  111  233 1    
   222  111  234 1    
   223  112  113 2    
   224  112  114 am   BACKBONE|DICT|INTERRES
   225  114  115 1    
   226  114  235 1    
   227  115  116 1    
   228  115  117 1    
   229  115  236 1    
   230  116  237 1    
   231  116  238 1    
   232  116  239 1    
   233  117  118 2    
   234  117  119 am   BACKBONE|DICT|INTERRES
   235  119  120 1    
   236  119  240 1    
   237  120  121 1    
   238  120  124 1    
   239  120  241 1    
   240  121  122 am   BACKBONE|DICT|INTERRES
   241  121  123 2    
   242  122  242 1    
   243  122  243 1    
   244  124  125 1    
   245  124  244 1    
   246  124  245 1    
   247  125  126 1    
   248  126  246 1    
   249  126  247 1    
@<TRIPOS>SUBSTRUCTURE
     1 UNK         1 GROUP             0       ****    0 ROOT    
