@<TRIPOS>MOLECULE
3R540
247   249    1
SMALL
USER_CHARGES


@<TRIPOS>ATOM
      1 CA          9.3014  -12.9163  -45.7065 C.3       0 UNK        -0.1800 
      2 C           8.2278  -13.4310  -46.6546 C.2       0 UNK         0.5000 
      3 O           8.3811  -13.3182  -47.8703 O.2       0 UNK        -0.5000 
      4 N           7.1383  -13.9847  -46.1016 N.am      1 UNK        -0.5000 
      5 CA          5.9854  -14.5587  -46.8178 C.3       1 UNK         0.1400 
      6 C6          6.3963  -15.6978  -47.7969 C.3       23 UNK        -0.0398 
      7 S7          5.1931  -17.0664  -47.8470 S.3       23 UNK        -0.2404 
      8 C8          4.6592  -16.9982  -49.5846 C.3       23 UNK        -0.0205 
      9 C9          3.4465  -17.8823  -49.8292 C.ar      23 UNK        -0.0193 
     10 C10         2.1834  -17.3110  -50.0003 C.ar      23 UNK        -0.1150 
     11 C11         1.0674  -18.1161  -50.2374 C.ar      23 UNK        -0.0193 
     12 C12         1.2225  -19.5038  -50.3086 C.ar      23 UNK        -0.1150 
     13 C13         2.4765  -20.0963  -50.1057 C.ar      23 UNK        -0.0193 
     14 C14         3.5844  -19.2722  -49.8821 C.ar      23 UNK        -0.1150 
     15 C15         2.6817  -21.6147  -50.1127 C.3       23 UNK        -0.0205 
     16 S16         1.2229  -22.6214  -49.6562 S.3       23 UNK        -0.2404 
     17 C17         0.7198  -21.8854  -48.0608 C.3       23 UNK        -0.0398 
     18 CA          0.6011  -22.8653  -46.8706 C.3       11 UNK         0.1400 
     19 N           0.4761  -22.1062  -45.6221 N.am      11 UNK        -0.5000 
     20 C           0.5698  -22.5883  -44.3767 C.2       10 UNK         0.5000 
     21 O           0.7807  -23.7728  -44.1137 O.2       10 UNK        -0.5000 
     22 CA          0.3544  -21.5696  -43.2411 C.3       10 UNK         0.1400 
     23 CB          1.6203  -20.7309  -43.0071 C.3       10 UNK        -0.1800 
     24 N          -0.7760  -20.6794  -43.5179 N.am      10 UNK        -0.5000 
     25 C          -2.0612  -21.0435  -43.4083 C.2       9 UNK         0.5000 
     26 O          -2.4193  -22.1371  -42.9737 O.2       9 UNK        -0.5000 
     27 CA         -3.1304  -20.0359  -43.8767 C.3       9 UNK         0.1400 
     28 CB         -3.5350  -19.0988  -42.7296 C.3       9 UNK        -0.1800 
     29 N          -2.7168  -19.2411  -45.0343 N.am      9 UNK        -0.5000 
     30 C          -2.4799  -19.7418  -46.2552 C.2       8 UNK         0.5000 
     31 O          -2.6157  -20.9280  -46.5482 O.2       8 UNK        -0.5000 
     32 CA         -1.9563  -18.7609  -47.3179 C.3       8 UNK         0.1400 
     33 CB         -3.1187  -17.9863  -47.9571 C.3       8 UNK        -0.1800 
     34 N          -0.9687  -17.8207  -46.7872 N.am      8 UNK        -0.5000 
     35 C           0.2044  -18.1649  -46.2357 C.2       7 UNK         0.5000 
     36 O           0.6001  -19.3249  -46.1433 O.2       7 UNK        -0.5000 
     37 CA          1.0361  -17.0351  -45.6051 C.3       7 UNK         0.1400 
     38 CB          1.7453  -16.1918  -46.6712 C.3       7 UNK        -0.1800 
     39 N           0.2148  -16.1722  -44.7610 N.am      7 UNK        -0.5000 
     40 C          -0.3557  -16.5596  -43.6114 C.2       6 UNK         0.5000 
     41 O          -0.1901  -17.6684  -43.1036 O.2       6 UNK        -0.5000 
     42 CA         -1.3041  -15.5481  -42.9424 C.3       6 UNK         0.1400 
     43 CB         -0.5434  -14.6732  -41.9366 C.3       6 UNK        -0.1800 
     44 N          -1.9855  -14.6969  -43.9217 N.am      6 UNK        -0.5000 
     45 C          -2.9321  -15.1418  -44.7605 C.2       5 UNK         0.5000 
     46 O          -3.3427  -16.3026  -44.7719 O.2       5 UNK        -0.5000 
     47 CA         -3.4628  -14.1315  -45.7910 C.3       5 UNK         0.1400 
     48 CB         -4.4098  -13.1171  -45.1326 C.3       5 UNK        -0.1800 
     49 N          -2.3836  -13.4196  -46.4783 N.am      5 UNK        -0.5000 
     50 C          -1.5241  -13.9822  -47.3358 C.2       4 UNK         0.5000 
     51 O          -1.5293  -15.1803  -47.6074 O.2       4 UNK        -0.5000 
     52 CA         -0.4673  -13.0736  -47.9882 C.3       4 UNK         0.1400 
     53 CB         -1.1096  -11.9217  -48.7858 C.3       4 UNK        -0.1800 
     54 N           0.5505  -12.5817  -47.0532 N.am      4 UNK        -0.5000 
     55 C           0.3972  -11.7558  -46.0070 C.2       3 UNK         0.5000 
     56 O          -0.6883  -11.3120  -45.6303 O.2       3 UNK        -0.5000 
     57 CA          1.6744  -11.3537  -45.2415 C.3       3 UNK         0.1400 
     58 CB          1.7994  -12.1738  -43.9496 C.3       3 UNK        -0.1800 
     59 N           2.9138  -11.4961  -46.0114 N.am      3 UNK        -0.5000 
     60 C           3.2456  -10.7742  -47.0919 C.2       2 UNK         0.5000 
     61 O           2.5170   -9.9092  -47.5791 O.2       2 UNK        -0.5000 
     62 CA          4.6232  -11.0444  -47.7317 C.3       2 UNK         0.1400 
     63 CB          5.5360   -9.8156  -47.5881 C.3       2 UNK        -0.1800 
     64 N           5.3241  -12.2052  -47.1758 N.am      2 UNK        -0.5000 
     65 C           5.0692  -13.4883  -47.4692 C.2       1 UNK         0.5000 
     66 O           4.1336  -13.8306  -48.1924 O.2       1 UNK        -0.5000 
     67 C          -0.5313  -23.9036  -47.0628 C.2       11 UNK         0.5000 
     68 O          -0.3337  -24.8743  -47.7930 O.2       11 UNK        -0.5000 
     69 N          -1.6637  -23.7249  -46.3628 N.am      12 UNK        -0.5000 
     70 CA         -2.8490  -24.5922  -46.3422 C.3       12 UNK         0.1400 
     71 CB         -3.8321  -24.0661  -45.2873 C.3       12 UNK        -0.1800 
     72 C          -2.5687  -26.0883  -46.0816 C.2       12 UNK         0.5000 
     73 O          -3.3440  -26.9387  -46.5199 O.2       12 UNK        -0.5000 
     74 N          -1.4740  -26.3841  -45.3683 N.am      13 UNK        -0.5000 
     75 CA         -0.9993  -27.7393  -45.0949 C.3       13 UNK         0.1400 
     76 CB         -0.0445  -27.6874  -43.8921 C.3       13 UNK        -0.1800 
     77 C          -0.3039  -28.4043  -46.3016 C.2       13 UNK         0.5000 
     78 O          -0.2302  -29.6334  -46.3417 O.2       13 UNK        -0.5000 
     79 N           0.2123  -27.6014  -47.2418 N.am      14 UNK        -0.5000 
     80 CA          0.9758  -28.0557  -48.4044 C.3       14 UNK         0.1400 
     81 CB          2.2090  -27.1531  -48.5737 C.3       14 UNK        -0.1800 
     82 C           0.1339  -28.0500  -49.6909 C.2       14 UNK         0.5000 
     83 O           0.3060  -28.9394  -50.5259 O.2       14 UNK        -0.5000 
     84 N          -0.7534  -27.0606  -49.8377 N.am      15 UNK        -0.5000 
     85 CA         -1.6198  -26.8647  -50.9975 C.3       15 UNK         0.1400 
     86 CB         -0.8515  -26.0886  -52.0829 C.3       15 UNK        -0.1800 
     87 C          -2.8728  -26.0961  -50.5615 C.2       15 UNK         0.5000 
     88 O          -2.8778  -25.5031  -49.4844 O.2       15 UNK        -0.5000 
     89 N          -3.9047  -26.0619  -51.4138 N.am      16 UNK        -0.5000 
     90 CA         -5.1881  -25.3815  -51.1795 C.3       16 UNK         0.1400 
     91 CB         -6.2354  -25.9679  -52.1431 C.3       16 UNK        -0.1800 
     92 C          -5.1147  -23.8357  -51.2648 C.2       16 UNK         0.5000 
     93 O          -6.0405  -23.1960  -51.7677 O.2       16 UNK        -0.5000 
     94 N          -4.0172  -23.2534  -50.7680 N.am      17 UNK        -0.5000 
     95 CA         -3.6929  -21.8300  -50.8231 C.3       17 UNK         0.1400 
     96 CB         -2.2835  -21.6158  -50.2618 C.3       17 UNK        -0.1800 
     97 C          -4.6983  -20.9391  -50.0810 C.2       17 UNK         0.5000 
     98 O          -4.9971  -19.8477  -50.5619 O.2       17 UNK        -0.5000 
     99 N          -5.2147  -21.4212  -48.9425 N.am      18 UNK        -0.5000 
    100 CA        -6.2239  -20.7300  -48.1385 C.3       18 UNK         0.1400 
    101 CB        -6.3322  -21.4010  -46.7623 C.3       18 UNK        -0.1800 
    102 C         -7.5974  -20.6664  -48.8301 C.2       18 UNK         0.5000 
    103 O         -8.2885  -19.6556  -48.7069 O.2       18 UNK        -0.5000 
    104 N         -7.9529  -21.7261  -49.5705 N.am      19 UNK        -0.5000 
    105 CA        -9.1759  -21.7964  -50.3729 C.3       19 UNK         0.1400 
    106 CB        -9.4724  -23.2603  -50.7316 C.3       19 UNK        -0.1800 
    107 C         -9.0749  -20.9299  -51.6407 C.2       19 UNK         0.5000 
    108 O        -10.0496  -20.2777  -52.0157 O.2       19 UNK        -0.5000 
    109 N         -7.8846  -20.9155  -52.2553 N.am      20 UNK        -0.5000 
    110 CA        -7.5472  -20.0885  -53.4142 C.3       20 UNK         0.1400 
    111 CB        -6.2883  -20.6716  -54.0759 C.3       20 UNK        -0.1800 
    112 C         -7.3218  -18.6015  -53.0702 C.2       20 UNK         0.5000 
    113 O         -7.2436  -17.7838  -53.9877 O.2       20 UNK        -0.5000 
    114 N         -7.1619  -18.2833  -51.7761 N.am      21 UNK        -0.5000 
    115 CA        -6.7862  -16.9793  -51.2131 C.3       21 UNK         0.1400 
    116 CB        -7.9370  -15.9659  -51.3759 C.3       21 UNK        -0.1800 
    117 C         -5.4394  -16.4662  -51.7719 C.2       21 UNK         0.5000 
    118 O         -5.2943  -15.2789  -52.0674 O.2       21 UNK        -0.5000 
    119 N         -4.4938  -17.3990  -51.9434 N.am      22 UNK        -0.5000 
    120 CA        -3.2046  -17.2322  -52.6333 C.3       22 UNK         0.1400 
    121 C         -3.3054  -17.0040  -54.1774 C.2       22 UNK         0.5000 
    122 N         -4.4670  -17.1351  -54.8081 N.am      22 UNK        -0.7600 
    123 O         -2.3048  -16.7325  -54.8346 O.2       22 UNK        -0.5000 
    124 C124       -2.2738  -16.2073  -51.9206 C.3       23 UNK        -0.0398 
    125 S125       -0.5124  -16.6833  -52.0008 S.3       23 UNK        -0.2404 
    126 C126       -0.3072  -17.4850  -50.3847 C.3       23 UNK        -0.0205 
    127 H127       10.2449  -13.4282  -45.8957 H         1 UNK         0.0600 
    128 H128        9.0317  -13.0758  -44.6623 H         1 UNK         0.0600 
    129 H129        9.4556  -11.8481  -45.8586 H         1 UNK         0.0600 
    130 H130        7.0823  -14.0395  -45.0934 H         1 UNK         0.3000 
    131 H131        5.3790  -15.0020  -46.0264 H         1 UNK         0.0600 
    132 H132        6.5893  -15.3111  -48.7992 H         1 UNK         0.0800 
    133 H133        7.3377  -16.1452  -47.4756 H         1 UNK         0.0800 
    134 H134        4.4317  -15.9661  -49.8554 H         1 UNK         0.0800 
    135 H135        5.4805  -17.3142  -50.2294 H         1 UNK         0.0800 
    136 H136        2.0655  -16.2376  -49.9452 H         1 UNK         0.1150 
    137 H137        0.3585  -20.1216  -50.5009 H         1 UNK         0.1150 
    138 H138        4.5608  -19.7124  -49.7345 H         1 UNK         0.1150 
    139 H139        3.0093  -21.9138  -51.1089 H         1 UNK         0.0800 
    140 H140        3.4918  -21.8770  -49.4304 H         1 UNK         0.0800 
    141 H141       -0.2157  -21.3469  -48.2037 H         1 UNK         0.0800 
    142 H142        1.4574  -21.1247  -47.8052 H         1 UNK         0.0800 
    143 H143        1.5348  -23.4277  -46.8063 H         1 UNK         0.0600 
    144 H144        0.3490  -21.1022  -45.7338 H         1 UNK         0.3000 
    145 H145        0.1463  -22.1265  -42.3251 H         1 UNK         0.0600 
    146 H146        1.4879  -20.0461  -42.1692 H         1 UNK         0.0600 
    147 H147        1.8821  -20.1366  -43.8829 H         1 UNK         0.0600 
    148 H148        2.4739  -21.3691  -42.7755 H         1 UNK         0.0600 
    149 H149       -0.5569  -19.7427  -43.8352 H         1 UNK         0.3000 
    150 H150       -4.0127  -20.6085  -44.1696 H         1 UNK         0.0600 
    151 H151       -3.9091  -19.6663  -41.8767 H         1 UNK         0.0600 
    152 H152       -4.3258  -18.4147  -43.0380 H         1 UNK         0.0600 
    153 H153       -2.6922  -18.5025  -42.3812 H         1 UNK         0.0600 
    154 H154       -2.6378  -18.2390  -44.8974 H         1 UNK         0.3000 
    155 H155       -1.4670  -19.3460  -48.0972 H         1 UNK         0.0600 
    156 H156       -3.8402  -18.6667  -48.4038 H         1 UNK         0.0600 
    157 H157       -2.7734  -17.3231  -48.7483 H         1 UNK         0.0600 
    158 H158       -3.6510  -17.3781  -47.2259 H         1 UNK         0.0600 
    159 H159       -1.2059  -16.8348  -46.8678 H         1 UNK         0.3000 
    160 H160        1.8017  -17.4950  -44.9763 H         1 UNK         0.0600 
    161 H161        1.0465  -15.7164  -47.3573 H         1 UNK         0.0600 
    162 H162        2.4012  -16.8225  -47.2670 H         1 UNK         0.0600 
    163 H163        2.3632  -15.4142  -46.2221 H         1 UNK         0.0600 
    164 H164       -0.0067  -15.2572  -45.1204 H         1 UNK         0.3000 
    165 H165       -2.0619  -16.1116  -42.3943 H         1 UNK         0.0600 
    166 H166       -1.2075  -13.9584  -41.4502 H         1 UNK         0.0600 
    167 H167       -0.0953  -15.2853  -41.1528 H         1 UNK         0.0600 
    168 H168        0.2618  -14.1168  -42.4138 H         1 UNK         0.0600 
    169 H169       -1.7028  -13.7290  -43.9731 H         1 UNK         0.3000 
    170 H170       -4.0303  -14.6894  -46.5391 H         1 UNK         0.0600 
    171 H171       -3.8921  -12.4931  -44.4031 H         1 UNK         0.0600 
    172 H172       -4.8583  -12.4588  -45.8768 H         1 UNK         0.0600 
    173 H173       -5.2250  -13.6234  -44.6139 H         1 UNK         0.0600 
    174 H174       -2.2372  -12.4446  -46.2389 H         1 UNK         0.3000 
    175 H175        0.0705  -13.6946  -48.7068 H         1 UNK         0.0600 
    176 H176       -1.6542  -11.2263  -48.1470 H         1 UNK         0.0600 
    177 H177       -0.3532  -11.3523  -49.3261 H         1 UNK         0.0600 
    178 H178       -1.8147  -12.3066  -49.5237 H         1 UNK         0.0600 
    179 H179        1.4933  -12.8864  -47.2534 H         1 UNK         0.3000 
    180 H180        1.5706  -10.3013  -44.9695 H         1 UNK         0.0600 
    181 H181        2.6674  -11.8647  -43.3668 H         1 UNK         0.0600 
    182 H182        1.8947  -13.2407  -44.1561 H         1 UNK         0.0600 
    183 H183        0.9223  -12.0325  -43.3172 H         1 UNK         0.0600 
    184 H184        3.5815  -12.1738  -45.6758 H         1 UNK         0.3000 
    185 H185        4.4545  -11.2197  -48.7962 H         1 UNK         0.0600 
    186 H186        5.7407   -9.5868  -46.5415 H         1 UNK         0.0600 
    187 H187        6.4906   -9.9727  -48.0909 H         1 UNK         0.0600 
    188 H188        5.0787   -8.9314  -48.0341 H         1 UNK         0.0600 
    189 H189        6.1027  -12.0092  -46.5638 H         1 UNK         0.3000 
    190 H190       -1.7515  -22.8575  -45.8496 H         1 UNK         0.3000 
    191 H191       -3.3343  -24.4940  -47.3108 H         1 UNK         0.0600 
    192 H192       -4.0335  -23.0050  -45.4231 H         1 UNK         0.0600 
    193 H193       -3.4463  -24.2067  -44.2773 H         1 UNK         0.0600 
    194 H194       -4.7868  -24.5898  -45.3482 H         1 UNK         0.0600 
    195 H195       -0.8958  -25.6227  -45.0393 H         1 UNK         0.3000 
    196 H196       -1.8550  -28.3611  -44.8233 H         1 UNK         0.0600 
    197 H197       -0.5440  -27.2885  -43.0089 H         1 UNK         0.0600 
    198 H198        0.8253  -27.0615  -44.0965 H         1 UNK         0.0600 
    199 H199        0.3192  -28.6836  -43.6366 H         1 UNK         0.0600 
    200 H200        0.0455  -26.6003  -47.1852 H         1 UNK         0.3000 
    201 H201        1.3315  -29.0758  -48.2457 H         1 UNK         0.0600 
    202 H202        2.8421  -27.1812  -47.6867 H         1 UNK         0.0600 
    203 H203        1.9296  -26.1139  -48.7526 H         1 UNK         0.0600 
    204 H204        2.8176  -27.4784  -49.4183 H         1 UNK         0.0600 
    205 H205       -0.8609  -26.3614  -49.1067 H         1 UNK         0.3000 
    206 H206       -1.9371  -27.8337  -51.3879 H         1 UNK         0.0600 
    207 H207       -0.5224  -25.1141  -51.7186 H         1 UNK         0.0600 
    208 H208        0.0316  -26.6369  -52.4113 H         1 UNK         0.0600 
    209 H209       -1.4714  -25.9191  -52.9638 H         1 UNK         0.0600 
    210 H210       -3.8134  -26.5334  -52.3021 H         1 UNK         0.3000 
    211 H211       -5.5110  -25.6167  -50.1634 H         1 UNK         0.0600 
    212 H212       -5.9957  -25.7398  -53.1824 H         1 UNK         0.0600 
    213 H213       -7.2289  -25.5675  -51.9392 H         1 UNK         0.0600 
    214 H214       -6.3020  -27.0513  -52.0429 H         1 UNK         0.0600 
    215 H215       -3.3435  -23.8624  -50.3129 H         1 UNK         0.3000 
    216 H216       -3.6945  -21.5280  -51.8721 H         1 UNK         0.0600 
    217 H217       -2.0131  -20.5599  -50.2737 H         1 UNK         0.0600 
    218 H218       -1.5406  -22.1509  -50.8531 H         1 UNK         0.0600 
    219 H219       -2.2114  -21.9673  -49.2320 H         1 UNK         0.0600 
    220 H220       -4.8946  -22.3181  -48.6091 H         1 UNK         0.3000 
    221 H221       -5.8941  -19.7013  -47.9824 H         1 UNK         0.0600 
    222 H222       -6.5663  -22.4630  -46.8447 H         1 UNK         0.0600 
    223 H223       -5.3992  -21.3006  -46.2096 H         1 UNK         0.0600 
    224 H224       -7.1131  -20.9362  -46.1591 H         1 UNK         0.0600 
    225 H225       -7.3082  -22.4979  -49.6557 H         1 UNK         0.3000 
    226 H226      -10.0072  -21.4198  -49.7730 H         1 UNK         0.0600 
    227 H227       -9.5746  -23.8738  -49.8364 H         1 UNK         0.0600 
    228 H228      -10.4058  -23.3418  -51.2899 H         1 UNK         0.0600 
    229 H229       -8.6848  -23.6933  -51.3481 H         1 UNK         0.0600 
    230 H230       -7.1588  -21.5420  -51.9211 H         1 UNK         0.3000 
    231 H231       -8.3690  -20.1406  -54.1313 H         1 UNK         0.0600 
    232 H232       -6.0280  -20.1211  -54.9808 H         1 UNK         0.0600 
    233 H233       -6.4380  -21.7132  -54.3608 H         1 UNK         0.0600 
    234 H234       -5.4283  -20.6283  -53.4069 H         1 UNK         0.0600 
    235 H235       -7.1783  -19.0470  -51.1143 H         1 UNK         0.3000 
    236 H236       -6.6323  -17.1401  -50.1450 H         1 UNK         0.0600 
    237 H237       -8.1158  -15.7199  -52.4230 H         1 UNK         0.0600 
    238 H238       -8.8658  -16.3564  -50.9598 H         1 UNK         0.0600 
    239 H239       -7.7144  -15.0345  -50.8541 H         1 UNK         0.0600 
    240 H240       -4.7034  -18.3405  -51.6189 H         1 UNK         0.3000 
    241 H241       -2.7449  -18.2166  -52.5381 H         1 UNK         0.0600 
    242 H242       -5.3289  -17.3331  -54.3129 H         1 UNK         0.3800 
    243 H243       -4.4961  -16.9918  -55.8049 H         1 UNK         0.3800 
    244 H244       -2.5488  -16.1039  -50.8702 H         1 UNK         0.0800 
    245 H245       -2.3934  -15.2099  -52.3468 H         1 UNK         0.0800 
    246 H246       -0.4557  -16.7503  -49.5920 H         1 UNK         0.0800 
    247 H247       -1.0844  -18.2396  -50.2639 H         1 UNK         0.0800 
@<TRIPOS>BOND
     1    1    2 1    
     2    1  127 1    
     3    1  128 1    
     4    1  129 1    
     5    2    3 2    
     6    2    4 am   BACKBONE|DICT|INTERRES
     7    4    5 1    
     8    4  130 1    
     9    5    6 1    
    10    5   65 1    
    11    5  131 1    
    12    6    7 1    
    13    6  132 1    
    14    6  133 1    
    15    7    8 1    
    16    8    9 1    
    17    8  134 1    
    18    8  135 1    
    19    9   10 ar   
    20    9   14 ar   
    21   10   11 ar   
    22   10  136 1    
    23   11   12 ar   
    24   11  126 1    
    25   12   13 ar   
    26   12  137 1    
    27   13   14 ar   
    28   13   15 1    
    29   14  138 1    
    30   15   16 1    
    31   15  139 1    
    32   15  140 1    
    33   16   17 1    
    34   17   18 1    
    35   17  141 1    
    36   17  142 1    
    37   18   19 1    
    38   18   67 1    
    39   18  143 1    
    40   19   20 am   BACKBONE|DICT|INTERRES
    41   19  144 1    
    42   20   21 2    
    43   20   22 1    
    44   22   23 1    
    45   22   24 1    
    46   22  145 1    
    47   23  146 1    
    48   23  147 1    
    49   23  148 1    
    50   24   25 am   BACKBONE|DICT|INTERRES
    51   24  149 1    
    52   25   26 2    
    53   25   27 1    
    54   27   28 1    
    55   27   29 1    
    56   27  150 1    
    57   28  151 1    
    58   28  152 1    
    59   28  153 1    
    60   29   30 am   BACKBONE|DICT|INTERRES
    61   29  154 1    
    62   30   31 2    
    63   30   32 1    
    64   32   33 1    
    65   32   34 1    
    66   32  155 1    
    67   33  156 1    
    68   33  157 1    
    69   33  158 1    
    70   34   35 am   BACKBONE|DICT|INTERRES
    71   34  159 1    
    72   35   36 2    
    73   35   37 1    
    74   37   38 1    
    75   37   39 1    
    76   37  160 1    
    77   38  161 1    
    78   38  162 1    
    79   38  163 1    
    80   39   40 am   BACKBONE|DICT|INTERRES
    81   39  164 1    
    82   40   41 2    
    83   40   42 1    
    84   42   43 1    
    85   42   44 1    
    86   42  165 1    
    87   43  166 1    
    88   43  167 1    
    89   43  168 1    
    90   44   45 am   BACKBONE|DICT|INTERRES
    91   44  169 1    
    92   45   46 2    
    93   45   47 1    
    94   47   48 1    
    95   47   49 1    
    96   47  170 1    
    97   48  171 1    
    98   48  172 1    
    99   48  173 1    
   100   49   50 am   BACKBONE|DICT|INTERRES
   101   49  174 1    
   102   50   51 2    
   103   50   52 1    
   104   52   53 1    
   105   52   54 1    
   106   52  175 1    
   107   53  176 1    
   108   53  177 1    
   109   53  178 1    
   110   54   55 am   BACKBONE|DICT|INTERRES
   111   54  179 1    
   112   55   56 2    
   113   55   57 1    
   114   57   58 1    
   115   57   59 1    
   116   57  180 1    
   117   58  181 1    
   118   58  182 1    
   119   58  183 1    
   120   59   60 am   BACKBONE|DICT|INTERRES
   121   59  184 1    
   122   60   61 2    
   123   60   62 1    
   124   62   63 1    
   125   62   64 1    
   126   62  185 1    
   127   63  186 1    
   128   63  187 1    
   129   63  188 1    
   130   64   65 am   BACKBONE|DICT|INTERRES
   131   64  189 1    
   132   65   66 2    
   133   67   68 2    
   134   67   69 am   BACKBONE|DICT|INTERRES
   135   69   70 1    
   136   69  190 1    
   137   70   71 1    
   138   70   72 1    
   139   70  191 1    
   140   71  192 1    
   141   71  193 1    
   142   71  194 1    
   143   72   73 2    
   144   72   74 am   BACKBONE|DICT|INTERRES
   145   74   75 1    
   146   74  195 1    
   147   75   76 1    
   148   75   77 1    
   149   75  196 1    
   150   76  197 1    
   151   76  198 1    
   152   76  199 1    
   153   77   78 2    
   154   77   79 am   BACKBONE|DICT|INTERRES
   155   79   80 1    
   156   79  200 1    
   157   80   81 1    
   158   80   82 1    
   159   80  201 1    
   160   81  202 1    
   161   81  203 1    
   162   81  204 1    
   163   82   83 2    
   164   82   84 am   BACKBONE|DICT|INTERRES
   165   84   85 1    
   166   84  205 1    
   167   85   86 1    
   168   85   87 1    
   169   85  206 1    
   170   86  207 1    
   171   86  208 1    
   172   86  209 1    
   173   87   88 2    
   174   87   89 am   BACKBONE|DICT|INTERRES
   175   89   90 1    
   176   89  210 1    
   177   90   91 1    
   178   90   92 1    
   179   90  211 1    
   180   91  212 1    
   181   91  213 1    
   182   91  214 1    
   183   92   93 2    
   184   92   94 am   BACKBONE|DICT|INTERRES
   185   94   95 1    
   186   94  215 1    
   187   95   96 1    
   188   95   97 1    
   189   95  216 1    
   190   96  217 1    
   191   96  218 1    
   192   96  219 1    
   193   97   98 2    
   194   97   99 am   BACKBONE|DICT|INTERRES
   195   99  100 1    
   196   99  220 1    
   197  100  101 1    
   198  100  102 1    
   199  100  221 1    
   200  101  222 1    
   201  101  223 1    
   202  101  224 1    
   203  102  103 2    
   204  102  104 am   BACKBONE|DICT|INTERRES
   205  104  105 1    
   206  104  225 1    
   207  105  106 1    
   208  105  107 1    
   209  105  226 1    
   210  106  227 1    
   211  106  228 1    
   212  106  229 1    
   213  107  108 2    
   214  107  109 am   BACKBONE|DICT|INTERRES
   215  109  110 1    
   216  109  230 1    
   217  110  111 1    
   218  110  112 1    
   219  110  231 1    
   220  111  232 1    
   221  111  233 1    
   222  111  234 1    
   223  112  113 2    
   224  112  114 am   BACKBONE|DICT|INTERRES
   225  114  115 1    
   226  114  235 1    
   227  115  116 1    
   228  115  117 1    
   229  115  236 1    
   230  116  237 1    
   231  116  238 1    
   232  116  239 1    
   233  117  118 2    
   234  117  119 am   BACKBONE|DICT|INTERRES
   235  119  120 1    
   236  119  240 1    
   237  120  121 1    
   238  120  124 1    
   239  120  241 1    
   240  121  122 am   BACKBONE|DICT|INTERRES
   241  121  123 2    
   242  122  242 1    
   243  122  243 1    
   244  124  125 1    
   245  124  244 1    
   246  124  245 1    
   247  125  126 1    
   248  126  246 1    
   249  126  247 1    
@<TRIPOS>SUBSTRUCTURE
     1 UNK         1 GROUP             0       ****    0 ROOT    
