@<TRIPOS>MOLECULE
3R540
247   249    1
SMALL
USER_CHARGES


@<TRIPOS>ATOM
      1 CA         -5.8752  -15.3056  -48.1008 C.3       0 UNK        -0.1800 
      2 C          -4.7455  -14.4399  -48.6296 C.2       0 UNK         0.5000 
      3 O          -5.0068  -13.4015  -49.2372 O.2       0 UNK        -0.5000 
      4 N          -3.4934  -14.8595  -48.4028 N.am      1 UNK        -0.5000 
      5 CA         -2.2984  -14.0514  -48.6726 C.3       1 UNK         0.1400 
      6 C6         -0.9919  -14.8560  -48.4822 C.3       23 UNK        -0.0398 
      7 S7         -0.7375  -16.1900  -49.7006 S.3       23 UNK        -0.2404 
      8 C8          1.0295  -16.5046  -49.3694 C.3       23 UNK        -0.0205 
      9 C9          1.5898  -17.7708  -50.0090 C.ar      23 UNK        -0.0193 
     10 C10         1.4613  -18.0036  -51.3817 C.ar      23 UNK        -0.1150 
     11 C11         2.0913  -19.1000  -51.9819 C.ar      23 UNK        -0.0193 
     12 C12         2.8677  -19.9592  -51.1963 C.ar      23 UNK        -0.1150 
     13 C13         2.9959  -19.7479  -49.8208 C.ar      23 UNK        -0.0193 
     14 C14         2.3417  -18.6603  -49.2337 C.ar      23 UNK        -0.1150 
     15 C15         3.9033  -20.6387  -48.9770 C.3       23 UNK        -0.0205 
     16 S16         3.4687  -22.4103  -49.0250 S.3       23 UNK        -0.2404 
     17 C17         1.7650  -22.4266  -48.3747 C.3       23 UNK        -0.0398 
     18 CA          1.6195  -23.0685  -46.9633 C.3       11 UNK         0.1400 
     19 N           2.4320  -22.4333  -45.9147 N.am      11 UNK        -0.5000 
     20 C           2.4860  -21.1305  -45.6017 C.2       10 UNK         0.5000 
     21 O           1.7853  -20.2749  -46.1383 O.2       10 UNK        -0.5000 
     22 CA          3.5113  -20.7244  -44.5225 C.3       10 UNK         0.1400 
     23 CB          3.1330  -19.4221  -43.7964 C.3       10 UNK        -0.1800 
     24 N           3.6529  -21.7826  -43.5272 N.am      10 UNK        -0.5000 
     25 C           4.7493  -22.5189  -43.3052 C.2       9 UNK         0.5000 
     26 O           5.8040  -22.3777  -43.9244 O.2       9 UNK        -0.5000 
     27 CA          4.6579  -23.6040  -42.2105 C.3       9 UNK         0.1400 
     28 CB          5.4181  -23.1595  -40.9512 C.3       9 UNK        -0.1800 
     29 N           3.2832  -23.9397  -41.8323 N.am      9 UNK        -0.5000 
     30 C           2.4017  -24.5771  -42.6147 C.2       8 UNK         0.5000 
     31 O           2.6701  -25.0153  -43.7337 O.2       8 UNK        -0.5000 
     32 CA          0.9612  -24.6801  -42.0790 C.3       8 UNK         0.1400 
     33 CB          0.7665  -25.9839  -41.2916 C.3       8 UNK        -0.1800 
     34 N           0.5535  -23.5417  -41.2449 N.am      8 UNK        -0.5000 
     35 C           0.4846  -22.2718  -41.6666 C.2       7 UNK         0.5000 
     36 O           0.8083  -21.9154  -42.8013 O.2       7 UNK        -0.5000 
     37 CA          0.0454  -21.2188  -40.6339 C.3       7 UNK         0.1400 
     38 CB          1.2809  -20.5879  -39.9736 C.3       7 UNK        -0.1800 
     39 N          -0.7553  -20.1572  -41.2438 N.am      7 UNK        -0.5000 
     40 C          -1.9928  -20.3106  -41.7342 C.2       6 UNK         0.5000 
     41 O          -2.6280  -21.3627  -41.6555 O.2       6 UNK        -0.5000 
     42 CA         -2.6457  -19.0919  -42.4197 C.3       6 UNK         0.1400 
     43 CB         -3.7645  -18.5077  -41.5438 C.3       6 UNK        -0.1800 
     44 N          -1.7105  -18.0173  -42.7598 N.am      6 UNK        -0.5000 
     45 C          -0.8076  -18.0625  -43.7452 C.2       5 UNK         0.5000 
     46 O          -0.6380  -19.0592  -44.4435 O.2       5 UNK        -0.5000 
     47 CA          0.0419  -16.7922  -43.9836 C.3       5 UNK         0.1400 
     48 CB          0.8044  -16.8365  -45.3189 C.3       5 UNK        -0.1800 
     49 N          -0.7249  -15.5450  -43.9630 N.am      5 UNK        -0.5000 
     50 C          -1.2459  -14.9217  -42.8991 C.2       4 UNK         0.5000 
     51 O          -1.2236  -15.3840  -41.7569 O.2       4 UNK        -0.5000 
     52 CA         -1.8835  -13.5471  -43.1894 C.3       4 UNK         0.1400 
     53 CB         -2.2500  -12.7580  -41.9152 C.3       4 UNK        -0.1800 
     54 N          -1.0544  -12.7460  -44.1005 N.am      4 UNK        -0.5000 
     55 C           0.1891  -12.2855  -43.8761 C.2       3 UNK         0.5000 
     56 O           0.7811  -12.4140  -42.8040 O.2       3 UNK        -0.5000 
     57 CA          0.9244  -11.5914  -45.0450 C.3       3 UNK         0.1400 
     58 CB          2.1197  -12.4439  -45.5034 C.3       3 UNK        -0.1800 
     59 N           0.0790  -11.3290  -46.2100 N.am      3 UNK        -0.5000 
     60 C          -0.8644  -10.3818  -46.2920 C.2       2 UNK         0.5000 
     61 O          -1.0776   -9.5519  -45.4079 O.2       2 UNK        -0.5000 
     62 CA         -1.7381  -10.3829  -47.5648 C.3       2 UNK         0.1400 
     63 CB         -1.2511   -9.3080  -48.5487 C.3       2 UNK        -0.1800 
     64 N          -1.8049  -11.6741  -48.2656 N.am      2 UNK        -0.5000 
     65 C          -2.2757  -12.8161  -47.7442 C.2       1 UNK         0.5000 
     66 O          -2.6318  -12.9318  -46.5682 O.2       1 UNK        -0.5000 
     67 C           0.1268  -23.2322  -46.5940 C.2       11 UNK         0.5000 
     68 O          -0.6298  -23.7315  -47.4282 O.2       11 UNK        -0.5000 
     69 N          -0.2856  -22.8308  -45.3799 N.am      12 UNK        -0.5000 
     70 CA         -1.6742  -22.7936  -44.8988 C.3       12 UNK         0.1400 
     71 CB         -2.2468  -24.2165  -44.7219 C.3       12 UNK        -0.1800 
     72 C          -2.5755  -21.8997  -45.7765 C.2       12 UNK         0.5000 
     73 O          -3.7378  -22.2284  -46.0242 O.2       12 UNK        -0.5000 
     74 N          -2.0180  -20.7798  -46.2497 N.am      13 UNK        -0.5000 
     75 CA         -2.6244  -19.8564  -47.2014 C.3       13 UNK         0.1400 
     76 CB         -1.5078  -19.1428  -47.9735 C.3       13 UNK        -0.1800 
     77 C          -3.6208  -18.8871  -46.5358 C.2       13 UNK         0.5000 
     78 O          -3.5292  -17.6689  -46.7079 O.2       13 UNK        -0.5000 
     79 N          -4.5885  -19.4690  -45.8143 N.am      14 UNK        -0.5000 
     80 CA         -5.7892  -18.8029  -45.3066 C.3       14 UNK         0.1400 
     81 CB         -6.4409  -19.6963  -44.2412 C.3       14 UNK        -0.1800 
     82 C          -6.7879  -18.4800  -46.4382 C.2       14 UNK         0.5000 
     83 O          -7.6029  -17.5696  -46.2901 O.2       14 UNK        -0.5000 
     84 N          -6.6681  -19.2039  -47.5580 N.am      15 UNK        -0.5000 
     85 CA         -7.1993  -18.8515  -48.8679 C.3       15 UNK         0.1400 
     86 CB         -8.0207  -20.0264  -49.4153 C.3       15 UNK        -0.1800 
     87 C          -5.9934  -18.5426  -49.7710 C.2       15 UNK         0.5000 
     88 O          -4.9478  -19.1867  -49.6334 O.2       15 UNK        -0.5000 
     89 N          -6.1488  -17.5429  -50.6463 N.am      16 UNK        -0.5000 
     90 CA         -5.0768  -16.9391  -51.4411 C.3       16 UNK         0.1400 
     91 CB         -5.6591  -15.7774  -52.2594 C.3       16 UNK        -0.1800 
     92 C          -4.3399  -17.9272  -52.3607 C.2       16 UNK         0.5000 
     93 O          -4.9515  -18.8693  -52.8713 O.2       16 UNK        -0.5000 
     94 N          -3.0364  -17.6752  -52.5537 N.am      17 UNK        -0.5000 
     95 CA         -2.1100  -18.4530  -53.3850 C.3       17 UNK         0.1400 
     96 CB         -2.4602  -18.2748  -54.8778 C.3       17 UNK        -0.1800 
     97 C          -2.0173  -19.9303  -52.9478 C.2       17 UNK         0.5000 
     98 O          -1.9923  -20.8231  -53.7967 O.2       17 UNK        -0.5000 
     99 N          -2.0117  -20.1434  -51.6214 N.am      18 UNK        -0.5000 
    100 CA        -2.0352  -21.4383  -50.9324 C.3       18 UNK         0.1400 
    101 CB        -0.7162  -22.2006  -51.1654 C.3       18 UNK        -0.1800 
    102 C         -3.2858  -22.2621  -51.2975 C.2       18 UNK         0.5000 
    103 O         -3.1716  -23.4284  -51.6712 O.2       18 UNK        -0.5000 
    104 N         -4.4597  -21.6154  -51.2341 N.am      19 UNK        -0.5000 
    105 CA        -5.7585  -22.1188  -51.6992 C.3       19 UNK         0.1400 
    106 CB        -6.2500  -23.2772  -50.8059 C.3       19 UNK        -0.1800 
    107 C         -5.7360  -22.4747  -53.2019 C.2       19 UNK         0.5000 
    108 O         -6.2168  -23.5356  -53.6033 O.2       19 UNK        -0.5000 
    109 N         -5.1324  -21.5750  -53.9905 N.am      20 UNK        -0.5000 
    110 CA        -4.8669  -21.6525  -55.4303 C.3       20 UNK         0.1400 
    111 CB        -6.1831  -21.7307  -56.2305 C.3       20 UNK        -0.1800 
    112 C         -3.8584  -22.7418  -55.8620 C.2       20 UNK         0.5000 
    113 O         -3.6523  -22.9117  -57.0657 O.2       20 UNK        -0.5000 
    114 N         -3.2104  -23.4371  -54.9135 N.am      21 UNK        -0.5000 
    115 CA        -2.2210  -24.4855  -55.1856 C.3       21 UNK         0.1400 
    116 CB        -1.8789  -25.2372  -53.8920 C.3       21 UNK        -0.1800 
    117 C         -0.9365  -23.9700  -55.8624 C.2       21 UNK         0.5000 
    118 O         -0.2817  -24.7428  -56.5639 O.2       21 UNK        -0.5000 
    119 N         -0.6114  -22.6835  -55.6749 N.am      22 UNK        -0.5000 
    120 CA         0.4785  -21.9984  -56.3905 C.3       22 UNK         0.1400 
    121 C          0.1628  -21.6877  -57.8863 C.2       22 UNK         0.5000 
    122 N         -1.0578  -21.8794  -58.3766 N.am      22 UNK        -0.7600 
    123 O          1.0504  -21.2675  -58.6238 O.2       22 UNK        -0.5000 
    124 C124        0.9516  -20.7151  -55.6620 C.3       23 UNK        -0.0398 
    125 S125        1.4435  -20.9906  -53.9293 S.3       23 UNK        -0.2404 
    126 C126        1.9855  -19.3094  -53.4872 C.3       23 UNK        -0.0205 
    127 H127       -6.2944  -14.8660  -47.1960 H         1 UNK         0.0600 
    128 H128       -5.5202  -16.3055  -47.8613 H         1 UNK         0.0600 
    129 H129       -6.6714  -15.3902  -48.8397 H         1 UNK         0.0600 
    130 H130       -3.3444  -15.7175  -47.8838 H         1 UNK         0.3000 
    131 H131       -2.3485  -13.7063  -49.7075 H         1 UNK         0.0600 
    132 H132       -0.9656  -15.2929  -47.4838 H         1 UNK         0.0800 
    133 H133       -0.1284  -14.1908  -48.5479 H         1 UNK         0.0800 
    134 H134        1.6109  -15.6538  -49.7272 H         1 UNK         0.0800 
    135 H135        1.1789  -16.5419  -48.2900 H         1 UNK         0.0800 
    136 H136        0.8995  -17.3058  -51.9859 H         1 UNK         0.1150 
    137 H137        3.3834  -20.7891  -51.6587 H         1 UNK         0.1150 
    138 H138        2.4580  -18.4797  -48.1738 H         1 UNK         0.1150 
    139 H139        4.9256  -20.5274  -49.3403 H         1 UNK         0.0800 
    140 H140        3.9186  -20.3031  -47.9407 H         1 UNK         0.0800 
    141 H141        1.3420  -21.4219  -48.3940 H         1 UNK         0.0800 
    142 H142        1.1871  -22.9981  -49.1008 H         1 UNK         0.0800 
    143 H143        2.0029  -24.0874  -47.0347 H         1 UNK         0.0600 
    144 H144        3.0217  -23.0646  -45.3902 H         1 UNK         0.3000 
    145 H145        4.4594  -20.5583  -45.0374 H         1 UNK         0.0600 
    146 H146        3.7883  -19.2373  -42.9452 H         1 UNK         0.0600 
    147 H147        2.1061  -19.4489  -43.4295 H         1 UNK         0.0600 
    148 H148        3.2331  -18.5677  -44.4643 H         1 UNK         0.0600 
    149 H149        2.8042  -21.9947  -43.0139 H         1 UNK         0.3000 
    150 H150        5.1351  -24.5051  -42.6014 H         1 UNK         0.0600 
    151 H151        4.9765  -22.2651  -40.5098 H         1 UNK         0.0600 
    152 H152        5.4200  -23.9434  -40.1936 H         1 UNK         0.0600 
    153 H153        6.4595  -22.9315  -41.1824 H         1 UNK         0.0600 
    154 H154        2.9705  -23.6127  -40.9301 H         1 UNK         0.3000 
    155 H155        0.3039  -24.7050  -42.9475 H         1 UNK         0.0600 
    156 H156        1.0421  -26.8498  -41.8951 H         1 UNK         0.0600 
    157 H157       -0.2748  -26.1144  -40.9963 H         1 UNK         0.0600 
    158 H158        1.3781  -26.0045  -40.3888 H         1 UNK         0.0600 
    159 H159        0.2874  -23.7571  -40.2946 H         1 UNK         0.3000 
    160 H160       -0.5576  -21.7047  -39.8641 H         1 UNK         0.0600 
    161 H161        1.9147  -20.0832  -40.7045 H         1 UNK         0.0600 
    162 H162        1.8908  -21.3443  -39.4781 H         1 UNK         0.0600 
    163 H163        0.9944  -19.8574  -39.2168 H         1 UNK         0.0600 
    164 H164       -0.2997  -19.2685  -41.3825 H         1 UNK         0.3000 
    165 H165       -3.0954  -19.4536  -43.3462 H         1 UNK         0.0600 
    166 H166       -4.3016  -17.7170  -42.0682 H         1 UNK         0.0600 
    167 H167       -4.4951  -19.2719  -41.2757 H         1 UNK         0.0600 
    168 H168       -3.3708  -18.0897  -40.6165 H         1 UNK         0.0600 
    169 H169       -1.7608  -17.1643  -42.2099 H         1 UNK         0.3000 
    170 H170        0.7783  -16.7548  -43.1785 H         1 UNK         0.0600 
    171 H171        1.3910  -17.7466  -45.4209 H         1 UNK         0.0600 
    172 H172        0.1175  -16.8099  -46.1617 H         1 UNK         0.0600 
    173 H173        1.4914  -15.9957  -45.4141 H         1 UNK         0.0600 
    174 H174       -0.8328  -15.0888  -44.8556 H         1 UNK         0.3000 
    175 H175       -2.8124  -13.7504  -43.7245 H         1 UNK         0.0600 
    176 H176       -1.3814  -12.5752  -41.2823 H         1 UNK         0.0600 
    177 H177       -2.6937  -11.7939  -42.1635 H         1 UNK         0.0600 
    178 H178       -2.9781  -13.3057  -41.3158 H         1 UNK         0.0600 
    179 H179       -1.4629  -12.5959  -45.0182 H         1 UNK         0.3000 
    180 H180        1.3046  -10.6385  -44.6709 H         1 UNK         0.0600 
    181 H181        1.7989  -13.4118  -45.8905 H         1 UNK         0.0600 
    182 H182        2.8075  -12.6330  -44.6781 H         1 UNK         0.0600 
    183 H183        2.6875  -11.9398  -46.2857 H         1 UNK         0.0600 
    184 H184        0.1929  -11.9492  -46.9969 H         1 UNK         0.3000 
    185 H185       -2.7534  -10.1267  -47.2552 H         1 UNK         0.0600 
    186 H186       -1.2167   -8.3272  -48.0722 H         1 UNK         0.0600 
    187 H187       -0.2493   -9.5274  -48.9202 H         1 UNK         0.0600 
    188 H188       -1.9184   -9.2258  -49.4068 H         1 UNK         0.0600 
    189 H189       -1.5195  -11.6623  -49.2346 H         1 UNK         0.3000 
    190 H190        0.3935  -22.4168  -44.7492 H         1 UNK         0.3000 
    191 H191       -1.6438  -22.3252  -43.9173 H         1 UNK         0.0600 
    192 H192       -3.2173  -24.1834  -44.2256 H         1 UNK         0.0600 
    193 H193       -1.5981  -24.8417  -44.1125 H         1 UNK         0.0600 
    194 H194       -2.3894  -24.7191  -45.6789 H         1 UNK         0.0600 
    195 H195       -1.1118  -20.4994  -45.8866 H         1 UNK         0.3000 
    196 H196       -3.1961  -20.4409  -47.9242 H         1 UNK         0.0600 
    197 H197       -0.9504  -18.4582  -47.3359 H         1 UNK         0.0600 
    198 H198       -0.7945  -19.8480  -48.4004 H         1 UNK         0.0600 
    199 H199       -1.9338  -18.5706  -48.7960 H         1 UNK         0.0600 
    200 H200       -4.5571  -20.4813  -45.7329 H         1 UNK         0.3000 
    201 H201       -5.4930  -17.8613  -44.8393 H         1 UNK         0.0600 
    202 H202       -7.3184  -19.2126  -43.8103 H         1 UNK         0.0600 
    203 H203       -5.7509  -19.9054  -43.4240 H         1 UNK         0.0600 
    204 H204       -6.7629  -20.6510  -44.6592 H         1 UNK         0.0600 
    205 H205       -5.9281  -19.8909  -47.5851 H         1 UNK         0.3000 
    206 H206       -7.8364  -17.9667  -48.8052 H         1 UNK         0.0600 
    207 H207       -8.9082  -20.1975  -48.8059 H         1 UNK         0.0600 
    208 H208       -8.3568  -19.8327  -50.4346 H         1 UNK         0.0600 
    209 H209       -7.4435  -20.9500  -49.4226 H         1 UNK         0.0600 
    210 H210       -7.0564  -17.1103  -50.7337 H         1 UNK         0.3000 
    211 H211       -4.3481  -16.5333  -50.7369 H         1 UNK         0.0600 
    212 H212       -6.4240  -16.1225  -52.9564 H         1 UNK         0.0600 
    213 H213       -4.8834  -15.2801  -52.8433 H         1 UNK         0.0600 
    214 H214       -6.1077  -15.0231  -51.6126 H         1 UNK         0.0600 
    215 H215       -2.6269  -16.8803  -52.0824 H         1 UNK         0.3000 
    216 H216       -1.1171  -18.0311  -53.2275 H         1 UNK         0.0600 
    217 H217       -2.4256  -17.2235  -55.1631 H         1 UNK         0.0600 
    218 H218       -3.4578  -18.6460  -55.1086 H         1 UNK         0.0600 
    219 H219       -1.7606  -18.8045  -55.5219 H         1 UNK         0.0600 
    220 H220       -2.0619  -19.3319  -51.0232 H         1 UNK         0.3000 
    221 H221       -2.1088  -21.2327  -49.8660 H         1 UNK         0.0600 
    222 H222       -0.6874  -23.1157  -50.5733 H         1 UNK         0.0600 
    223 H223       -0.5912  -22.4852  -52.2100 H         1 UNK         0.0600 
    224 H224        0.1438  -21.5940  -50.8813 H         1 UNK         0.0600 
    225 H225       -4.4625  -20.6561  -50.9005 H         1 UNK         0.3000 
    226 H226       -6.4614  -21.2920  -51.5966 H         1 UNK         0.0600 
    227 H227       -6.2209  -23.0052  -49.7511 H         1 UNK         0.0600 
    228 H228       -7.2798  -23.5431  -51.0465 H         1 UNK         0.0600 
    229 H229       -5.6434  -24.1743  -50.9336 H         1 UNK         0.0600 
    230 H230       -4.8071  -20.7204  -53.5463 H         1 UNK         0.3000 
    231 H231       -4.3917  -20.7059  -55.6860 H         1 UNK         0.0600 
    232 H232       -5.9991  -21.6174  -57.2994 H         1 UNK         0.0600 
    233 H233       -6.8709  -20.9378  -55.9366 H         1 UNK         0.0600 
    234 H234       -6.6891  -22.6858  -56.0885 H         1 UNK         0.0600 
    235 H235       -3.3840  -23.2186  -53.9401 H         1 UNK         0.3000 
    236 H236       -2.6845  -25.1977  -55.8712 H         1 UNK         0.0600 
    237 H237       -2.7766  -25.6156  -53.4028 H         1 UNK         0.0600 
    238 H238       -1.2351  -26.0930  -54.0984 H         1 UNK         0.0600 
    239 H239       -1.3509  -24.5976  -53.1849 H         1 UNK         0.0600 
    240 H240       -1.1773  -22.1102  -55.0545 H         1 UNK         0.3000 
    241 H241        1.3304  -22.6809  -56.4079 H         1 UNK         0.0600 
    242 H242       -1.8075  -22.2439  -57.8010 H         1 UNK         0.3800 
    243 H243       -1.2345  -21.6758  -59.3475 H         1 UNK         0.3800 
    244 H244        0.1637  -19.9636  -55.6790 H         1 UNK         0.0800 
    245 H245        1.8048  -20.2768  -56.1831 H         1 UNK         0.0800 
    246 H246        1.2909  -18.5878  -53.9193 H         1 UNK         0.0800 
    247 H247        2.9573  -19.1157  -53.9428 H         1 UNK         0.0800 
@<TRIPOS>BOND
     1    1    2 1    
     2    1  127 1    
     3    1  128 1    
     4    1  129 1    
     5    2    3 2    
     6    2    4 am   BACKBONE|DICT|INTERRES
     7    4    5 1    
     8    4  130 1    
     9    5    6 1    
    10    5   65 1    
    11    5  131 1    
    12    6    7 1    
    13    6  132 1    
    14    6  133 1    
    15    7    8 1    
    16    8    9 1    
    17    8  134 1    
    18    8  135 1    
    19    9   10 ar   
    20    9   14 ar   
    21   10   11 ar   
    22   10  136 1    
    23   11   12 ar   
    24   11  126 1    
    25   12   13 ar   
    26   12  137 1    
    27   13   14 ar   
    28   13   15 1    
    29   14  138 1    
    30   15   16 1    
    31   15  139 1    
    32   15  140 1    
    33   16   17 1    
    34   17   18 1    
    35   17  141 1    
    36   17  142 1    
    37   18   19 1    
    38   18   67 1    
    39   18  143 1    
    40   19   20 am   BACKBONE|DICT|INTERRES
    41   19  144 1    
    42   20   21 2    
    43   20   22 1    
    44   22   23 1    
    45   22   24 1    
    46   22  145 1    
    47   23  146 1    
    48   23  147 1    
    49   23  148 1    
    50   24   25 am   BACKBONE|DICT|INTERRES
    51   24  149 1    
    52   25   26 2    
    53   25   27 1    
    54   27   28 1    
    55   27   29 1    
    56   27  150 1    
    57   28  151 1    
    58   28  152 1    
    59   28  153 1    
    60   29   30 am   BACKBONE|DICT|INTERRES
    61   29  154 1    
    62   30   31 2    
    63   30   32 1    
    64   32   33 1    
    65   32   34 1    
    66   32  155 1    
    67   33  156 1    
    68   33  157 1    
    69   33  158 1    
    70   34   35 am   BACKBONE|DICT|INTERRES
    71   34  159 1    
    72   35   36 2    
    73   35   37 1    
    74   37   38 1    
    75   37   39 1    
    76   37  160 1    
    77   38  161 1    
    78   38  162 1    
    79   38  163 1    
    80   39   40 am   BACKBONE|DICT|INTERRES
    81   39  164 1    
    82   40   41 2    
    83   40   42 1    
    84   42   43 1    
    85   42   44 1    
    86   42  165 1    
    87   43  166 1    
    88   43  167 1    
    89   43  168 1    
    90   44   45 am   BACKBONE|DICT|INTERRES
    91   44  169 1    
    92   45   46 2    
    93   45   47 1    
    94   47   48 1    
    95   47   49 1    
    96   47  170 1    
    97   48  171 1    
    98   48  172 1    
    99   48  173 1    
   100   49   50 am   BACKBONE|DICT|INTERRES
   101   49  174 1    
   102   50   51 2    
   103   50   52 1    
   104   52   53 1    
   105   52   54 1    
   106   52  175 1    
   107   53  176 1    
   108   53  177 1    
   109   53  178 1    
   110   54   55 am   BACKBONE|DICT|INTERRES
   111   54  179 1    
   112   55   56 2    
   113   55   57 1    
   114   57   58 1    
   115   57   59 1    
   116   57  180 1    
   117   58  181 1    
   118   58  182 1    
   119   58  183 1    
   120   59   60 am   BACKBONE|DICT|INTERRES
   121   59  184 1    
   122   60   61 2    
   123   60   62 1    
   124   62   63 1    
   125   62   64 1    
   126   62  185 1    
   127   63  186 1    
   128   63  187 1    
   129   63  188 1    
   130   64   65 am   BACKBONE|DICT|INTERRES
   131   64  189 1    
   132   65   66 2    
   133   67   68 2    
   134   67   69 am   BACKBONE|DICT|INTERRES
   135   69   70 1    
   136   69  190 1    
   137   70   71 1    
   138   70   72 1    
   139   70  191 1    
   140   71  192 1    
   141   71  193 1    
   142   71  194 1    
   143   72   73 2    
   144   72   74 am   BACKBONE|DICT|INTERRES
   145   74   75 1    
   146   74  195 1    
   147   75   76 1    
   148   75   77 1    
   149   75  196 1    
   150   76  197 1    
   151   76  198 1    
   152   76  199 1    
   153   77   78 2    
   154   77   79 am   BACKBONE|DICT|INTERRES
   155   79   80 1    
   156   79  200 1    
   157   80   81 1    
   158   80   82 1    
   159   80  201 1    
   160   81  202 1    
   161   81  203 1    
   162   81  204 1    
   163   82   83 2    
   164   82   84 am   BACKBONE|DICT|INTERRES
   165   84   85 1    
   166   84  205 1    
   167   85   86 1    
   168   85   87 1    
   169   85  206 1    
   170   86  207 1    
   171   86  208 1    
   172   86  209 1    
   173   87   88 2    
   174   87   89 am   BACKBONE|DICT|INTERRES
   175   89   90 1    
   176   89  210 1    
   177   90   91 1    
   178   90   92 1    
   179   90  211 1    
   180   91  212 1    
   181   91  213 1    
   182   91  214 1    
   183   92   93 2    
   184   92   94 am   BACKBONE|DICT|INTERRES
   185   94   95 1    
   186   94  215 1    
   187   95   96 1    
   188   95   97 1    
   189   95  216 1    
   190   96  217 1    
   191   96  218 1    
   192   96  219 1    
   193   97   98 2    
   194   97   99 am   BACKBONE|DICT|INTERRES
   195   99  100 1    
   196   99  220 1    
   197  100  101 1    
   198  100  102 1    
   199  100  221 1    
   200  101  222 1    
   201  101  223 1    
   202  101  224 1    
   203  102  103 2    
   204  102  104 am   BACKBONE|DICT|INTERRES
   205  104  105 1    
   206  104  225 1    
   207  105  106 1    
   208  105  107 1    
   209  105  226 1    
   210  106  227 1    
   211  106  228 1    
   212  106  229 1    
   213  107  108 2    
   214  107  109 am   BACKBONE|DICT|INTERRES
   215  109  110 1    
   216  109  230 1    
   217  110  111 1    
   218  110  112 1    
   219  110  231 1    
   220  111  232 1    
   221  111  233 1    
   222  111  234 1    
   223  112  113 2    
   224  112  114 am   BACKBONE|DICT|INTERRES
   225  114  115 1    
   226  114  235 1    
   227  115  116 1    
   228  115  117 1    
   229  115  236 1    
   230  116  237 1    
   231  116  238 1    
   232  116  239 1    
   233  117  118 2    
   234  117  119 am   BACKBONE|DICT|INTERRES
   235  119  120 1    
   236  119  240 1    
   237  120  121 1    
   238  120  124 1    
   239  120  241 1    
   240  121  122 am   BACKBONE|DICT|INTERRES
   241  121  123 2    
   242  122  242 1    
   243  122  243 1    
   244  124  125 1    
   245  124  244 1    
   246  124  245 1    
   247  125  126 1    
   248  126  246 1    
   249  126  247 1    
@<TRIPOS>SUBSTRUCTURE
     1 UNK         1 GROUP             0       ****    0 ROOT    
