@<TRIPOS>MOLECULE
3R540
247   249    1
SMALL
USER_CHARGES


@<TRIPOS>ATOM
      1 CA         -5.7137  -15.6802  -42.2911 C.3       0 UNK        -0.1800 
      2 C          -4.5529  -15.3534  -43.2191 C.2       0 UNK         0.5000 
      3 O          -4.5610  -14.3053  -43.8653 O.2       0 UNK        -0.5000 
      4 N          -3.5452  -16.2371  -43.2752 N.am      1 UNK        -0.5000 
      5 CA         -2.3576  -16.1146  -44.1361 C.3       1 UNK         0.1400 
      6 C6         -1.5092  -17.4186  -44.1555 C.3       23 UNK        -0.0398 
      7 S7         -1.2512  -18.0630  -45.8410 S.3       23 UNK        -0.2404 
      8 C8          0.3277  -17.2871  -46.3044 C.3       23 UNK        -0.0205 
      9 C9          0.7293  -17.7078  -47.7077 C.ar      23 UNK        -0.0193 
     10 C10         0.2741  -16.9947  -48.8188 C.ar      23 UNK        -0.1150 
     11 C11         0.5965  -17.4136  -50.1124 C.ar      23 UNK        -0.0193 
     12 C12         1.3512  -18.5763  -50.2871 C.ar      23 UNK        -0.1150 
     13 C13         1.7878  -19.3202  -49.1870 C.ar      23 UNK        -0.0193 
     14 C14         1.5168  -18.8436  -47.8984 C.ar      23 UNK        -0.1150 
     15 C15         2.5142  -20.6457  -49.4290 C.3       23 UNK        -0.0205 
     16 S16         2.2612  -21.9225  -48.1391 S.3       23 UNK        -0.2404 
     17 C17         0.4407  -21.9392  -48.0011 C.3       23 UNK        -0.0398 
     18 CA         -0.1267  -23.1157  -47.1778 C.3       11 UNK         0.1400 
     19 N           0.4894  -23.2335  -45.8518 N.am      11 UNK        -0.5000 
     20 C           0.3096  -24.2736  -45.0240 C.2       10 UNK         0.5000 
     21 O          -0.3678  -25.2592  -45.3111 O.2       10 UNK        -0.5000 
     22 CA          0.9321  -24.1712  -43.6166 C.3       10 UNK         0.1400 
     23 CB          2.3595  -24.7371  -43.6184 C.3       10 UNK        -0.1800 
     24 N           0.9603  -22.8041  -43.0943 N.am      10 UNK        -0.5000 
     25 C          -0.1023  -21.9987  -42.9596 C.2       9 UNK         0.5000 
     26 O          -1.2574  -22.3739  -43.1623 O.2       9 UNK        -0.5000 
     27 CA          0.1570  -20.5209  -42.5948 C.3       9 UNK         0.1400 
     28 CB         -0.5189  -20.1557  -41.2647 C.3       9 UNK        -0.1800 
     29 N           1.5711  -20.1304  -42.5370 N.am      9 UNK        -0.5000 
     30 C           2.4130  -20.0949  -43.5787 C.2       8 UNK         0.5000 
     31 O           2.0962  -20.4363  -44.7202 O.2       8 UNK        -0.5000 
     32 CA          3.8648  -19.6898  -43.2557 C.3       8 UNK         0.1400 
     33 CB          4.6090  -20.8641  -42.5987 C.3       8 UNK        -0.1800 
     34 N           4.6113  -19.2782  -44.4436 N.am      8 UNK        -0.5000 
     35 C           4.3952  -18.1523  -45.1324 C.2       7 UNK         0.5000 
     36 O           3.5857  -17.2847  -44.7894 O.2       7 UNK        -0.5000 
     37 CA          5.2293  -17.9614  -46.4119 C.3       7 UNK         0.1400 
     38 CB          5.2905  -19.2351  -47.2776 C.3       7 UNK        -0.1800 
     39 N           4.6464  -16.8603  -47.1655 N.am      7 UNK        -0.5000 
     40 C           5.2607  -16.0870  -48.0659 C.2       6 UNK         0.5000 
     41 O           6.4110  -16.2750  -48.4642 O.2       6 UNK        -0.5000 
     42 CA          4.4570  -14.8797  -48.5909 C.3       6 UNK         0.1400 
     43 CB          3.7672  -15.2302  -49.9175 C.3       6 UNK        -0.1800 
     44 N           3.4451  -14.4189  -47.6367 N.am      6 UNK        -0.5000 
     45 C           3.6988  -13.8220  -46.4663 C.2       5 UNK         0.5000 
     46 O           4.8295  -13.4813  -46.1129 O.2       5 UNK        -0.5000 
     47 CA          2.4861  -13.5836  -45.5401 C.3       5 UNK         0.1400 
     48 CB          2.9025  -13.0794  -44.1469 C.3       5 UNK        -0.1800 
     49 N           1.4921  -12.6579  -46.0877 N.am      5 UNK        -0.5000 
     50 C           0.6614  -12.9016  -47.1099 C.2       4 UNK         0.5000 
     51 O           0.7062  -13.9177  -47.8038 O.2       4 UNK        -0.5000 
     52 CA         -0.4411  -11.8581  -47.3363 C.3       4 UNK         0.1400 
     53 CB         -1.3660  -12.1990  -48.5218 C.3       4 UNK        -0.1800 
     54 N          -1.2265  -11.7444  -46.1099 N.am      4 UNK        -0.5000 
     55 C          -1.8820  -10.6474  -45.7101 C.2       3 UNK         0.5000 
     56 O          -1.8773   -9.5890  -46.3404 O.2       3 UNK        -0.5000 
     57 CA         -2.6881  -10.7304  -44.3960 C.3       3 UNK         0.1400 
     58 CB         -4.1900  -10.8498  -44.6975 C.3       3 UNK        -0.1800 
     59 N          -2.2957  -11.8422  -43.5287 N.am      3 UNK        -0.5000 
     60 C          -1.1503  -11.9062  -42.8343 C.2       2 UNK         0.5000 
     61 O          -0.3170  -11.0001  -42.8124 O.2       2 UNK        -0.5000 
     62 CA         -0.8733  -13.2058  -42.0476 C.3       2 UNK         0.1400 
     63 CB         -1.2269  -13.0175  -40.5646 C.3       2 UNK        -0.1800 
     64 N          -1.5778  -14.3879  -42.5535 N.am      2 UNK        -0.5000 
     65 C          -1.4830  -14.8876  -43.7950 C.2       1 UNK         0.5000 
     66 O          -0.7711  -14.3941  -44.6660 O.2       1 UNK        -0.5000 
     67 C          -1.6608  -22.9686  -47.0898 C.2       11 UNK         0.5000 
     68 O          -2.3636  -23.4646  -47.9692 O.2       11 UNK        -0.5000 
     69 N          -2.1605  -22.2899  -46.0468 N.am      12 UNK        -0.5000 
     70 CA         -3.5913  -22.1315  -45.7847 C.3       12 UNK         0.1400 
     71 CB         -3.8357  -20.9148  -44.8792 C.3       12 UNK        -0.1800 
     72 C          -4.1960  -23.4089  -45.1843 C.2       12 UNK         0.5000 
     73 O          -5.3017  -23.7866  -45.5693 O.2       12 UNK        -0.5000 
     74 N          -3.4405  -24.0862  -44.3072 N.am      13 UNK        -0.5000 
     75 CA         -3.7931  -25.3920  -43.7410 C.3       13 UNK         0.1400 
     76 CB         -2.7806  -25.7684  -42.6494 C.3       13 UNK        -0.1800 
     77 C          -3.8857  -26.4987  -44.8116 C.2       13 UNK         0.5000 
     78 O          -4.7850  -27.3371  -44.7475 O.2       13 UNK        -0.5000 
     79 N          -2.9832  -26.4487  -45.8011 N.am      14 UNK        -0.5000 
     80 CA         -2.9767  -27.3080  -46.9875 C.3       14 UNK         0.1400 
     81 CB         -1.5737  -27.2619  -47.6144 C.3       14 UNK        -0.1800 
     82 C          -4.0384  -26.9224  -48.0402 C.2       14 UNK         0.5000 
     83 O          -4.2388  -27.6813  -48.9890 O.2       14 UNK        -0.5000 
     84 N          -4.6719  -25.7503  -47.8760 N.am      15 UNK        -0.5000 
     85 CA         -5.6421  -25.1154  -48.7764 C.3       15 UNK         0.1400 
     86 CB         -6.9251  -25.9620  -48.9032 C.3       15 UNK        -0.1800 
     87 C          -5.0481  -24.7135  -50.1445 C.2       15 UNK         0.5000 
     88 O          -5.7888  -24.5582  -51.1159 O.2       15 UNK        -0.5000 
     89 N          -3.7253  -24.5133  -50.1918 N.am      16 UNK        -0.5000 
     90 CA         -2.9932  -24.0115  -51.3508 C.3       16 UNK         0.1400 
     91 CB         -1.5102  -24.3947  -51.2262 C.3       16 UNK        -0.1800 
     92 C          -3.1584  -22.4903  -51.4800 C.2       16 UNK         0.5000 
     93 O          -3.4349  -22.0009  -52.5734 O.2       16 UNK        -0.5000 
     94 N          -3.0562  -21.7736  -50.3495 N.am      17 UNK        -0.5000 
     95 CA         -3.2048  -20.3141  -50.2748 C.3       17 UNK         0.1400 
     96 CB         -2.7403  -19.8154  -48.8988 C.3       17 UNK        -0.1800 
     97 C          -4.6321  -19.8159  -50.5872 C.2       17 UNK         0.5000 
     98 O          -4.8178  -18.6295  -50.8565 O.2       17 UNK        -0.5000 
     99 N          -5.6129  -20.7286  -50.5504 N.am      18 UNK        -0.5000 
    100 CA        -6.9985  -20.4860  -50.9460 C.3       18 UNK         0.1400 
    101 CB        -7.8861  -21.5796  -50.3312 C.3       18 UNK        -0.1800 
    102 C         -7.1882  -20.4297  -52.4763 C.2       18 UNK         0.5000 
    103 O         -8.1749  -19.8497  -52.9323 O.2       18 UNK        -0.5000 
    104 N         -6.2645  -21.0273  -53.2433 N.am      19 UNK        -0.5000 
    105 CA        -6.2569  -20.9868  -54.7045 C.3       19 UNK         0.1400 
    106 CB        -5.5361  -22.2353  -55.2383 C.3       19 UNK        -0.1800 
    107 C         -5.5562  -19.7127  -55.2035 C.2       19 UNK         0.5000 
    108 O         -4.6845  -19.1786  -54.5150 O.2       19 UNK        -0.5000 
    109 N         -5.9063  -19.2773  -56.4212 N.am      20 UNK        -0.5000 
    110 CA        -5.3529  -18.0854  -57.0770 C.3       20 UNK         0.1400 
    111 CB        -6.1341  -17.8186  -58.3728 C.3       20 UNK        -0.1800 
    112 C         -3.8398  -18.1706  -57.3674 C.2       20 UNK         0.5000 
    113 O         -3.1719  -17.1373  -57.4185 O.2       20 UNK        -0.5000 
    114 N         -3.3254  -19.3973  -57.5309 N.am      21 UNK        -0.5000 
    115 CA        -1.9002  -19.6929  -57.6904 C.3       21 UNK         0.1400 
    116 CB        -1.7559  -21.0991  -58.2936 C.3       21 UNK        -0.1800 
    117 C         -1.1043  -19.5907  -56.3718 C.2       21 UNK         0.5000 
    118 O          0.1213  -19.4846  -56.4177 O.2       21 UNK        -0.5000 
    119 N         -1.8034  -19.6368  -55.2290 N.am      22 UNK        -0.5000 
    120 CA        -1.2665  -19.5902  -53.8586 C.3       22 UNK         0.1400 
    121 C         -0.4393  -20.8403  -53.4195 C.2       22 UNK         0.5000 
    122 N         -0.3850  -21.9146  -54.1978 N.am      22 UNK        -0.7600 
    123 O          0.1399  -20.8564  -52.3390 O.2       22 UNK        -0.5000 
    124 C124       -0.5589  -18.2360  -53.5378 C.3       23 UNK        -0.0398 
    125 S125       -1.3154  -17.3585  -52.1249 S.3       23 UNK        -0.2404 
    126 C126        0.1317  -16.6061  -51.3145 C.3       23 UNK        -0.0205 
    127 H127       -6.6432  -15.7313  -42.8582 H         1 UNK         0.0600 
    128 H128       -5.8178  -14.9035  -41.5334 H         1 UNK         0.0600 
    129 H129       -5.5718  -16.6346  -41.7836 H         1 UNK         0.0600 
    130 H130       -3.5992  -17.0742  -42.7127 H         1 UNK         0.3000 
    131 H131       -2.7429  -15.9293  -45.1414 H         1 UNK         0.0600 
    132 H132       -0.5429  -17.3058  -43.6587 H         1 UNK         0.0800 
    133 H133       -2.0166  -18.2108  -43.6038 H         1 UNK         0.0800 
    134 H134        0.2373  -16.2021  -46.2560 H         1 UNK         0.0800 
    135 H135        1.0966  -17.5748  -45.5871 H         1 UNK         0.0800 
    136 H136       -0.3389  -16.1164  -48.6746 H         1 UNK         0.1150 
    137 H137        1.5770  -18.9182  -51.2865 H         1 UNK         0.1150 
    138 H138        1.8599  -19.3929  -47.0347 H         1 UNK         0.1150 
    139 H139        2.1859  -21.0702  -50.3793 H         1 UNK         0.0800 
    140 H140        3.5814  -20.4511  -49.5357 H         1 UNK         0.0800 
    141 H141        0.0243  -21.9435  -49.0108 H         1 UNK         0.0800 
    142 H142        0.1263  -21.0030  -47.5410 H         1 UNK         0.0800 
    143 H143        0.0825  -24.0391  -47.7219 H         1 UNK         0.0600 
    144 H144        1.0693  -22.4587  -45.5533 H         1 UNK         0.3000 
    145 H145        0.3239  -24.7715  -42.9381 H         1 UNK         0.0600 
    146 H146        2.7824  -24.7459  -42.6137 H         1 UNK         0.0600 
    147 H147        2.3714  -25.7648  -43.9841 H         1 UNK         0.0600 
    148 H148        3.0230  -24.1529  -44.2577 H         1 UNK         0.0600 
    149 H149        1.8712  -22.4088  -42.9186 H         1 UNK         0.3000 
    150 H150       -0.3098  -19.9319  -43.3851 H         1 UNK         0.0600 
    151 H151       -0.0816  -20.7034  -40.4290 H         1 UNK         0.0600 
    152 H152       -1.5846  -20.3881  -41.2878 H         1 UNK         0.0600 
    153 H153       -0.4271  -19.0899  -41.0548 H         1 UNK         0.0600 
    154 H154        1.9180  -19.8680  -41.6254 H         1 UNK         0.3000 
    155 H155        3.8413  -18.8508  -42.5570 H         1 UNK         0.0600 
    156 H156        4.6541  -21.7319  -43.2584 H         1 UNK         0.0600 
    157 H157        4.1191  -21.1784  -41.6762 H         1 UNK         0.0600 
    158 H158        5.6312  -20.5872  -42.3397 H         1 UNK         0.0600 
    159 H159        5.2655  -19.9518  -44.8126 H         1 UNK         0.3000 
    160 H160        6.2399  -17.6808  -46.1092 H         1 UNK         0.0600 
    161 H161        4.2977  -19.6548  -47.4289 H         1 UNK         0.0600 
    162 H162        5.9018  -20.0048  -46.8061 H         1 UNK         0.0600 
    163 H163        5.7255  -19.0391  -48.2575 H         1 UNK         0.0600 
    164 H164        3.7214  -16.5965  -46.8515 H         1 UNK         0.3000 
    165 H165        5.1574  -14.0615  -48.7702 H         1 UNK         0.0600 
    166 H166        3.2106  -14.3803  -50.3128 H         1 UNK         0.0600 
    167 H167        4.4978  -15.5228  -50.6725 H         1 UNK         0.0600 
    168 H168        3.0716  -16.0603  -49.7962 H         1 UNK         0.0600 
    169 H169        2.4697  -14.5785  -47.8780 H         1 UNK         0.3000 
    170 H170        2.0006  -14.5521  -45.4018 H         1 UNK         0.0600 
    171 H171        3.5980  -13.7727  -43.6720 H         1 UNK         0.0600 
    172 H172        3.3895  -12.1049  -44.1992 H         1 UNK         0.0600 
    173 H173        2.0402  -12.9863  -43.4886 H         1 UNK         0.0600 
    174 H174        1.3723  -11.7939  -45.5797 H         1 UNK         0.3000 
    175 H175        0.0576  -10.9094  -47.5449 H         1 UNK         0.0600 
    176 H176       -0.7955  -12.3033  -49.4455 H         1 UNK         0.0600 
    177 H177       -1.8998  -13.1357  -48.3559 H         1 UNK         0.0600 
    178 H178       -2.1064  -11.4160  -48.6849 H         1 UNK         0.0600 
    179 H179       -1.2334  -12.5737  -45.5228 H         1 UNK         0.3000 
    180 H180       -2.5231   -9.7980  -43.8522 H         1 UNK         0.0600 
    181 H181       -4.4183  -11.7693  -45.2381 H         1 UNK         0.0600 
    182 H182       -4.5353  -10.0148  -45.3085 H         1 UNK         0.0600 
    183 H183       -4.7790  -10.8457  -43.7801 H         1 UNK         0.0600 
    184 H184       -2.9223  -12.6369  -43.5046 H         1 UNK         0.3000 
    185 H185        0.1961  -13.4087  -42.1185 H         1 UNK         0.0600 
    186 H186       -0.6975  -12.1628  -40.1412 H         1 UNK         0.0600 
    187 H187       -2.2948  -12.8440  -40.4254 H         1 UNK         0.0600 
    188 H188       -0.9483  -13.8926  -39.9772 H         1 UNK         0.0600 
    189 H189       -2.2044  -14.8460  -41.9081 H         1 UNK         0.3000 
    190 H190       -1.5326  -21.9579  -45.3278 H         1 UNK         0.3000 
    191 H191       -4.1037  -21.9477  -46.7310 H         1 UNK         0.0600 
    192 H192       -3.4734  -20.0001  -45.3468 H         1 UNK         0.0600 
    193 H193       -4.9014  -20.7795  -44.6910 H         1 UNK         0.0600 
    194 H194       -3.3449  -21.0155  -43.9118 H         1 UNK         0.0600 
    195 H195       -2.5630  -23.6742  -44.0076 H         1 UNK         0.3000 
    196 H196       -4.7759  -25.2961  -43.2748 H         1 UNK         0.0600 
    197 H197       -3.0750  -26.6916  -42.1490 H         1 UNK         0.0600 
    198 H198       -2.7117  -24.9916  -41.8875 H         1 UNK         0.0600 
    199 H199       -1.7840  -25.9248  -43.0610 H         1 UNK         0.0600 
    200 H200       -2.2185  -25.7845  -45.7248 H         1 UNK         0.3000 
    201 H201       -3.1806  -28.3343  -46.6758 H         1 UNK         0.0600 
    202 H202       -1.5070  -27.9203  -48.4814 H         1 UNK         0.0600 
    203 H203       -0.8131  -27.5855  -46.9035 H         1 UNK         0.0600 
    204 H204       -1.3157  -26.2553  -47.9457 H         1 UNK         0.0600 
    205 H205       -4.4473  -25.2129  -47.0489 H         1 UNK         0.3000 
    206 H206       -5.9214  -24.1780  -48.2936 H         1 UNK         0.0600 
    207 H207       -7.3225  -26.2235  -47.9224 H         1 UNK         0.0600 
    208 H208       -7.7052  -25.4124  -49.4315 H         1 UNK         0.0600 
    209 H209       -6.7497  -26.8868  -49.4532 H         1 UNK         0.0600 
    210 H210       -3.2055  -24.5633  -49.3214 H         1 UNK         0.3000 
    211 H211       -3.3923  -24.4774  -52.2543 H         1 UNK         0.0600 
    212 H212       -1.0476  -23.9552  -50.3422 H         1 UNK         0.0600 
    213 H213       -0.9467  -24.0508  -52.0941 H         1 UNK         0.0600 
    214 H214       -1.3875  -25.4761  -51.1648 H         1 UNK         0.0600 
    215 H215       -2.8546  -22.2652  -49.4857 H         1 UNK         0.3000 
    216 H216       -2.5405  -19.8774  -51.0199 H         1 UNK         0.0600 
    217 H217       -2.8091  -18.7285  -48.8347 H         1 UNK         0.0600 
    218 H218       -1.6985  -20.0730  -48.7167 H         1 UNK         0.0600 
    219 H219       -3.3431  -20.2278  -48.0916 H         1 UNK         0.0600 
    220 H220       -5.3652  -21.6807  -50.3290 H         1 UNK         0.3000 
    221 H221       -7.3131  -19.5232  -50.5379 H         1 UNK         0.0600 
    222 H222       -7.6330  -22.5680  -50.7159 H         1 UNK         0.0600 
    223 H223       -7.7888  -21.6057  -49.2456 H         1 UNK         0.0600 
    224 H224       -8.9379  -21.4007  -50.5582 H         1 UNK         0.0600 
    225 H225       -5.4301  -21.4061  -52.8100 H         1 UNK         0.3000 
    226 H226       -7.2847  -20.9966  -55.0738 H         1 UNK         0.0600 
    227 H227       -5.6039  -22.2909  -56.3252 H         1 UNK         0.0600 
    228 H228       -4.4771  -22.2356  -54.9783 H         1 UNK         0.0600 
    229 H229       -5.9786  -23.1480  -54.8387 H         1 UNK         0.0600 
    230 H230       -6.6188  -19.7777  -56.9335 H         1 UNK         0.3000 
    231 H231       -5.5058  -17.2375  -56.4059 H         1 UNK         0.0600 
    232 H232       -6.0427  -18.6476  -59.0757 H         1 UNK         0.0600 
    233 H233       -5.7664  -16.9218  -58.8734 H         1 UNK         0.0600 
    234 H234       -7.1941  -17.6635  -58.1705 H         1 UNK         0.0600 
    235 H235       -3.9521  -20.1871  -57.4892 H         1 UNK         0.3000 
    236 H236       -1.4700  -18.9742  -58.3911 H         1 UNK         0.0600 
    237 H237       -2.2543  -21.1661  -59.2609 H         1 UNK         0.0600 
    238 H238       -0.7066  -21.3512  -58.4530 H         1 UNK         0.0600 
    239 H239       -2.1823  -21.8632  -57.6423 H         1 UNK         0.0600 
    240 H240       -2.8146  -19.6789  -55.2775 H         1 UNK         0.3000 
    241 H241       -2.1684  -19.6544  -53.2519 H         1 UNK         0.0600 
    242 H242       -0.8695  -21.9326  -55.0792 H         1 UNK         0.3800 
    243 H243        0.1537  -22.7114  -53.9008 H         1 UNK         0.3800 
    244 H244        0.5095  -18.3748  -53.3674 H         1 UNK         0.0800 
    245 H245       -0.6195  -17.5535  -54.3863 H         1 UNK         0.0800 
    246 H246        0.9517  -16.4851  -52.0235 H         1 UNK         0.0800 
    247 H247       -0.1381  -15.5968  -50.9991 H         1 UNK         0.0800 
@<TRIPOS>BOND
     1    1    2 1    
     2    1  127 1    
     3    1  128 1    
     4    1  129 1    
     5    2    3 2    
     6    2    4 am   BACKBONE|DICT|INTERRES
     7    4    5 1    
     8    4  130 1    
     9    5    6 1    
    10    5   65 1    
    11    5  131 1    
    12    6    7 1    
    13    6  132 1    
    14    6  133 1    
    15    7    8 1    
    16    8    9 1    
    17    8  134 1    
    18    8  135 1    
    19    9   10 ar   
    20    9   14 ar   
    21   10   11 ar   
    22   10  136 1    
    23   11   12 ar   
    24   11  126 1    
    25   12   13 ar   
    26   12  137 1    
    27   13   14 ar   
    28   13   15 1    
    29   14  138 1    
    30   15   16 1    
    31   15  139 1    
    32   15  140 1    
    33   16   17 1    
    34   17   18 1    
    35   17  141 1    
    36   17  142 1    
    37   18   19 1    
    38   18   67 1    
    39   18  143 1    
    40   19   20 am   BACKBONE|DICT|INTERRES
    41   19  144 1    
    42   20   21 2    
    43   20   22 1    
    44   22   23 1    
    45   22   24 1    
    46   22  145 1    
    47   23  146 1    
    48   23  147 1    
    49   23  148 1    
    50   24   25 am   BACKBONE|DICT|INTERRES
    51   24  149 1    
    52   25   26 2    
    53   25   27 1    
    54   27   28 1    
    55   27   29 1    
    56   27  150 1    
    57   28  151 1    
    58   28  152 1    
    59   28  153 1    
    60   29   30 am   BACKBONE|DICT|INTERRES
    61   29  154 1    
    62   30   31 2    
    63   30   32 1    
    64   32   33 1    
    65   32   34 1    
    66   32  155 1    
    67   33  156 1    
    68   33  157 1    
    69   33  158 1    
    70   34   35 am   BACKBONE|DICT|INTERRES
    71   34  159 1    
    72   35   36 2    
    73   35   37 1    
    74   37   38 1    
    75   37   39 1    
    76   37  160 1    
    77   38  161 1    
    78   38  162 1    
    79   38  163 1    
    80   39   40 am   BACKBONE|DICT|INTERRES
    81   39  164 1    
    82   40   41 2    
    83   40   42 1    
    84   42   43 1    
    85   42   44 1    
    86   42  165 1    
    87   43  166 1    
    88   43  167 1    
    89   43  168 1    
    90   44   45 am   BACKBONE|DICT|INTERRES
    91   44  169 1    
    92   45   46 2    
    93   45   47 1    
    94   47   48 1    
    95   47   49 1    
    96   47  170 1    
    97   48  171 1    
    98   48  172 1    
    99   48  173 1    
   100   49   50 am   BACKBONE|DICT|INTERRES
   101   49  174 1    
   102   50   51 2    
   103   50   52 1    
   104   52   53 1    
   105   52   54 1    
   106   52  175 1    
   107   53  176 1    
   108   53  177 1    
   109   53  178 1    
   110   54   55 am   BACKBONE|DICT|INTERRES
   111   54  179 1    
   112   55   56 2    
   113   55   57 1    
   114   57   58 1    
   115   57   59 1    
   116   57  180 1    
   117   58  181 1    
   118   58  182 1    
   119   58  183 1    
   120   59   60 am   BACKBONE|DICT|INTERRES
   121   59  184 1    
   122   60   61 2    
   123   60   62 1    
   124   62   63 1    
   125   62   64 1    
   126   62  185 1    
   127   63  186 1    
   128   63  187 1    
   129   63  188 1    
   130   64   65 am   BACKBONE|DICT|INTERRES
   131   64  189 1    
   132   65   66 2    
   133   67   68 2    
   134   67   69 am   BACKBONE|DICT|INTERRES
   135   69   70 1    
   136   69  190 1    
   137   70   71 1    
   138   70   72 1    
   139   70  191 1    
   140   71  192 1    
   141   71  193 1    
   142   71  194 1    
   143   72   73 2    
   144   72   74 am   BACKBONE|DICT|INTERRES
   145   74   75 1    
   146   74  195 1    
   147   75   76 1    
   148   75   77 1    
   149   75  196 1    
   150   76  197 1    
   151   76  198 1    
   152   76  199 1    
   153   77   78 2    
   154   77   79 am   BACKBONE|DICT|INTERRES
   155   79   80 1    
   156   79  200 1    
   157   80   81 1    
   158   80   82 1    
   159   80  201 1    
   160   81  202 1    
   161   81  203 1    
   162   81  204 1    
   163   82   83 2    
   164   82   84 am   BACKBONE|DICT|INTERRES
   165   84   85 1    
   166   84  205 1    
   167   85   86 1    
   168   85   87 1    
   169   85  206 1    
   170   86  207 1    
   171   86  208 1    
   172   86  209 1    
   173   87   88 2    
   174   87   89 am   BACKBONE|DICT|INTERRES
   175   89   90 1    
   176   89  210 1    
   177   90   91 1    
   178   90   92 1    
   179   90  211 1    
   180   91  212 1    
   181   91  213 1    
   182   91  214 1    
   183   92   93 2    
   184   92   94 am   BACKBONE|DICT|INTERRES
   185   94   95 1    
   186   94  215 1    
   187   95   96 1    
   188   95   97 1    
   189   95  216 1    
   190   96  217 1    
   191   96  218 1    
   192   96  219 1    
   193   97   98 2    
   194   97   99 am   BACKBONE|DICT|INTERRES
   195   99  100 1    
   196   99  220 1    
   197  100  101 1    
   198  100  102 1    
   199  100  221 1    
   200  101  222 1    
   201  101  223 1    
   202  101  224 1    
   203  102  103 2    
   204  102  104 am   BACKBONE|DICT|INTERRES
   205  104  105 1    
   206  104  225 1    
   207  105  106 1    
   208  105  107 1    
   209  105  226 1    
   210  106  227 1    
   211  106  228 1    
   212  106  229 1    
   213  107  108 2    
   214  107  109 am   BACKBONE|DICT|INTERRES
   215  109  110 1    
   216  109  230 1    
   217  110  111 1    
   218  110  112 1    
   219  110  231 1    
   220  111  232 1    
   221  111  233 1    
   222  111  234 1    
   223  112  113 2    
   224  112  114 am   BACKBONE|DICT|INTERRES
   225  114  115 1    
   226  114  235 1    
   227  115  116 1    
   228  115  117 1    
   229  115  236 1    
   230  116  237 1    
   231  116  238 1    
   232  116  239 1    
   233  117  118 2    
   234  117  119 am   BACKBONE|DICT|INTERRES
   235  119  120 1    
   236  119  240 1    
   237  120  121 1    
   238  120  124 1    
   239  120  241 1    
   240  121  122 am   BACKBONE|DICT|INTERRES
   241  121  123 2    
   242  122  242 1    
   243  122  243 1    
   244  124  125 1    
   245  124  244 1    
   246  124  245 1    
   247  125  126 1    
   248  126  246 1    
   249  126  247 1    
@<TRIPOS>SUBSTRUCTURE
     1 UNK         1 GROUP             0       ****    0 ROOT    
