@<TRIPOS>MOLECULE
3R540
247   249    1
SMALL
USER_CHARGES


@<TRIPOS>ATOM
      1 CA         -2.5347  -11.7098  -50.2759 C.3       0 UNK        -0.1800 
      2 C          -1.5348  -12.4283  -49.3827 C.2       0 UNK         0.5000 
      3 O          -1.7407  -12.5032  -48.1728 O.2       0 UNK        -0.5000 
      4 N          -0.4414  -12.9370  -49.9692 N.am      1 UNK        -0.5000 
      5 CA          0.6033  -13.7640  -49.3347 C.3       1 UNK         0.1400 
      6 C6          0.0735  -15.1261  -48.8031 C.3       23 UNK        -0.0398 
      7 S7         -0.9234  -16.0674  -50.0003 S.3       23 UNK        -0.2404 
      8 C8         -0.3408  -17.7676  -49.6964 C.3       23 UNK        -0.0205 
      9 C9          0.9111  -18.1272  -50.4843 C.ar      23 UNK        -0.0193 
     10 C10         0.9678  -17.8935  -51.8614 C.ar      23 UNK        -0.1150 
     11 C11         2.0945  -18.2578  -52.6002 C.ar      23 UNK        -0.0193 
     12 C12         3.1658  -18.8759  -51.9508 C.ar      23 UNK        -0.1150 
     13 C13         3.1312  -19.1237  -50.5749 C.ar      23 UNK        -0.0193 
     14 C14         1.9952  -18.7389  -49.8462 C.ar      23 UNK        -0.1150 
     15 C15         4.3607  -19.7826  -49.9427 C.3       23 UNK        -0.0205 
     16 S16         4.2472  -20.1857  -48.1661 S.3       23 UNK        -0.2404 
     17 C17         3.2214  -21.6981  -48.1749 C.3       23 UNK        -0.0398 
     18 CA          3.6421  -22.6724  -47.0446 C.3       11 UNK         0.1400 
     19 N           3.4107  -22.0849  -45.7189 N.am      11 UNK        -0.5000 
     20 C           4.0751  -22.3809  -44.5952 C.2       10 UNK         0.5000 
     21 O           5.0297  -23.1570  -44.5485 O.2       10 UNK        -0.5000 
     22 CA          3.5413  -21.7466  -43.2939 C.3       10 UNK         0.1400 
     23 CB          4.1747  -20.3685  -43.0511 C.3       10 UNK        -0.1800 
     24 N           2.0788  -21.6289  -43.2788 N.am      10 UNK        -0.5000 
     25 C           1.2380  -22.6745  -43.2702 C.2       9 UNK         0.5000 
     26 O           1.6123  -23.8458  -43.2142 O.2       9 UNK        -0.5000 
     27 CA         -0.2664  -22.3740  -43.3998 C.3       9 UNK         0.1400 
     28 CB         -0.8687  -22.0141  -42.0339 C.3       9 UNK        -0.1800 
     29 N          -0.5582  -21.3133  -44.3640 N.am      9 UNK        -0.5000 
     30 C          -0.2859  -21.3802  -45.6756 C.2       8 UNK         0.5000 
     31 O           0.2292  -22.3528  -46.2232 O.2       8 UNK        -0.5000 
     32 CA         -0.5619  -20.1180  -46.5094 C.3       8 UNK         0.1400 
     33 CB         -2.0551  -19.9865  -46.8260 C.3       8 UNK        -0.1800 
     34 N          -0.0848  -18.8984  -45.8576 N.am      8 UNK        -0.5000 
     35 C           1.1901  -18.6789  -45.5064 C.2       7 UNK         0.5000 
     36 O           2.1035  -19.4675  -45.7348 O.2       7 UNK        -0.5000 
     37 CA          1.4859  -17.3946  -44.7181 C.3       7 UNK         0.1400 
     38 CB          1.5797  -16.1876  -45.6547 C.3       7 UNK        -0.1800 
     39 N           0.4809  -17.1460  -43.6876 N.am      7 UNK        -0.5000 
     40 C           0.3362  -17.8962  -42.5871 C.2       6 UNK         0.5000 
     41 O           1.0803  -18.8316  -42.2902 O.2       6 UNK        -0.5000 
     42 CA         -0.8804  -17.5757  -41.7031 C.3       6 UNK         0.1400 
     43 CB         -0.5767  -16.4103  -40.7500 C.3       6 UNK        -0.1800 
     44 N          -2.0674  -17.2701  -42.5060 N.am      6 UNK        -0.5000 
     45 C          -2.7389  -18.1952  -43.2071 C.2       5 UNK         0.5000 
     46 O          -2.4302  -19.3855  -43.2281 O.2       5 UNK        -0.5000 
     47 CA         -3.9353  -17.7257  -44.0537 C.3       5 UNK         0.1400 
     48 CB         -5.2350  -17.7944  -43.2390 C.3       5 UNK        -0.1800 
     49 N          -3.7876  -16.3812  -44.6089 N.am      5 UNK        -0.5000 
     50 C          -2.8411  -15.9918  -45.4736 C.2       4 UNK         0.5000 
     51 O          -1.9662  -16.7417  -45.9069 O.2       4 UNK        -0.5000 
     52 CA         -2.8778  -14.5228  -45.9426 C.3       4 UNK         0.1400 
     53 CB         -4.1646  -13.7697  -45.5418 C.3       4 UNK        -0.1800 
     54 N          -1.7059  -13.7395  -45.5323 N.am      4 UNK        -0.5000 
     55 C          -1.1647  -13.6587  -44.3061 C.2       3 UNK         0.5000 
     56 O          -1.5295  -14.3533  -43.3558 O.2       3 UNK        -0.5000 
     57 CA         -0.0442  -12.6214  -44.0916 C.3       3 UNK         0.1400 
     58 CB          0.9960  -13.0795  -43.0519 C.3       3 UNK        -0.1800 
     59 N           0.6321  -12.2517  -45.3383 N.am      3 UNK        -0.5000 
     60 C           0.9815  -11.0067  -45.6894 C.2       2 UNK         0.5000 
     61 O           0.7487  -10.0178  -44.9928 O.2       2 UNK        -0.5000 
     62 CA          1.6940  -10.8030  -47.0467 C.3       2 UNK         0.1400 
     63 CB          3.2260  -10.8303  -46.8828 C.3       2 UNK        -0.1800 
     64 N           1.2410  -11.7029  -48.1174 N.am      2 UNK        -0.5000 
     65 C           1.3957  -13.0301  -48.2230 C.2       1 UNK         0.5000 
     66 O           2.0857  -13.6837  -47.4427 O.2       1 UNK        -0.5000 
     67 C           2.9779  -24.0642  -47.2074 C.2       11 UNK         0.5000 
     68 O           3.0895  -24.6572  -48.2811 O.2       11 UNK        -0.5000 
     69 N           2.3256  -24.5716  -46.1493 N.am      12 UNK        -0.5000 
     70 CA          1.6694  -25.8769  -46.0253 C.3       12 UNK         0.1400 
     71 CB          2.6858  -27.0268  -46.1901 C.3       12 UNK        -0.1800 
     72 C           0.4124  -26.0497  -46.9051 C.2       12 UNK         0.5000 
     73 O           0.0491  -27.1824  -47.2288 O.2       12 UNK        -0.5000 
     74 N          -0.2562  -24.9419  -47.2474 N.am      13 UNK        -0.5000 
     75 CA         -1.5659  -24.9331  -47.8935 C.3       13 UNK         0.1400 
     76 CB         -1.6466  -23.7407  -48.8573 C.3       13 UNK        -0.1800 
     77 C          -2.6610  -24.8458  -46.8164 C.2       13 UNK         0.5000 
     78 O          -2.5077  -24.1035  -45.8444 O.2       13 UNK        -0.5000 
     79 N          -3.7457  -25.6075  -47.0006 N.am      14 UNK        -0.5000 
     80 CA         -4.8576  -25.6820  -46.0485 C.3       14 UNK         0.1400 
     81 CB         -5.5842  -27.0233  -46.2354 C.3       14 UNK        -0.1800 
     82 C          -5.8520  -24.5130  -46.1807 C.2       14 UNK         0.5000 
     83 O          -6.4898  -24.1467  -45.1925 O.2       14 UNK        -0.5000 
     84 N          -5.9904  -23.9701  -47.3966 N.am      15 UNK        -0.5000 
     85 CA         -6.9072  -22.8774  -47.7156 C.3       15 UNK         0.1400 
     86 CB         -7.1929  -22.8984  -49.2248 C.3       15 UNK        -0.1800 
     87 C          -6.3365  -21.5113  -47.3012 C.2       15 UNK         0.5000 
     88 O          -5.1207  -21.3091  -47.3572 O.2       15 UNK        -0.5000 
     89 N          -7.2313  -20.5752  -46.9561 N.am      16 UNK        -0.5000 
     90 CA         -6.9060  -19.1743  -46.6834 C.3       16 UNK         0.1400 
     91 CB         -8.1620  -18.4374  -46.1968 C.3       16 UNK        -0.1800 
     92 C          -6.3201  -18.4990  -47.9358 C.2       16 UNK         0.5000 
     93 O          -6.9147  -18.5975  -49.0126 O.2       16 UNK        -0.5000 
     94 N          -5.1282  -17.9026  -47.7833 N.am      17 UNK        -0.5000 
     95 CA         -4.2842  -17.3485  -48.8522 C.3       17 UNK         0.1400 
     96 CB         -4.8970  -16.0477  -49.4083 C.3       17 UNK        -0.1800 
     97 C          -3.9496  -18.3759  -49.9598 C.2       17 UNK         0.5000 
     98 O          -3.7575  -17.9986  -51.1166 O.2       17 UNK        -0.5000 
     99 N          -3.9289  -19.6690  -49.5908 N.am      18 UNK        -0.5000 
    100 CA        -3.7171  -20.8437  -50.4425 C.3       18 UNK         0.1400 
    101 CB        -2.2457  -20.9135  -50.8959 C.3       18 UNK        -0.1800 
    102 C         -4.7053  -20.9306  -51.6252 C.2       18 UNK         0.5000 
    103 O         -4.3530  -21.4744  -52.6725 O.2       18 UNK        -0.5000 
    104 N         -5.8976  -20.3296  -51.4636 N.am      19 UNK        -0.5000 
    105 CA        -6.9295  -20.1128  -52.4869 C.3       19 UNK         0.1400 
    106 CB        -7.5830  -21.4539  -52.8810 C.3       19 UNK        -0.1800 
    107 C         -6.4249  -19.3213  -53.7187 C.2       19 UNK         0.5000 
    108 O         -6.9992  -19.4482  -54.8009 O.2       19 UNK        -0.5000 
    109 N         -5.3350  -18.5549  -53.5406 N.am      20 UNK        -0.5000 
    110 CA        -4.5275  -17.8787  -54.5624 C.3       20 UNK         0.1400 
    111 CB        -5.3439  -16.7838  -55.2798 C.3       20 UNK        -0.1800 
    112 C         -3.8243  -18.8402  -55.5513 C.2       20 UNK         0.5000 
    113 O         -3.3242  -18.3847  -56.5810 O.2       20 UNK        -0.5000 
    114 N         -3.7803  -20.1419  -55.2304 N.am      21 UNK        -0.5000 
    115 CA        -3.1706  -21.1905  -56.0498 C.3       21 UNK         0.1400 
    116 CB        -4.0432  -22.4532  -55.9610 C.3       21 UNK        -0.1800 
    117 C         -1.7235  -21.5038  -55.6258 C.2       21 UNK         0.5000 
    118 O         -1.0146  -22.1730  -56.3784 O.2       21 UNK        -0.5000 
    119 N         -1.3133  -21.0247  -54.4420 N.am      22 UNK        -0.5000 
    120 CA         0.0326  -21.1778  -53.8524 C.3       22 UNK         0.1400 
    121 C          0.3832  -22.6291  -53.3993 C.2       22 UNK         0.5000 
    122 N         -0.5817  -23.5316  -53.2667 N.am      22 UNK        -0.7600 
    123 O          1.5411  -22.9402  -53.1348 O.2       22 UNK        -0.5000 
    124 C124        1.1566  -20.5346  -54.7160 C.3       23 UNK        -0.0398 
    125 S125        0.8474  -18.7656  -55.0526 S.3       23 UNK        -0.2404 
    126 C126        2.1700  -17.9597  -54.0926 C.3       23 UNK        -0.0205 
    127 H127       -2.2147  -11.7004  -51.3180 H         1 UNK         0.0600 
    128 H128       -2.6581  -10.6781  -49.9469 H         1 UNK         0.0600 
    129 H129       -3.5044  -12.2047  -50.2221 H         1 UNK         0.0600 
    130 H130       -0.3327  -12.8179  -50.9668 H         1 UNK         0.3000 
    131 H131        1.3287  -13.9798  -50.1204 H         1 UNK         0.0600 
    132 H132       -0.5390  -14.9822  -47.9129 H         1 UNK         0.0800 
    133 H133        0.9142  -15.7519  -48.5007 H         1 UNK         0.0800 
    134 H134       -0.1939  -17.9133  -48.6255 H         1 UNK         0.0800 
    135 H135       -1.1250  -18.4593  -49.9925 H         1 UNK         0.0800 
    136 H136        0.1312  -17.4264  -52.3622 H         1 UNK         0.1150 
    137 H137        4.0417  -19.1577  -52.5186 H         1 UNK         0.1150 
    138 H138        1.9415  -18.9139  -48.7818 H         1 UNK         0.1150 
    139 H139        4.6139  -20.6873  -50.4974 H         1 UNK         0.0800 
    140 H140        5.2050  -19.1037  -50.0698 H         1 UNK         0.0800 
    141 H141        2.1725  -21.4163  -48.0722 H         1 UNK         0.0800 
    142 H142        3.3170  -22.1748  -49.1518 H         1 UNK         0.0800 
    143 H143        4.7146  -22.8489  -47.1503 H         1 UNK         0.0600 
    144 H144        2.6901  -21.3704  -45.6743 H         1 UNK         0.3000 
    145 H145        3.8299  -22.3989  -42.4671 H         1 UNK         0.0600 
    146 H146        3.8303  -19.9359  -42.1116 H         1 UNK         0.0600 
    147 H147        3.9367  -19.6660  -43.8494 H         1 UNK         0.0600 
    148 H148        5.2612  -20.4444  -42.9965 H         1 UNK         0.0600 
    149 H149        1.6954  -20.6912  -43.3013 H         1 UNK         0.3000 
    150 H150       -0.7541  -23.2839  -43.7560 H         1 UNK         0.0600 
    151 H151       -0.4608  -21.0796  -41.6473 H         1 UNK         0.0600 
    152 H152       -1.9513  -21.9049  -42.0989 H         1 UNK         0.0600 
    153 H153       -0.6646  -22.7929  -41.2981 H         1 UNK         0.0600 
    154 H154       -1.0281  -20.4897  -43.9999 H         1 UNK         0.3000 
    155 H155       -0.0231  -20.2167  -47.4539 H         1 UNK         0.0600 
    156 H156       -2.4010  -20.8325  -47.4189 H         1 UNK         0.0600 
    157 H157       -2.2552  -19.0797  -47.3931 H         1 UNK         0.0600 
    158 H158       -2.6596  -19.9626  -45.9208 H         1 UNK         0.0600 
    159 H159       -0.7739  -18.1722  -45.6805 H         1 UNK         0.3000 
    160 H160        2.4559  -17.5212  -44.2327 H         1 UNK         0.0600 
    161 H161        0.6034  -15.9083  -46.0473 H         1 UNK         0.0600 
    162 H162        2.2332  -16.3986  -46.5024 H         1 UNK         0.0600 
    163 H163        1.9958  -15.3221  -45.1423 H         1 UNK         0.0600 
    164 H164       -0.2025  -16.4244  -43.8699 H         1 UNK         0.3000 
    165 H165       -1.0940  -18.4585  -41.0964 H         1 UNK         0.0600 
    166 H166       -1.4292  -16.1949  -40.1057 H         1 UNK         0.0600 
    167 H167        0.2682  -16.6490  -40.1030 H         1 UNK         0.0600 
    168 H168       -0.3254  -15.4979  -41.2902 H         1 UNK         0.0600 
    169 H169       -2.3252  -16.2942  -42.5924 H         1 UNK         0.3000 
    170 H170       -4.0284  -18.4179  -44.8905 H         1 UNK         0.0600 
    171 H171       -5.3993  -18.8004  -42.8504 H         1 UNK         0.0600 
    172 H172       -5.2114  -17.1134  -42.3873 H         1 UNK         0.0600 
    173 H173       -6.1012  -17.5377  -43.8489 H         1 UNK         0.0600 
    174 H174       -4.4430  -15.6866  -44.2806 H         1 UNK         0.3000 
    175 H175       -2.8572  -14.5709  -47.0316 H         1 UNK         0.0600 
    176 H176       -4.2425  -13.6350  -44.4623 H         1 UNK         0.0600 
    177 H177       -4.1861  -12.7792  -45.9970 H         1 UNK         0.0600 
    178 H178       -5.0576  -14.2938  -45.8854 H         1 UNK         0.0600 
    179 H179       -1.3576  -13.1193  -46.2558 H         1 UNK         0.3000 
    180 H180       -0.5512  -11.7444  -43.6848 H         1 UNK         0.0600 
    181 H181        0.5316  -13.2463  -42.0795 H         1 UNK         0.0600 
    182 H182        1.7709  -12.3259  -42.9106 H         1 UNK         0.0600 
    183 H183        1.4820  -14.0088  -43.3453 H         1 UNK         0.0600 
    184 H184        0.9183  -13.0088  -45.9497 H         1 UNK         0.3000 
    185 H185        1.4251   -9.8009  -47.3844 H         1 UNK         0.0600 
    186 H186        3.5541  -10.0505  -46.1945 H         1 UNK         0.0600 
    187 H187        3.5802  -11.7807  -46.4833 H         1 UNK         0.0600 
    188 H188        3.7284  -10.6564  -47.8342 H         1 UNK         0.0600 
    189 H189        0.6215  -11.2758  -48.7918 H         1 UNK         0.3000 
    190 H190        2.2605  -23.9894  -45.3239 H         1 UNK         0.3000 
    191 H191        1.3058  -25.9201  -44.9981 H         1 UNK         0.0600 
    192 H192        2.2406  -27.9850  -45.9200 H         1 UNK         0.0600 
    193 H193        3.5528  -26.8820  -45.5454 H         1 UNK         0.0600 
    194 H194        3.0405  -27.1115  -47.2174 H         1 UNK         0.0600 
    195 H195        0.0553  -24.0451  -46.8769 H         1 UNK         0.3000 
    196 H196       -1.7042  -25.8470  -48.4750 H         1 UNK         0.0600 
    197 H197       -2.6080  -23.7209  -49.3707 H         1 UNK         0.0600 
    198 H198       -0.8705  -23.7973  -49.6209 H         1 UNK         0.0600 
    199 H199       -1.5294  -22.7924  -48.3345 H         1 UNK         0.0600 
    200 H200       -3.8033  -26.2036  -47.8139 H         1 UNK         0.3000 
    201 H201       -4.4562  -25.6589  -45.0327 H         1 UNK         0.0600 
    202 H202       -6.4049  -27.1253  -45.5239 H         1 UNK         0.0600 
    203 H203       -4.9091  -27.8636  -46.0725 H         1 UNK         0.0600 
    204 H204       -6.0050  -27.1187  -47.2371 H         1 UNK         0.0600 
    205 H205       -5.3962  -24.2992  -48.1414 H         1 UNK         0.3000 
    206 H206       -7.8483  -23.0387  -47.1851 H         1 UNK         0.0600 
    207 H207       -7.6838  -23.8260  -49.5195 H         1 UNK         0.0600 
    208 H208       -7.8523  -22.0779  -49.5111 H         1 UNK         0.0600 
    209 H209       -6.2783  -22.8052  -49.8100 H         1 UNK         0.0600 
    210 H210       -8.2134  -20.8079  -46.9737 H         1 UNK         0.3000 
    211 H211       -6.1651  -19.1560  -45.8825 H         1 UNK         0.0600 
    212 H212       -8.9525  -18.4483  -46.9485 H         1 UNK         0.0600 
    213 H213       -7.9385  -17.3940  -45.9706 H         1 UNK         0.0600 
    214 H214       -8.5569  -18.8890  -45.2866 H         1 UNK         0.0600 
    215 H215       -4.7152  -17.8923  -46.8631 H         1 UNK         0.3000 
    216 H216       -3.3318  -17.0887  -48.3895 H         1 UNK         0.0600 
    217 H217       -5.1046  -15.3365  -48.6089 H         1 UNK         0.0600 
    218 H218       -5.8287  -16.2358  -49.9425 H         1 UNK         0.0600 
    219 H219       -4.2129  -15.5595  -50.1037 H         1 UNK         0.0600 
    220 H220       -4.1658  -19.8933  -48.6306 H         1 UNK         0.3000 
    221 H221       -3.9159  -21.7149  -49.8184 H         1 UNK         0.0600 
    222 H222       -2.0407  -21.8496  -51.4150 H         1 UNK         0.0600 
    223 H223       -1.9956  -20.0970  -51.5734 H         1 UNK         0.0600 
    224 H224       -1.5662  -20.8654  -50.0453 H         1 UNK         0.0600 
    225 H225       -6.0786  -19.8708  -50.5775 H         1 UNK         0.3000 
    226 H226       -7.6954  -19.4921  -52.0198 H         1 UNK         0.0600 
    227 H227       -7.9408  -21.9930  -52.0046 H         1 UNK         0.0600 
    228 H228       -8.4428  -21.2954  -53.5327 H         1 UNK         0.0600 
    229 H229       -6.8861  -22.1028  -53.4124 H         1 UNK         0.0600 
    230 H230       -4.9379  -18.5061  -52.6061 H         1 UNK         0.3000 
    231 H231       -3.7250  -17.3808  -54.0161 H         1 UNK         0.0600 
    232 H232       -4.7019  -16.1675  -55.9102 H         1 UNK         0.0600 
    233 H233       -5.8262  -16.1186  -54.5635 H         1 UNK         0.0600 
    234 H234       -6.1176  -17.2069  -55.9206 H         1 UNK         0.0600 
    235 H235       -4.1949  -20.4511  -54.3564 H         1 UNK         0.3000 
    236 H236       -3.1444  -20.8752  -57.0948 H         1 UNK         0.0600 
    237 H237       -5.0674  -22.2467  -56.2722 H         1 UNK         0.0600 
    238 H238       -3.6585  -23.2403  -56.6106 H         1 UNK         0.0600 
    239 H239       -4.0761  -22.8530  -54.9472 H         1 UNK         0.0600 
    240 H240       -1.9778  -20.4975  -53.8964 H         1 UNK         0.3000 
    241 H241        0.0007  -20.6152  -52.9193 H         1 UNK         0.0600 
    242 H242       -1.5370  -23.2956  -53.4806 H         1 UNK         0.3800 
    243 H243       -0.3474  -24.4650  -52.9689 H         1 UNK         0.3800 
    244 H244        1.2586  -21.0551  -55.6686 H         1 UNK         0.0800 
    245 H245        2.1245  -20.6340  -54.2227 H         1 UNK         0.0800 
    246 H246        2.1000  -16.8810  -54.2379 H         1 UNK         0.0800 
    247 H247        3.1357  -18.2603  -54.5021 H         1 UNK         0.0800 
@<TRIPOS>BOND
     1    1    2 1    
     2    1  127 1    
     3    1  128 1    
     4    1  129 1    
     5    2    3 2    
     6    2    4 am   BACKBONE|DICT|INTERRES
     7    4    5 1    
     8    4  130 1    
     9    5    6 1    
    10    5   65 1    
    11    5  131 1    
    12    6    7 1    
    13    6  132 1    
    14    6  133 1    
    15    7    8 1    
    16    8    9 1    
    17    8  134 1    
    18    8  135 1    
    19    9   10 ar   
    20    9   14 ar   
    21   10   11 ar   
    22   10  136 1    
    23   11   12 ar   
    24   11  126 1    
    25   12   13 ar   
    26   12  137 1    
    27   13   14 ar   
    28   13   15 1    
    29   14  138 1    
    30   15   16 1    
    31   15  139 1    
    32   15  140 1    
    33   16   17 1    
    34   17   18 1    
    35   17  141 1    
    36   17  142 1    
    37   18   19 1    
    38   18   67 1    
    39   18  143 1    
    40   19   20 am   BACKBONE|DICT|INTERRES
    41   19  144 1    
    42   20   21 2    
    43   20   22 1    
    44   22   23 1    
    45   22   24 1    
    46   22  145 1    
    47   23  146 1    
    48   23  147 1    
    49   23  148 1    
    50   24   25 am   BACKBONE|DICT|INTERRES
    51   24  149 1    
    52   25   26 2    
    53   25   27 1    
    54   27   28 1    
    55   27   29 1    
    56   27  150 1    
    57   28  151 1    
    58   28  152 1    
    59   28  153 1    
    60   29   30 am   BACKBONE|DICT|INTERRES
    61   29  154 1    
    62   30   31 2    
    63   30   32 1    
    64   32   33 1    
    65   32   34 1    
    66   32  155 1    
    67   33  156 1    
    68   33  157 1    
    69   33  158 1    
    70   34   35 am   BACKBONE|DICT|INTERRES
    71   34  159 1    
    72   35   36 2    
    73   35   37 1    
    74   37   38 1    
    75   37   39 1    
    76   37  160 1    
    77   38  161 1    
    78   38  162 1    
    79   38  163 1    
    80   39   40 am   BACKBONE|DICT|INTERRES
    81   39  164 1    
    82   40   41 2    
    83   40   42 1    
    84   42   43 1    
    85   42   44 1    
    86   42  165 1    
    87   43  166 1    
    88   43  167 1    
    89   43  168 1    
    90   44   45 am   BACKBONE|DICT|INTERRES
    91   44  169 1    
    92   45   46 2    
    93   45   47 1    
    94   47   48 1    
    95   47   49 1    
    96   47  170 1    
    97   48  171 1    
    98   48  172 1    
    99   48  173 1    
   100   49   50 am   BACKBONE|DICT|INTERRES
   101   49  174 1    
   102   50   51 2    
   103   50   52 1    
   104   52   53 1    
   105   52   54 1    
   106   52  175 1    
   107   53  176 1    
   108   53  177 1    
   109   53  178 1    
   110   54   55 am   BACKBONE|DICT|INTERRES
   111   54  179 1    
   112   55   56 2    
   113   55   57 1    
   114   57   58 1    
   115   57   59 1    
   116   57  180 1    
   117   58  181 1    
   118   58  182 1    
   119   58  183 1    
   120   59   60 am   BACKBONE|DICT|INTERRES
   121   59  184 1    
   122   60   61 2    
   123   60   62 1    
   124   62   63 1    
   125   62   64 1    
   126   62  185 1    
   127   63  186 1    
   128   63  187 1    
   129   63  188 1    
   130   64   65 am   BACKBONE|DICT|INTERRES
   131   64  189 1    
   132   65   66 2    
   133   67   68 2    
   134   67   69 am   BACKBONE|DICT|INTERRES
   135   69   70 1    
   136   69  190 1    
   137   70   71 1    
   138   70   72 1    
   139   70  191 1    
   140   71  192 1    
   141   71  193 1    
   142   71  194 1    
   143   72   73 2    
   144   72   74 am   BACKBONE|DICT|INTERRES
   145   74   75 1    
   146   74  195 1    
   147   75   76 1    
   148   75   77 1    
   149   75  196 1    
   150   76  197 1    
   151   76  198 1    
   152   76  199 1    
   153   77   78 2    
   154   77   79 am   BACKBONE|DICT|INTERRES
   155   79   80 1    
   156   79  200 1    
   157   80   81 1    
   158   80   82 1    
   159   80  201 1    
   160   81  202 1    
   161   81  203 1    
   162   81  204 1    
   163   82   83 2    
   164   82   84 am   BACKBONE|DICT|INTERRES
   165   84   85 1    
   166   84  205 1    
   167   85   86 1    
   168   85   87 1    
   169   85  206 1    
   170   86  207 1    
   171   86  208 1    
   172   86  209 1    
   173   87   88 2    
   174   87   89 am   BACKBONE|DICT|INTERRES
   175   89   90 1    
   176   89  210 1    
   177   90   91 1    
   178   90   92 1    
   179   90  211 1    
   180   91  212 1    
   181   91  213 1    
   182   91  214 1    
   183   92   93 2    
   184   92   94 am   BACKBONE|DICT|INTERRES
   185   94   95 1    
   186   94  215 1    
   187   95   96 1    
   188   95   97 1    
   189   95  216 1    
   190   96  217 1    
   191   96  218 1    
   192   96  219 1    
   193   97   98 2    
   194   97   99 am   BACKBONE|DICT|INTERRES
   195   99  100 1    
   196   99  220 1    
   197  100  101 1    
   198  100  102 1    
   199  100  221 1    
   200  101  222 1    
   201  101  223 1    
   202  101  224 1    
   203  102  103 2    
   204  102  104 am   BACKBONE|DICT|INTERRES
   205  104  105 1    
   206  104  225 1    
   207  105  106 1    
   208  105  107 1    
   209  105  226 1    
   210  106  227 1    
   211  106  228 1    
   212  106  229 1    
   213  107  108 2    
   214  107  109 am   BACKBONE|DICT|INTERRES
   215  109  110 1    
   216  109  230 1    
   217  110  111 1    
   218  110  112 1    
   219  110  231 1    
   220  111  232 1    
   221  111  233 1    
   222  111  234 1    
   223  112  113 2    
   224  112  114 am   BACKBONE|DICT|INTERRES
   225  114  115 1    
   226  114  235 1    
   227  115  116 1    
   228  115  117 1    
   229  115  236 1    
   230  116  237 1    
   231  116  238 1    
   232  116  239 1    
   233  117  118 2    
   234  117  119 am   BACKBONE|DICT|INTERRES
   235  119  120 1    
   236  119  240 1    
   237  120  121 1    
   238  120  124 1    
   239  120  241 1    
   240  121  122 am   BACKBONE|DICT|INTERRES
   241  121  123 2    
   242  122  242 1    
   243  122  243 1    
   244  124  125 1    
   245  124  244 1    
   246  124  245 1    
   247  125  126 1    
   248  126  246 1    
   249  126  247 1    
@<TRIPOS>SUBSTRUCTURE
     1 UNK         1 GROUP             0       ****    0 ROOT    
