@<TRIPOS>MOLECULE
3R540
247   249    1
SMALL
USER_CHARGES


@<TRIPOS>ATOM
      1 CA         -2.5740  -13.4891  -52.9263 C.3       0 UNK        -0.1800 
      2 C          -2.2825  -13.9718  -51.5137 C.2       0 UNK         0.5000 
      3 O          -1.2458  -14.5914  -51.2783 O.2       0 UNK        -0.5000 
      4 N          -3.1907  -13.6906  -50.5702 N.am      1 UNK        -0.5000 
      5 CA         -3.0579  -14.0308  -49.1510 C.3       1 UNK         0.1400 
      6 C6         -4.4421  -14.1762  -48.4638 C.3       23 UNK        -0.0398 
      7 S7         -4.3872  -15.3894  -47.1000 S.3       23 UNK        -0.2404 
      8 C8         -5.1981  -16.8351  -47.8557 C.3       23 UNK        -0.0205 
      9 C9         -4.4206  -18.1088  -47.5760 C.ar      23 UNK        -0.0193 
     10 C10        -3.4056  -18.5141  -48.4442 C.ar      23 UNK        -0.1150 
     11 C11        -2.6773  -19.6818  -48.1983 C.ar      23 UNK        -0.0193 
     12 C12        -3.0017  -20.4568  -47.0811 C.ar      23 UNK        -0.1150 
     13 C13        -4.0125  -20.0641  -46.1918 C.ar      23 UNK        -0.0193 
     14 C14        -4.7149  -18.8841  -46.4532 C.ar      23 UNK        -0.1150 
     15 C15        -4.3890  -20.8537  -44.9350 C.3       23 UNK        -0.0205 
     16 S16        -3.6258  -22.5007  -44.7334 S.3       23 UNK        -0.2404 
     17 C17        -1.8993  -22.0804  -44.3036 C.3       23 UNK        -0.0398 
     18 CA         -0.8752  -22.9196  -45.1127 C.3       11 UNK         0.1400 
     19 N           0.3277  -22.1411  -45.4475 N.am      11 UNK        -0.5000 
     20 C           1.3228  -22.5336  -46.2571 C.2       10 UNK         0.5000 
     21 O           1.3622  -23.6344  -46.8062 O.2       10 UNK        -0.5000 
     22 CA          2.5018  -21.5645  -46.4415 C.3       10 UNK         0.1400 
     23 CB          2.2414  -20.6226  -47.6228 C.3       10 UNK        -0.1800 
     24 N           2.8015  -20.8029  -45.2248 N.am      10 UNK        -0.5000 
     25 C           3.3208  -21.3648  -44.1225 C.2       9 UNK         0.5000 
     26 O           3.6025  -22.5609  -44.0414 O.2       9 UNK        -0.5000 
     27 CA          3.5357  -20.4633  -42.8946 C.3       9 UNK         0.1400 
     28 CB          4.6697  -19.4519  -43.1125 C.3       9 UNK        -0.1800 
     29 N           2.3148  -19.7822  -42.4584 N.am      9 UNK        -0.5000 
     30 C           1.2742  -20.4220  -41.9038 C.2       8 UNK         0.5000 
     31 O           1.1797  -21.6478  -41.8336 O.2       8 UNK        -0.5000 
     32 CA          0.1557  -19.5573  -41.3125 C.3       8 UNK         0.1400 
     33 CB          0.6404  -18.7531  -40.0935 C.3       8 UNK        -0.1800 
     34 N          -0.3876  -18.6568  -42.3254 N.am      8 UNK        -0.5000 
     35 C          -1.6710  -18.6502  -42.7019 C.2       7 UNK         0.5000 
     36 O          -2.5296  -19.3745  -42.1976 O.2       7 UNK        -0.5000 
     37 CA         -2.0981  -17.6791  -43.8153 C.3       7 UNK         0.1400 
     38 CB         -2.8455  -16.4754  -43.2217 C.3       7 UNK        -0.1800 
     39 N          -1.0310  -17.1896  -44.6851 N.am      7 UNK        -0.5000 
     40 C          -0.3381  -17.9264  -45.5629 C.2       6 UNK         0.5000 
     41 O          -0.3017  -19.1566  -45.5593 O.2       6 UNK        -0.5000 
     42 CA          0.4526  -17.1339  -46.6171 C.3       6 UNK         0.1400 
     43 CB         -0.4656  -16.2193  -47.4403 C.3       6 UNK        -0.1800 
     44 N           1.4843  -16.3273  -45.9816 N.am      6 UNK        -0.5000 
     45 C           2.6802  -16.7987  -45.6125 C.2       5 UNK         0.5000 
     46 O           3.0899  -17.9231  -45.8958 O.2       5 UNK        -0.5000 
     47 CA          3.5296  -15.8828  -44.7107 C.3       5 UNK         0.1400 
     48 CB          4.4102  -14.9417  -45.5448 C.3       5 UNK        -0.1800 
     49 N           2.7041  -15.1102  -43.7789 N.am      5 UNK        -0.5000 
     50 C           1.9445  -15.6667  -42.8230 C.2       4 UNK         0.5000 
     51 O           1.9258  -16.8775  -42.5952 O.2       4 UNK        -0.5000 
     52 CA          1.0209  -14.7371  -42.0130 C.3       4 UNK         0.1400 
     53 CB          1.6707  -14.3761  -40.6698 C.3       4 UNK        -0.1800 
     54 N           0.6473  -13.5057  -42.7156 N.am      4 UNK        -0.5000 
     55 C          -0.0946  -13.4489  -43.8307 C.2       3 UNK         0.5000 
     56 O          -0.5440  -14.4493  -44.3914 O.2       3 UNK        -0.5000 
     57 CA         -0.3829  -12.0538  -44.4278 C.3       3 UNK         0.1400 
     58 CB          0.5783  -10.9520  -43.9282 C.3       3 UNK        -0.1800 
     59 N          -0.4144  -12.0645  -45.8943 N.am      3 UNK        -0.5000 
     60 C           0.5554  -12.4677  -46.7253 C.2       2 UNK         0.5000 
     61 O           1.6254  -12.9439  -46.3427 O.2       2 UNK        -0.5000 
     62 CA          0.2742  -12.3040  -48.2358 C.3       2 UNK         0.1400 
     63 CB          1.5181  -12.5897  -49.0963 C.3       2 UNK        -0.1800 
     64 N          -0.8167  -13.1511  -48.7183 N.am      2 UNK        -0.5000 
     65 C          -2.1215  -13.0163  -48.4540 C.2       1 UNK         0.5000 
     66 O          -2.5818  -12.1127  -47.7528 O.2       1 UNK        -0.5000 
     67 C          -0.5973  -24.2834  -44.4315 C.2       11 UNK         0.5000 
     68 O          -1.4962  -25.1217  -44.3582 O.2       11 UNK        -0.5000 
     69 N           0.6426  -24.5118  -43.9758 N.am      12 UNK        -0.5000 
     70 CA          1.1342  -25.8105  -43.5173 C.3       12 UNK         0.1400 
     71 CB          2.5113  -25.6159  -42.8658 C.3       12 UNK        -0.1800 
     72 C           1.2124  -26.8730  -44.6374 C.2       12 UNK         0.5000 
     73 O           1.2293  -28.0637  -44.3211 O.2       12 UNK        -0.5000 
     74 N           1.2613  -26.4425  -45.9075 N.am      13 UNK        -0.5000 
     75 CA          1.3220  -27.3150  -47.0814 C.3       13 UNK         0.1400 
     76 CB          2.7643  -27.3513  -47.6126 C.3       13 UNK        -0.1800 
     77 C           0.3438  -26.8846  -48.1887 C.2       13 UNK         0.5000 
     78 O          -0.2712  -27.7496  -48.8144 O.2       13 UNK        -0.5000 
     79 N           0.2221  -25.5737  -48.4325 N.am      14 UNK        -0.5000 
     80 CA         -0.6449  -24.9944  -49.4579 C.3       14 UNK         0.1400 
     81 CB         -0.1346  -23.5839  -49.7933 C.3       14 UNK        -0.1800 
     82 C          -2.1152  -24.9363  -49.0068 C.2       14 UNK         0.5000 
     83 O          -2.3956  -24.8603  -47.8091 O.2       14 UNK        -0.5000 
     84 N          -3.0261  -24.9375  -49.9866 N.am      15 UNK        -0.5000 
     85 CA         -4.4584  -24.7210  -49.7857 C.3       15 UNK         0.1400 
     86 CB         -5.2109  -25.2302  -51.0256 C.3       15 UNK        -0.1800 
     87 C          -4.7667  -23.2309  -49.5571 C.2       15 UNK         0.5000 
     88 O          -4.0286  -22.3690  -50.0366 O.2       15 UNK        -0.5000 
     89 N          -5.8917  -22.9428  -48.8942 N.am      16 UNK        -0.5000 
     90 CA         -6.3706  -21.5894  -48.5952 C.3       16 UNK         0.1400 
     91 CB         -7.2785  -21.6553  -47.3542 C.3       16 UNK        -0.1800 
     92 C          -7.0595  -20.9098  -49.8010 C.2       16 UNK         0.5000 
     93 O          -8.1391  -20.3350  -49.6514 O.2       16 UNK        -0.5000 
     94 N          -6.4336  -21.0006  -50.9808 N.am      17 UNK        -0.5000 
     95 CA         -6.9568  -20.5037  -52.2569 C.3       17 UNK         0.1400 
     96 CB         -6.7902  -21.6001  -53.3221 C.3       17 UNK        -0.1800 
     97 C          -6.2933  -19.1841  -52.6996 C.2       17 UNK         0.5000 
     98 O          -6.5348  -18.7394  -53.8234 O.2       17 UNK        -0.5000 
     99 N          -5.4727  -18.5799  -51.8251 N.am      18 UNK        -0.5000 
    100 CA        -4.7598  -17.3136  -52.0219 C.3       18 UNK         0.1400 
    101 CB        -5.7546  -16.1303  -52.0196 C.3       18 UNK        -0.1800 
    102 C         -3.8395  -17.3691  -53.2572 C.2       18 UNK         0.5000 
    103 O         -2.9418  -18.2120  -53.2967 O.2       18 UNK        -0.5000 
    104 N         -4.0841  -16.5049  -54.2510 N.am      19 UNK        -0.5000 
    105 CA        -3.3217  -16.3967  -55.4982 C.3       19 UNK         0.1400 
    106 CB        -3.8475  -15.1934  -56.2960 C.3       19 UNK        -0.1800 
    107 C         -3.3350  -17.6674  -56.3720 C.2       19 UNK         0.5000 
    108 O         -2.4182  -17.8524  -57.1728 O.2       19 UNK        -0.5000 
    109 N         -4.3514  -18.5243  -56.2004 N.am      20 UNK        -0.5000 
    110 CA        -4.4566  -19.8189  -56.8755 C.3       20 UNK         0.1400 
    111 CB        -5.9382  -20.2145  -56.9673 C.3       20 UNK        -0.1800 
    112 C         -3.6255  -20.9282  -56.1954 C.2       20 UNK         0.5000 
    113 O         -3.4920  -22.0075  -56.7741 O.2       20 UNK        -0.5000 
    114 N         -3.0888  -20.6596  -54.9976 N.am      21 UNK        -0.5000 
    115 CA        -2.2354  -21.5610  -54.2327 C.3       21 UNK         0.1400 
    116 CB        -2.9641  -21.9824  -52.9435 C.3       21 UNK        -0.1800 
    117 C         -0.8834  -20.8738  -53.9838 C.2       21 UNK         0.5000 
    118 O         -0.0421  -20.8652  -54.8835 O.2       21 UNK        -0.5000 
    119 N         -0.6853  -20.3341  -52.7753 N.am      22 UNK        -0.5000 
    120 CA         0.5590  -19.6839  -52.3386 C.3       22 UNK         0.1400 
    121 C          0.8190  -18.2697  -52.9354 C.2       22 UNK         0.5000 
    122 N         -0.1773  -17.5839  -53.4791 N.am      22 UNK        -0.7600 
    123 O          1.9522  -17.7965  -52.9185 O.2       22 UNK        -0.5000 
    124 C124        0.6961  -19.7012  -50.7952 C.3       23 UNK        -0.0398 
    125 S125       -0.6203  -18.7901  -49.9143 S.3       23 UNK        -0.2404 
    126 C126       -1.5511  -20.1443  -49.1223 C.3       23 UNK        -0.0205 
    127 H127       -2.0192  -12.5737  -53.1306 H         1 UNK         0.0600 
    128 H128       -3.6355  -13.2905  -53.0744 H         1 UNK         0.0600 
    129 H129       -2.2646  -14.2417  -53.6502 H         1 UNK         0.0600 
    130 H130       -3.9973  -13.1331  -50.8131 H         1 UNK         0.3000 
    131 H131       -2.5700  -15.0070  -49.1042 H         1 UNK         0.0600 
    132 H132       -5.1922  -14.4980  -49.1864 H         1 UNK         0.0800 
    133 H133       -4.8185  -13.2259  -48.0826 H         1 UNK         0.0800 
    134 H134       -6.2145  -16.9175  -47.4680 H         1 UNK         0.0800 
    135 H135       -5.2953  -16.7113  -48.9337 H         1 UNK         0.0800 
    136 H136       -3.1689  -17.9047  -49.3016 H         1 UNK         0.1150 
    137 H137       -2.4490  -21.3662  -46.9155 H         1 UNK         0.1150 
    138 H138       -5.4957  -18.5647  -45.7770 H         1 UNK         0.1150 
    139 H139       -4.1621  -20.2528  -44.0553 H         1 UNK         0.0800 
    140 H140       -5.4702  -20.9924  -44.9265 H         1 UNK         0.0800 
    141 H141       -1.7534  -22.1857  -43.2268 H         1 UNK         0.0800 
    142 H142       -1.7590  -21.0203  -44.5086 H         1 UNK         0.0800 
    143 H143       -1.3196  -23.1655  -46.0781 H         1 UNK         0.0600 
    144 H144        0.3611  -21.1924  -45.0925 H         1 UNK         0.3000 
    145 H145        3.3830  -22.1617  -46.6861 H         1 UNK         0.0600 
    146 H146        3.0615  -19.9188  -47.7629 H         1 UNK         0.0600 
    147 H147        2.1401  -21.1910  -48.5474 H         1 UNK         0.0600 
    148 H148        1.3232  -20.0544  -47.4879 H         1 UNK         0.0600 
    149 H149        2.6420  -19.8009  -45.2570 H         1 UNK         0.3000 
    150 H150        3.8490  -21.1127  -42.0739 H         1 UNK         0.0600 
    151 H151        5.6092  -19.9649  -43.3216 H         1 UNK         0.0600 
    152 H152        4.8256  -18.8337  -42.2283 H         1 UNK         0.0600 
    153 H153        4.4705  -18.7924  -43.9522 H         1 UNK         0.0600 
    154 H154        2.3093  -18.7667  -42.4946 H         1 UNK         0.3000 
    155 H155       -0.6118  -20.2470  -40.9554 H         1 UNK         0.0600 
    156 H156        1.4382  -18.0555  -40.3452 H         1 UNK         0.0600 
    157 H157        1.0232  -19.4183  -39.3186 H         1 UNK         0.0600 
    158 H158       -0.1758  -18.1794  -39.6544 H         1 UNK         0.0600 
    159 H159        0.2709  -18.0355  -42.7814 H         1 UNK         0.3000 
    160 H160       -2.7976  -18.2200  -44.4517 H         1 UNK         0.0600 
    161 H161       -3.2330  -15.8265  -44.0076 H         1 UNK         0.0600 
    162 H162       -2.1975  -15.8766  -42.5813 H         1 UNK         0.0600 
    163 H163       -3.6959  -16.7985  -42.6201 H         1 UNK         0.0600 
    164 H164       -0.9223  -16.1772  -44.7140 H         1 UNK         0.3000 
    165 H165        0.9125  -17.8424  -47.3065 H         1 UNK         0.0600 
    166 H166       -0.8607  -15.3928  -46.8505 H         1 UNK         0.0600 
    167 H167        0.0701  -15.8027  -48.2927 H         1 UNK         0.0600 
    168 H168       -1.3185  -16.7717  -47.8315 H         1 UNK         0.0600 
    169 H169        1.2149  -15.4004  -45.6767 H         1 UNK         0.3000 
    170 H170        4.1906  -16.5145  -44.1159 H         1 UNK         0.0600 
    171 H171        5.0832  -15.5112  -46.1868 H         1 UNK         0.0600 
    172 H172        3.8178  -14.2943  -46.1901 H         1 UNK         0.0600 
    173 H173        5.0274  -14.3085  -44.9074 H         1 UNK         0.0600 
    174 H174        2.6433  -14.1145  -43.9359 H         1 UNK         0.3000 
    175 H175        0.1054  -15.2952  -41.8073 H         1 UNK         0.0600 
    176 H176        2.5833  -13.7948  -40.8072 H         1 UNK         0.0600 
    177 H177        0.9914  -13.7948  -40.0461 H         1 UNK         0.0600 
    178 H178        1.9344  -15.2745  -40.1097 H         1 UNK         0.0600 
    179 H179        0.9864  -12.6414  -42.3188 H         1 UNK         0.3000 
    180 H180       -1.3906  -11.7902  -44.1046 H         1 UNK         0.0600 
    181 H181        1.6199  -11.1906  -44.1468 H         1 UNK         0.0600 
    182 H182        0.4872  -10.7984  -42.8525 H         1 UNK         0.0600 
    183 H183        0.3538   -9.9961  -44.4016 H         1 UNK         0.0600 
    184 H184       -1.2948  -11.7922  -46.3216 H         1 UNK         0.3000 
    185 H185       -0.0078  -11.2619  -48.3982 H         1 UNK         0.0600 
    186 H186        2.3547  -11.9560  -48.7992 H         1 UNK         0.0600 
    187 H187        1.8414  -13.6274  -49.0029 H         1 UNK         0.0600 
    188 H188        1.3222  -12.3939  -50.1507 H         1 UNK         0.0600 
    189 H189       -0.5545  -13.8806  -49.3711 H         1 UNK         0.3000 
    190 H190        1.3275  -23.7711  -44.0475 H         1 UNK         0.3000 
    191 H191        0.4451  -26.1825  -42.7565 H         1 UNK         0.0600 
    192 H192        3.2504  -25.2680  -43.5886 H         1 UNK         0.0600 
    193 H193        2.8802  -26.5517  -42.4442 H         1 UNK         0.0600 
    194 H194        2.4669  -24.8880  -42.0552 H         1 UNK         0.0600 
    195 H195        1.2403  -25.4433  -46.0846 H         1 UNK         0.3000 
    196 H196        1.0402  -28.3329  -46.8036 H         1 UNK         0.0600 
    197 H197        2.8410  -27.9858  -48.4965 H         1 UNK         0.0600 
    198 H198        3.4485  -27.7518  -46.8643 H         1 UNK         0.0600 
    199 H199        3.1152  -26.3560  -47.8887 H         1 UNK         0.0600 
    200 H200        0.7262  -24.9040  -47.8561 H         1 UNK         0.3000 
    201 H201       -0.5790  -25.6079  -50.3590 H         1 UNK         0.0600 
    202 H202        0.9015  -23.6066  -50.1312 H         1 UNK         0.0600 
    203 H203       -0.1893  -22.9280  -48.9258 H         1 UNK         0.0600 
    204 H204       -0.7261  -23.1266  -50.5863 H         1 UNK         0.0600 
    205 H205       -2.7127  -24.9593  -50.9452 H         1 UNK         0.3000 
    206 H206       -4.7869  -25.2892  -48.9126 H         1 UNK         0.0600 
    207 H207       -5.0159  -26.2889  -51.1984 H         1 UNK         0.0600 
    208 H208       -6.2890  -25.1155  -50.9058 H         1 UNK         0.0600 
    209 H209       -4.9223  -24.6842  -51.9251 H         1 UNK         0.0600 
    210 H210       -6.4778  -23.7002  -48.5743 H         1 UNK         0.3000 
    211 H211       -5.5106  -20.9690  -48.3454 H         1 UNK         0.0600 
    212 H212       -6.7763  -22.1521  -46.5246 H         1 UNK         0.0600 
    213 H213       -8.2008  -22.2004  -47.5588 H         1 UNK         0.0600 
    214 H214       -7.5520  -20.6550  -47.0158 H         1 UNK         0.0600 
    215 H215       -5.5317  -21.4670  -50.9979 H         1 UNK         0.3000 
    216 H216       -8.0255  -20.3017  -52.1627 H         1 UNK         0.0600 
    217 H217       -7.4180  -21.3906  -54.1880 H         1 UNK         0.0600 
    218 H218       -7.0872  -22.5779  -52.9423 H         1 UNK         0.0600 
    219 H219       -5.7631  -21.6711  -53.6754 H         1 UNK         0.0600 
    220 H220       -5.3081  -19.0489  -50.9467 H         1 UNK         0.3000 
    221 H221       -4.0968  -17.1822  -51.1687 H         1 UNK         0.0600 
    222 H222       -6.4628  -16.1823  -52.8471 H         1 UNK         0.0600 
    223 H223       -6.3356  -16.1135  -51.0978 H         1 UNK         0.0600 
    224 H224       -5.2350  -15.1744  -52.0845 H         1 UNK         0.0600 
    225 H225       -4.8720  -15.8813  -54.1554 H         1 UNK         0.3000 
    226 H226       -2.2810  -16.2021  -55.2324 H         1 UNK         0.0600 
    227 H227       -3.7614  -14.2690  -55.7251 H         1 UNK         0.0600 
    228 H228       -3.2803  -15.0570  -57.2177 H         1 UNK         0.0600 
    229 H229       -4.8949  -15.3220  -56.5716 H         1 UNK         0.0600 
    230 H230       -5.0615  -18.3154  -55.5083 H         1 UNK         0.3000 
    231 H231       -4.0797  -19.7181  -57.8955 H         1 UNK         0.0600 
    232 H232       -6.5126  -19.4656  -57.5127 H         1 UNK         0.0600 
    233 H233       -6.3853  -20.3248  -55.9813 H         1 UNK         0.0600 
    234 H234       -6.0610  -21.1629  -57.4918 H         1 UNK         0.0600 
    235 H235       -3.1975  -19.7296  -54.6069 H         1 UNK         0.3000 
    236 H236       -2.0162  -22.4677  -54.8000 H         1 UNK         0.0600 
    237 H237       -2.3021  -22.5306  -52.2734 H         1 UNK         0.0600 
    238 H238       -3.3614  -21.1252  -52.3981 H         1 UNK         0.0600 
    239 H239       -3.7938  -22.6503  -53.1692 H         1 UNK         0.0600 
    240 H240       -1.4501  -20.3115  -52.1178 H         1 UNK         0.3000 
    241 H241        1.3766  -20.3000  -52.7182 H         1 UNK         0.0600 
    242 H242       -1.1283  -17.9410  -53.4384 H         1 UNK         0.3800 
    243 H243        0.0045  -16.6667  -53.8498 H         1 UNK         0.3800 
    244 H244        1.6575  -19.2811  -50.4954 H         1 UNK         0.0800 
    245 H245        0.7114  -20.7347  -50.4495 H         1 UNK         0.0800 
    246 H246       -0.8450  -20.7423  -48.5463 H         1 UNK         0.0800 
    247 H247       -1.9667  -20.7937  -49.8919 H         1 UNK         0.0800 
@<TRIPOS>BOND
     1    1    2 1    
     2    1  127 1    
     3    1  128 1    
     4    1  129 1    
     5    2    3 2    
     6    2    4 am   BACKBONE|DICT|INTERRES
     7    4    5 1    
     8    4  130 1    
     9    5    6 1    
    10    5   65 1    
    11    5  131 1    
    12    6    7 1    
    13    6  132 1    
    14    6  133 1    
    15    7    8 1    
    16    8    9 1    
    17    8  134 1    
    18    8  135 1    
    19    9   10 ar   
    20    9   14 ar   
    21   10   11 ar   
    22   10  136 1    
    23   11   12 ar   
    24   11  126 1    
    25   12   13 ar   
    26   12  137 1    
    27   13   14 ar   
    28   13   15 1    
    29   14  138 1    
    30   15   16 1    
    31   15  139 1    
    32   15  140 1    
    33   16   17 1    
    34   17   18 1    
    35   17  141 1    
    36   17  142 1    
    37   18   19 1    
    38   18   67 1    
    39   18  143 1    
    40   19   20 am   BACKBONE|DICT|INTERRES
    41   19  144 1    
    42   20   21 2    
    43   20   22 1    
    44   22   23 1    
    45   22   24 1    
    46   22  145 1    
    47   23  146 1    
    48   23  147 1    
    49   23  148 1    
    50   24   25 am   BACKBONE|DICT|INTERRES
    51   24  149 1    
    52   25   26 2    
    53   25   27 1    
    54   27   28 1    
    55   27   29 1    
    56   27  150 1    
    57   28  151 1    
    58   28  152 1    
    59   28  153 1    
    60   29   30 am   BACKBONE|DICT|INTERRES
    61   29  154 1    
    62   30   31 2    
    63   30   32 1    
    64   32   33 1    
    65   32   34 1    
    66   32  155 1    
    67   33  156 1    
    68   33  157 1    
    69   33  158 1    
    70   34   35 am   BACKBONE|DICT|INTERRES
    71   34  159 1    
    72   35   36 2    
    73   35   37 1    
    74   37   38 1    
    75   37   39 1    
    76   37  160 1    
    77   38  161 1    
    78   38  162 1    
    79   38  163 1    
    80   39   40 am   BACKBONE|DICT|INTERRES
    81   39  164 1    
    82   40   41 2    
    83   40   42 1    
    84   42   43 1    
    85   42   44 1    
    86   42  165 1    
    87   43  166 1    
    88   43  167 1    
    89   43  168 1    
    90   44   45 am   BACKBONE|DICT|INTERRES
    91   44  169 1    
    92   45   46 2    
    93   45   47 1    
    94   47   48 1    
    95   47   49 1    
    96   47  170 1    
    97   48  171 1    
    98   48  172 1    
    99   48  173 1    
   100   49   50 am   BACKBONE|DICT|INTERRES
   101   49  174 1    
   102   50   51 2    
   103   50   52 1    
   104   52   53 1    
   105   52   54 1    
   106   52  175 1    
   107   53  176 1    
   108   53  177 1    
   109   53  178 1    
   110   54   55 am   BACKBONE|DICT|INTERRES
   111   54  179 1    
   112   55   56 2    
   113   55   57 1    
   114   57   58 1    
   115   57   59 1    
   116   57  180 1    
   117   58  181 1    
   118   58  182 1    
   119   58  183 1    
   120   59   60 am   BACKBONE|DICT|INTERRES
   121   59  184 1    
   122   60   61 2    
   123   60   62 1    
   124   62   63 1    
   125   62   64 1    
   126   62  185 1    
   127   63  186 1    
   128   63  187 1    
   129   63  188 1    
   130   64   65 am   BACKBONE|DICT|INTERRES
   131   64  189 1    
   132   65   66 2    
   133   67   68 2    
   134   67   69 am   BACKBONE|DICT|INTERRES
   135   69   70 1    
   136   69  190 1    
   137   70   71 1    
   138   70   72 1    
   139   70  191 1    
   140   71  192 1    
   141   71  193 1    
   142   71  194 1    
   143   72   73 2    
   144   72   74 am   BACKBONE|DICT|INTERRES
   145   74   75 1    
   146   74  195 1    
   147   75   76 1    
   148   75   77 1    
   149   75  196 1    
   150   76  197 1    
   151   76  198 1    
   152   76  199 1    
   153   77   78 2    
   154   77   79 am   BACKBONE|DICT|INTERRES
   155   79   80 1    
   156   79  200 1    
   157   80   81 1    
   158   80   82 1    
   159   80  201 1    
   160   81  202 1    
   161   81  203 1    
   162   81  204 1    
   163   82   83 2    
   164   82   84 am   BACKBONE|DICT|INTERRES
   165   84   85 1    
   166   84  205 1    
   167   85   86 1    
   168   85   87 1    
   169   85  206 1    
   170   86  207 1    
   171   86  208 1    
   172   86  209 1    
   173   87   88 2    
   174   87   89 am   BACKBONE|DICT|INTERRES
   175   89   90 1    
   176   89  210 1    
   177   90   91 1    
   178   90   92 1    
   179   90  211 1    
   180   91  212 1    
   181   91  213 1    
   182   91  214 1    
   183   92   93 2    
   184   92   94 am   BACKBONE|DICT|INTERRES
   185   94   95 1    
   186   94  215 1    
   187   95   96 1    
   188   95   97 1    
   189   95  216 1    
   190   96  217 1    
   191   96  218 1    
   192   96  219 1    
   193   97   98 2    
   194   97   99 am   BACKBONE|DICT|INTERRES
   195   99  100 1    
   196   99  220 1    
   197  100  101 1    
   198  100  102 1    
   199  100  221 1    
   200  101  222 1    
   201  101  223 1    
   202  101  224 1    
   203  102  103 2    
   204  102  104 am   BACKBONE|DICT|INTERRES
   205  104  105 1    
   206  104  225 1    
   207  105  106 1    
   208  105  107 1    
   209  105  226 1    
   210  106  227 1    
   211  106  228 1    
   212  106  229 1    
   213  107  108 2    
   214  107  109 am   BACKBONE|DICT|INTERRES
   215  109  110 1    
   216  109  230 1    
   217  110  111 1    
   218  110  112 1    
   219  110  231 1    
   220  111  232 1    
   221  111  233 1    
   222  111  234 1    
   223  112  113 2    
   224  112  114 am   BACKBONE|DICT|INTERRES
   225  114  115 1    
   226  114  235 1    
   227  115  116 1    
   228  115  117 1    
   229  115  236 1    
   230  116  237 1    
   231  116  238 1    
   232  116  239 1    
   233  117  118 2    
   234  117  119 am   BACKBONE|DICT|INTERRES
   235  119  120 1    
   236  119  240 1    
   237  120  121 1    
   238  120  124 1    
   239  120  241 1    
   240  121  122 am   BACKBONE|DICT|INTERRES
   241  121  123 2    
   242  122  242 1    
   243  122  243 1    
   244  124  125 1    
   245  124  244 1    
   246  124  245 1    
   247  125  126 1    
   248  126  246 1    
   249  126  247 1    
@<TRIPOS>SUBSTRUCTURE
     1 UNK         1 GROUP             0       ****    0 ROOT    
