@<TRIPOS>MOLECULE
3R540
247   249    1
SMALL
USER_CHARGES


@<TRIPOS>ATOM
      1 CA          3.9719  -12.1421  -46.5264 C.3       0 UNK        -0.1800 
      2 C           2.9555  -11.8906  -47.6392 C.2       0 UNK         0.5000 
      3 O           3.2713  -11.1889  -48.5974 O.2       0 UNK        -0.5000 
      4 N           1.7353  -12.4406  -47.5682 N.am      1 UNK        -0.5000 
      5 CA          1.2038  -13.2613  -46.4714 C.3       1 UNK         0.1400 
      6 C6          0.0535  -14.1890  -46.9354 C.3       23 UNK        -0.0398 
      7 S7          0.5499  -15.2878  -48.3051 S.3       23 UNK        -0.2404 
      8 C8         -0.4108  -16.7873  -47.9376 C.3       23 UNK        -0.0205 
      9 C9         -0.3370  -17.7741  -49.0924 C.ar      23 UNK        -0.0193 
     10 C10        -1.3867  -17.8723  -50.0118 C.ar      23 UNK        -0.1150 
     11 C11        -1.3055  -18.7653  -51.0847 C.ar      23 UNK        -0.0193 
     12 C12        -0.1666  -19.5625  -51.2312 C.ar      23 UNK        -0.1150 
     13 C13         0.8881  -19.4729  -50.3222 C.ar      23 UNK        -0.0193 
     14 C14         0.7935  -18.5796  -49.2527 C.ar      23 UNK        -0.1150 
     15 C15         2.1446  -20.3088  -50.5241 C.3       23 UNK        -0.0205 
     16 S16         1.9072  -22.0576  -50.0757 S.3       23 UNK        -0.2404 
     17 C17         1.6921  -21.9415  -48.2675 C.3       23 UNK        -0.0398 
     18 CA          0.5056  -22.7732  -47.7294 C.3       11 UNK         0.1400 
     19 N           0.5362  -22.8381  -46.2667 N.am      11 UNK        -0.5000 
     20 C          -0.1340  -23.7302  -45.5258 C.2       10 UNK         0.5000 
     21 O          -0.8339  -24.6235  -45.9996 O.2       10 UNK        -0.5000 
     22 CA         -0.0337  -23.5716  -43.9971 C.3       10 UNK         0.1400 
     23 CB          1.2252  -24.2700  -43.4624 C.3       10 UNK        -0.1800 
     24 N          -0.0299  -22.1706  -43.5704 N.am      10 UNK        -0.5000 
     25 C          -1.0686  -21.3364  -43.7169 C.2       9 UNK         0.5000 
     26 O          -2.1462  -21.6718  -44.2034 O.2       9 UNK        -0.5000 
     27 CA         -0.8648  -19.8744  -43.2806 C.3       9 UNK         0.1400 
     28 CB         -1.2143  -19.7271  -41.7919 C.3       9 UNK        -0.1800 
     29 N           0.4840  -19.3499  -43.5220 N.am      9 UNK        -0.5000 
     30 C           1.1232  -19.3360  -44.7018 C.2       8 UNK         0.5000 
     31 O           0.6469  -19.7963  -45.7416 O.2       8 UNK        -0.5000 
     32 CA          2.5172  -18.6853  -44.7008 C.3       8 UNK         0.1400 
     33 CB          3.1224  -18.5169  -46.1049 C.3       8 UNK        -0.1800 
     34 N           2.4373  -17.3768  -44.0612 N.am      8 UNK        -0.5000 
     35 C           3.2611  -16.9103  -43.1164 C.2       7 UNK         0.5000 
     36 O           4.2198  -17.5386  -42.6669 O.2       7 UNK        -0.5000 
     37 CA          2.9632  -15.4927  -42.5863 C.3       7 UNK         0.1400 
     38 CB          3.8172  -14.4682  -43.3529 C.3       7 UNK        -0.1800 
     39 N           1.5579  -15.0901  -42.6951 N.am      7 UNK        -0.5000 
     40 C           0.5004  -15.7031  -42.1467 C.2       6 UNK         0.5000 
     41 O           0.5710  -16.7270  -41.4667 O.2       6 UNK        -0.5000 
     42 CA         -0.8506  -15.0229  -42.4295 C.3       6 UNK         0.1400 
     43 CB         -2.0814  -15.8602  -42.0215 C.3       6 UNK        -0.1800 
     44 N          -0.8610  -13.6725  -41.8584 N.am      6 UNK        -0.5000 
     45 C          -0.9597  -13.3306  -40.5660 C.2       5 UNK         0.5000 
     46 O          -1.1953  -14.1212  -39.6507 O.2       5 UNK        -0.5000 
     47 CA         -0.7210  -11.8372  -40.2603 C.3       5 UNK         0.1400 
     48 CB         -1.1468  -11.4408  -38.8312 C.3       5 UNK        -0.1800 
     49 N           0.6663  -11.4259  -40.5101 N.am      5 UNK        -0.5000 
     50 C           1.7829  -11.9474  -39.9716 C.2       4 UNK         0.5000 
     51 O           1.7929  -12.9002  -39.1919 O.2       4 UNK        -0.5000 
     52 CA          3.1149  -11.2773  -40.3573 C.3       4 UNK         0.1400 
     53 CB          4.3213  -12.2302  -40.2654 C.3       4 UNK        -0.1800 
     54 N           3.0413  -10.6900  -41.6960 N.am      4 UNK        -0.5000 
     55 C           3.4463   -9.4521  -42.0063 C.2       3 UNK         0.5000 
     56 O           4.0124   -8.6978  -41.2138 O.2       3 UNK        -0.5000 
     57 CA          3.1598   -8.9527  -43.4372 C.3       3 UNK         0.1400 
     58 CB          4.4115   -9.1146  -44.3135 C.3       3 UNK        -0.1800 
     59 N           2.0204   -9.5872  -44.1117 N.am      3 UNK        -0.5000 
     60 C           0.7525   -9.6145  -43.6739 C.2       2 UNK         0.5000 
     61 O           0.3981   -9.2047  -42.5683 O.2       2 UNK        -0.5000 
     62 CA         -0.3008  -10.2223  -44.6196 C.3       2 UNK         0.1400 
     63 CB         -1.0488   -9.1098  -45.3691 C.3       2 UNK        -0.1800 
     64 N           0.2489  -11.1667  -45.5961 N.am      2 UNK        -0.5000 
     65 C           0.7291  -12.3813  -45.2966 C.2       1 UNK         0.5000 
     66 O           0.8238  -12.8047  -44.1447 O.2       1 UNK        -0.5000 
     67 C          -0.8632  -22.2643  -48.2292 C.2       11 UNK         0.5000 
     68 O          -1.3984  -22.8105  -49.1970 O.2       11 UNK        -0.5000 
     69 N          -1.4297  -21.2773  -47.5181 N.am      12 UNK        -0.5000 
     70 CA         -2.7785  -20.7647  -47.7524 C.3       12 UNK         0.1400 
     71 CB         -3.0230  -19.5171  -46.8908 C.3       12 UNK        -0.1800 
     72 C          -3.8560  -21.8346  -47.4975 C.2       12 UNK         0.5000 
     73 O          -4.7159  -22.0411  -48.3506 O.2       12 UNK        -0.5000 
     74 N          -3.7591  -22.5375  -46.3590 N.am      13 UNK        -0.5000 
     75 CA         -4.6478  -23.6371  -45.9699 C.3       13 UNK         0.1400 
     76 CB         -4.3180  -24.0801  -44.5367 C.3       13 UNK        -0.1800 
     77 C          -4.5917  -24.8387  -46.9320 C.2       13 UNK         0.5000 
     78 O          -5.6207  -25.4684  -47.1785 O.2       13 UNK        -0.5000 
     79 N          -3.4030  -25.1099  -47.4869 N.am      14 UNK        -0.5000 
     80 CA         -3.1763  -26.1036  -48.5366 C.3       14 UNK         0.1400 
     81 CB         -1.6808  -26.4586  -48.5735 C.3       14 UNK        -0.1800 
     82 C          -3.6475  -25.6441  -49.9312 C.2       14 UNK         0.5000 
     83 O          -3.5962  -26.4450  -50.8649 O.2       14 UNK        -0.5000 
     84 N          -4.0546  -24.3736  -50.0741 N.am      15 UNK        -0.5000 
     85 CA         -4.4830  -23.7150  -51.3109 C.3       15 UNK         0.1400 
     86 CB         -5.8116  -24.3224  -51.8069 C.3       15 UNK        -0.1800 
     87 C          -3.3780  -23.7107  -52.3873 C.2       15 UNK         0.5000 
     88 O          -3.6605  -23.9652  -53.5596 O.2       15 UNK        -0.5000 
     89 N          -2.1271  -23.4841  -51.9540 N.am      16 UNK        -0.5000 
     90 CA         -0.8897  -23.5906  -52.7387 C.3       16 UNK         0.1400 
     91 CB         -0.8552  -22.5351  -53.8627 C.3       16 UNK        -0.1800 
     92 C          -0.6402  -25.0199  -53.2716 C.2       16 UNK         0.5000 
     93 O          -0.1005  -25.1805  -54.3664 O.2       16 UNK        -0.5000 
     94 N          -1.0576  -26.0261  -52.4880 N.am      17 UNK        -0.5000 
     95 CA         -1.1421  -27.4494  -52.8332 C.3       17 UNK         0.1400 
     96 CB          0.2427  -28.0463  -53.1633 C.3       17 UNK        -0.1800 
     97 C          -2.2059  -27.6941  -53.9240 C.2       17 UNK         0.5000 
     98 O          -1.9238  -28.3295  -54.9416 O.2       17 UNK        -0.5000 
     99 N          -3.4136  -27.1674  -53.6684 N.am      18 UNK        -0.5000 
    100 CA        -4.6167  -27.2151  -54.5063 C.3       18 UNK         0.1400 
    101 CB        -5.1908  -28.6467  -54.5332 C.3       18 UNK        -0.1800 
    102 C         -4.3999  -26.6203  -55.9140 C.2       18 UNK         0.5000 
    103 O         -4.7330  -27.2606  -56.9140 O.2       18 UNK        -0.5000 
    104 N         -3.8283  -25.4111  -55.9635 N.am      19 UNK        -0.5000 
    105 CA        -3.4441  -24.7257  -57.1983 C.3       19 UNK         0.1400 
    106 CB        -1.9305  -24.8991  -57.4092 C.3       19 UNK        -0.1800 
    107 C         -3.8306  -23.2353  -57.2295 C.2       19 UNK         0.5000 
    108 O         -3.7098  -22.6262  -58.2942 O.2       19 UNK        -0.5000 
    109 N         -4.2718  -22.6584  -56.1037 N.am      20 UNK        -0.5000 
    110 CA        -4.5928  -21.2366  -55.9783 C.3       20 UNK         0.1400 
    111 CB        -3.4401  -20.5354  -55.2472 C.3       20 UNK        -0.1800 
    112 C         -5.9190  -21.0186  -55.2353 C.2       20 UNK         0.5000 
    113 O         -6.4173  -21.9182  -54.5560 O.2       20 UNK        -0.5000 
    114 N         -6.4547  -19.7987  -55.3707 N.am      21 UNK        -0.5000 
    115 CA        -7.7418  -19.3595  -54.8233 C.3       21 UNK         0.1400 
    116 CB        -8.1724  -18.0818  -55.5626 C.3       21 UNK        -0.1800 
    117 C         -7.7537  -19.1316  -53.2968 C.2       21 UNK         0.5000 
    118 O         -8.8291  -18.9163  -52.7359 O.2       21 UNK        -0.5000 
    119 N         -6.5816  -19.1745  -52.6496 N.am      22 UNK        -0.5000 
    120 CA        -6.4161  -19.0841  -51.1874 C.3       22 UNK         0.1400 
    121 C         -7.0354  -20.2605  -50.3742 C.2       22 UNK         0.5000 
    122 N         -7.3503  -21.3973  -50.9839 N.am      22 UNK        -0.7600 
    123 O         -7.2682  -20.1191  -49.1769 O.2       22 UNK        -0.5000 
    124 C124       -4.9408  -18.8188  -50.7792 C.3       23 UNK        -0.0398 
    125 S125       -3.7506  -19.9719  -51.5537 S.3       23 UNK        -0.2404 
    126 C126       -2.4264  -18.8537  -52.1073 C.3       23 UNK        -0.0205 
    127 H127        3.5495  -11.9585  -45.5400 H         1 UNK         0.0600 
    128 H128        4.8342  -11.4853  -46.6430 H         1 UNK         0.0600 
    129 H129        4.3292  -13.1710  -46.5668 H         1 UNK         0.0600 
    130 H130        1.1032  -12.3004  -48.3435 H         1 UNK         0.3000 
    131 H131        2.0013  -13.9040  -46.0951 H         1 UNK         0.0600 
    132 H132       -0.2925  -14.8032  -46.1019 H         1 UNK         0.0800 
    133 H133       -0.8085  -13.6065  -47.2661 H         1 UNK         0.0800 
    134 H134       -0.0322  -17.2544  -47.0271 H         1 UNK         0.0800 
    135 H135       -1.4485  -16.5131  -47.7415 H         1 UNK         0.0800 
    136 H136       -2.2617  -17.2480  -49.8997 H         1 UNK         0.1150 
    137 H137       -0.0874  -20.2473  -52.0609 H         1 UNK         0.1150 
    138 H138        1.6105  -18.4968  -48.5541 H         1 UNK         0.1150 
    139 H139        2.4443  -20.2545  -51.5716 H         1 UNK         0.0800 
    140 H140        2.9776  -19.8995  -49.9502 H         1 UNK         0.0800 
    141 H141        1.5921  -20.9006  -47.9638 H         1 UNK         0.0800 
    142 H142        2.6201  -22.2926  -47.8144 H         1 UNK         0.0800 
    143 H143        0.6242  -23.7934  -48.1014 H         1 UNK         0.0600 
    144 H144        1.0202  -22.0869  -45.7954 H         1 UNK         0.3000 
    145 H145       -0.9064  -24.0574  -43.5555 H         1 UNK         0.0600 
    146 H146        1.2642  -24.2328  -42.3736 H         1 UNK         0.0600 
    147 H147        1.2397  -25.3219  -43.7511 H         1 UNK         0.0600 
    148 H148        2.1367  -23.8111  -43.8475 H         1 UNK         0.0600 
    149 H149        0.8192  -21.8174  -43.1546 H         1 UNK         0.3000 
    150 H150       -1.5591  -19.2609  -43.8577 H         1 UNK         0.0600 
    151 H151       -1.1953  -18.6855  -41.4770 H         1 UNK         0.0600 
    152 H152       -0.5187  -20.2793  -41.1589 H         1 UNK         0.0600 
    153 H153       -2.2168  -20.1049  -41.5858 H         1 UNK         0.0600 
    154 H154        0.9370  -18.9139  -42.7297 H         1 UNK         0.3000 
    155 H155        3.1639  -19.3533  -44.1285 H         1 UNK         0.0600 
    156 H156        2.5653  -17.7850  -46.6888 H         1 UNK         0.0600 
    157 H157        3.1309  -19.4585  -46.6546 H         1 UNK         0.0600 
    158 H158        4.1540  -18.1704  -46.0434 H         1 UNK         0.0600 
    159 H159        1.6626  -16.7943  -44.3420 H         1 UNK         0.3000 
    160 H160        3.2340  -15.4614  -41.5291 H         1 UNK         0.0600 
    161 H161        3.6710  -14.5516  -44.4300 H         1 UNK         0.0600 
    162 H162        4.8789  -14.6217  -43.1556 H         1 UNK         0.0600 
    163 H163        3.5760  -13.4444  -43.0689 H         1 UNK         0.0600 
    164 H164        1.3802  -14.2332  -43.2141 H         1 UNK         0.3000 
    165 H165       -0.9115  -14.8907  -43.5106 H         1 UNK         0.0600 
    166 H166       -3.0062  -15.3056  -42.1792 H         1 UNK         0.0600 
    167 H167       -2.1418  -16.7673  -42.6232 H         1 UNK         0.0600 
    168 H168       -2.0476  -16.1682  -40.9764 H         1 UNK         0.0600 
    169 H169       -0.5940  -12.9485  -42.5136 H         1 UNK         0.3000 
    170 H170       -1.3439  -11.2698  -40.9539 H         1 UNK         0.0600 
    171 H171       -2.1957  -11.6829  -38.6563 H         1 UNK         0.0600 
    172 H172       -0.5607  -11.9593  -38.0717 H         1 UNK         0.0600 
    173 H173       -1.0297  -10.3693  -38.6695 H         1 UNK         0.0600 
    174 H174        0.7684  -10.6259  -41.1261 H         1 UNK         0.3000 
    175 H175        3.2616  -10.4885  -39.6168 H         1 UNK         0.0600 
    176 H176        4.1797  -13.1240  -40.8698 H         1 UNK         0.0600 
    177 H177        5.2386  -11.7416  -40.5940 H         1 UNK         0.0600 
    178 H178        4.4807  -12.5573  -39.2373 H         1 UNK         0.0600 
    179 H179        2.5783  -11.2398  -42.4060 H         1 UNK         0.3000 
    180 H180        2.9323   -7.8873  -43.3643 H         1 UNK         0.0600 
    181 H181        4.7148  -10.1587  -44.3915 H         1 UNK         0.0600 
    182 H182        5.2539   -8.5634  -43.8933 H         1 UNK         0.0600 
    183 H183        4.2465   -8.7326  -45.3211 H         1 UNK         0.0600 
    184 H184        2.1985   -9.9516  -45.0349 H         1 UNK         0.3000 
    185 H185       -1.0229  -10.7578  -43.9995 H         1 UNK         0.0600 
    186 H186       -1.4973   -8.4006  -44.6719 H         1 UNK         0.0600 
    187 H187       -0.3829   -8.5482  -46.0257 H         1 UNK         0.0600 
    188 H188       -1.8559   -9.5178  -45.9779 H         1 UNK         0.0600 
    189 H189        0.2265  -10.8810  -46.5646 H         1 UNK         0.3000 
    190 H190       -0.9047  -20.8645  -46.7561 H         1 UNK         0.3000 
    191 H191       -2.8361  -20.4682  -48.8007 H         1 UNK         0.0600 
    192 H192       -2.2514  -18.7675  -47.0546 H         1 UNK         0.0600 
    193 H193       -3.9817  -19.0596  -47.1371 H         1 UNK         0.0600 
    194 H194       -3.0369  -19.7519  -45.8272 H         1 UNK         0.0600 
    195 H195       -3.0461  -22.2759  -45.6811 H         1 UNK         0.3000 
    196 H196       -5.6701  -23.2539  -45.9817 H         1 UNK         0.0600 
    197 H197       -4.9761  -24.8881  -44.2148 H         1 UNK         0.0600 
    198 H198       -4.4437  -23.2585  -43.8313 H         1 UNK         0.0600 
    199 H199       -3.2914  -24.4385  -44.4542 H         1 UNK         0.0600 
    200 H200       -2.5906  -24.5881  -47.1776 H         1 UNK         0.3000 
    201 H201       -3.7345  -27.0083  -48.2876 H         1 UNK         0.0600 
    202 H202       -1.3438  -26.8417  -47.6102 H         1 UNK         0.0600 
    203 H203       -1.0680  -25.5916  -48.8218 H         1 UNK         0.0600 
    204 H204       -1.4754  -27.2308  -49.3158 H         1 UNK         0.0600 
    205 H205       -4.0531  -23.7728  -49.2574 H         1 UNK         0.3000 
    206 H206       -4.6719  -22.6731  -51.0564 H         1 UNK         0.0600 
    207 H207       -6.5805  -24.2590  -51.0374 H         1 UNK         0.0600 
    208 H208       -6.1849  -23.7927  -52.6829 H         1 UNK         0.0600 
    209 H209       -5.7053  -25.3710  -52.0795 H         1 UNK         0.0600 
    210 H210       -1.9944  -23.2700  -50.9671 H         1 UNK         0.3000 
    211 H211       -0.0754  -23.3689  -52.0483 H         1 UNK         0.0600 
    212 H212       -1.5350  -22.7894  -54.6761 H         1 UNK         0.0600 
    213 H213        0.1448  -22.4519  -54.2889 H         1 UNK         0.0600 
    214 H214       -1.1361  -21.5518  -53.4932 H         1 UNK         0.0600 
    215 H215       -1.5320  -25.7724  -51.6327 H         1 UNK         0.3000 
    216 H216       -1.5029  -27.9576  -51.9378 H         1 UNK         0.0600 
    217 H217        0.1794  -29.1297  -53.2699 H         1 UNK         0.0600 
    218 H218        0.9605  -27.8394  -52.3697 H         1 UNK         0.0600 
    219 H219        0.6495  -27.6546  -54.0956 H         1 UNK         0.0600 
    220 H220       -3.5281  -26.6965  -52.7749 H         1 UNK         0.3000 
    221 H221       -5.3564  -26.5768  -54.0236 H         1 UNK         0.0600 
    222 H222       -4.5144  -29.3453  -55.0268 H         1 UNK         0.0600 
    223 H223       -5.3750  -29.0152  -53.5240 H         1 UNK         0.0600 
    224 H224       -6.1412  -28.6773  -55.0672 H         1 UNK         0.0600 
    225 H225       -3.6065  -24.9409  -55.0873 H         1 UNK         0.3000 
    226 H226       -3.9565  -25.1790  -58.0491 H         1 UNK         0.0600 
    227 H227       -1.3601  -24.4114  -56.6188 H         1 UNK         0.0600 
    228 H228       -1.6505  -25.9527  -57.4220 H         1 UNK         0.0600 
    229 H229       -1.6126  -24.4661  -58.3583 H         1 UNK         0.0600 
    230 H230       -4.3745  -23.2027  -55.2530 H         1 UNK         0.3000 
    231 H231       -4.7061  -20.7830  -56.9651 H         1 UNK         0.0600 
    232 H232       -3.2939  -20.9672  -54.2584 H         1 UNK         0.0600 
    233 H233       -3.6313  -19.4694  -55.1206 H         1 UNK         0.0600 
    234 H234       -2.5048  -20.6341  -55.7983 H         1 UNK         0.0600 
    235 H235       -5.9641  -19.1167  -55.9314 H         1 UNK         0.3000 
    236 H236       -8.4795  -20.1369  -55.0330 H         1 UNK         0.0600 
    237 H237       -8.2457  -18.2523  -56.6369 H         1 UNK         0.0600 
    238 H238       -9.1521  -17.7420  -55.2239 H         1 UNK         0.0600 
    239 H239       -7.4675  -17.2658  -55.3981 H         1 UNK         0.0600 
    240 H240       -5.7445  -19.3736  -53.1761 H         1 UNK         0.3000 
    241 H241       -6.9832  -18.2051  -50.8748 H         1 UNK         0.0600 
    242 H242       -7.7641  -22.1419  -50.4475 H         1 UNK         0.3800 
    243 H243       -7.1783  -21.5158  -51.9702 H         1 UNK         0.3800 
    244 H244       -4.6837  -17.7964  -51.0559 H         1 UNK         0.0800 
    245 H245       -4.8157  -18.8632  -49.6959 H         1 UNK         0.0800 
    246 H246       -2.0273  -19.2286  -53.0500 H         1 UNK         0.0800 
    247 H247       -2.8176  -17.8606  -52.3303 H         1 UNK         0.0800 
@<TRIPOS>BOND
     1    1    2 1    
     2    1  127 1    
     3    1  128 1    
     4    1  129 1    
     5    2    3 2    
     6    2    4 am   BACKBONE|DICT|INTERRES
     7    4    5 1    
     8    4  130 1    
     9    5    6 1    
    10    5   65 1    
    11    5  131 1    
    12    6    7 1    
    13    6  132 1    
    14    6  133 1    
    15    7    8 1    
    16    8    9 1    
    17    8  134 1    
    18    8  135 1    
    19    9   10 ar   
    20    9   14 ar   
    21   10   11 ar   
    22   10  136 1    
    23   11   12 ar   
    24   11  126 1    
    25   12   13 ar   
    26   12  137 1    
    27   13   14 ar   
    28   13   15 1    
    29   14  138 1    
    30   15   16 1    
    31   15  139 1    
    32   15  140 1    
    33   16   17 1    
    34   17   18 1    
    35   17  141 1    
    36   17  142 1    
    37   18   19 1    
    38   18   67 1    
    39   18  143 1    
    40   19   20 am   BACKBONE|DICT|INTERRES
    41   19  144 1    
    42   20   21 2    
    43   20   22 1    
    44   22   23 1    
    45   22   24 1    
    46   22  145 1    
    47   23  146 1    
    48   23  147 1    
    49   23  148 1    
    50   24   25 am   BACKBONE|DICT|INTERRES
    51   24  149 1    
    52   25   26 2    
    53   25   27 1    
    54   27   28 1    
    55   27   29 1    
    56   27  150 1    
    57   28  151 1    
    58   28  152 1    
    59   28  153 1    
    60   29   30 am   BACKBONE|DICT|INTERRES
    61   29  154 1    
    62   30   31 2    
    63   30   32 1    
    64   32   33 1    
    65   32   34 1    
    66   32  155 1    
    67   33  156 1    
    68   33  157 1    
    69   33  158 1    
    70   34   35 am   BACKBONE|DICT|INTERRES
    71   34  159 1    
    72   35   36 2    
    73   35   37 1    
    74   37   38 1    
    75   37   39 1    
    76   37  160 1    
    77   38  161 1    
    78   38  162 1    
    79   38  163 1    
    80   39   40 am   BACKBONE|DICT|INTERRES
    81   39  164 1    
    82   40   41 2    
    83   40   42 1    
    84   42   43 1    
    85   42   44 1    
    86   42  165 1    
    87   43  166 1    
    88   43  167 1    
    89   43  168 1    
    90   44   45 am   BACKBONE|DICT|INTERRES
    91   44  169 1    
    92   45   46 2    
    93   45   47 1    
    94   47   48 1    
    95   47   49 1    
    96   47  170 1    
    97   48  171 1    
    98   48  172 1    
    99   48  173 1    
   100   49   50 am   BACKBONE|DICT|INTERRES
   101   49  174 1    
   102   50   51 2    
   103   50   52 1    
   104   52   53 1    
   105   52   54 1    
   106   52  175 1    
   107   53  176 1    
   108   53  177 1    
   109   53  178 1    
   110   54   55 am   BACKBONE|DICT|INTERRES
   111   54  179 1    
   112   55   56 2    
   113   55   57 1    
   114   57   58 1    
   115   57   59 1    
   116   57  180 1    
   117   58  181 1    
   118   58  182 1    
   119   58  183 1    
   120   59   60 am   BACKBONE|DICT|INTERRES
   121   59  184 1    
   122   60   61 2    
   123   60   62 1    
   124   62   63 1    
   125   62   64 1    
   126   62  185 1    
   127   63  186 1    
   128   63  187 1    
   129   63  188 1    
   130   64   65 am   BACKBONE|DICT|INTERRES
   131   64  189 1    
   132   65   66 2    
   133   67   68 2    
   134   67   69 am   BACKBONE|DICT|INTERRES
   135   69   70 1    
   136   69  190 1    
   137   70   71 1    
   138   70   72 1    
   139   70  191 1    
   140   71  192 1    
   141   71  193 1    
   142   71  194 1    
   143   72   73 2    
   144   72   74 am   BACKBONE|DICT|INTERRES
   145   74   75 1    
   146   74  195 1    
   147   75   76 1    
   148   75   77 1    
   149   75  196 1    
   150   76  197 1    
   151   76  198 1    
   152   76  199 1    
   153   77   78 2    
   154   77   79 am   BACKBONE|DICT|INTERRES
   155   79   80 1    
   156   79  200 1    
   157   80   81 1    
   158   80   82 1    
   159   80  201 1    
   160   81  202 1    
   161   81  203 1    
   162   81  204 1    
   163   82   83 2    
   164   82   84 am   BACKBONE|DICT|INTERRES
   165   84   85 1    
   166   84  205 1    
   167   85   86 1    
   168   85   87 1    
   169   85  206 1    
   170   86  207 1    
   171   86  208 1    
   172   86  209 1    
   173   87   88 2    
   174   87   89 am   BACKBONE|DICT|INTERRES
   175   89   90 1    
   176   89  210 1    
   177   90   91 1    
   178   90   92 1    
   179   90  211 1    
   180   91  212 1    
   181   91  213 1    
   182   91  214 1    
   183   92   93 2    
   184   92   94 am   BACKBONE|DICT|INTERRES
   185   94   95 1    
   186   94  215 1    
   187   95   96 1    
   188   95   97 1    
   189   95  216 1    
   190   96  217 1    
   191   96  218 1    
   192   96  219 1    
   193   97   98 2    
   194   97   99 am   BACKBONE|DICT|INTERRES
   195   99  100 1    
   196   99  220 1    
   197  100  101 1    
   198  100  102 1    
   199  100  221 1    
   200  101  222 1    
   201  101  223 1    
   202  101  224 1    
   203  102  103 2    
   204  102  104 am   BACKBONE|DICT|INTERRES
   205  104  105 1    
   206  104  225 1    
   207  105  106 1    
   208  105  107 1    
   209  105  226 1    
   210  106  227 1    
   211  106  228 1    
   212  106  229 1    
   213  107  108 2    
   214  107  109 am   BACKBONE|DICT|INTERRES
   215  109  110 1    
   216  109  230 1    
   217  110  111 1    
   218  110  112 1    
   219  110  231 1    
   220  111  232 1    
   221  111  233 1    
   222  111  234 1    
   223  112  113 2    
   224  112  114 am   BACKBONE|DICT|INTERRES
   225  114  115 1    
   226  114  235 1    
   227  115  116 1    
   228  115  117 1    
   229  115  236 1    
   230  116  237 1    
   231  116  238 1    
   232  116  239 1    
   233  117  118 2    
   234  117  119 am   BACKBONE|DICT|INTERRES
   235  119  120 1    
   236  119  240 1    
   237  120  121 1    
   238  120  124 1    
   239  120  241 1    
   240  121  122 am   BACKBONE|DICT|INTERRES
   241  121  123 2    
   242  122  242 1    
   243  122  243 1    
   244  124  125 1    
   245  124  244 1    
   246  124  245 1    
   247  125  126 1    
   248  126  246 1    
   249  126  247 1    
@<TRIPOS>SUBSTRUCTURE
     1 UNK         1 GROUP             0       ****    0 ROOT    
