@<TRIPOS>MOLECULE
3R540
247   249    1
SMALL
USER_CHARGES


@<TRIPOS>ATOM
      1 CA          2.0433  -11.1522  -43.7153 C.3       0 UNK        -0.1800 
      2 C           3.2639  -11.2795  -44.6149 C.2       0 UNK         0.5000 
      3 O           4.3891  -11.0862  -44.1553 O.2       0 UNK        -0.5000 
      4 N           3.0510  -11.6201  -45.8928 N.am      1 UNK        -0.5000 
      5 CA          4.0888  -11.7526  -46.9271 C.3       1 UNK         0.1400 
      6 C6          3.4726  -11.8562  -48.3438 C.3       23 UNK        -0.0398 
      7 S7          2.3414  -13.2766  -48.5635 S.3       23 UNK        -0.2404 
      8 C8          2.8859  -13.8905  -50.1866 C.3       23 UNK        -0.0205 
      9 C9          2.0682  -15.0953  -50.6216 C.ar      23 UNK        -0.0193 
     10 C10         0.7690  -14.9219  -51.1086 C.ar      23 UNK        -0.1150 
     11 C11        -0.0019  -16.0205  -51.5001 C.ar      23 UNK        -0.0193 
     12 C12         0.5463  -17.3043  -51.3902 C.ar      23 UNK        -0.1150 
     13 C13         1.8482  -17.4924  -50.9189 C.ar      23 UNK        -0.0193 
     14 C14         2.6071  -16.3819  -50.5392 C.ar      23 UNK        -0.1150 
     15 C15         2.4271  -18.8994  -50.8374 C.3       23 UNK        -0.0205 
     16 S16         3.0181  -19.3641  -49.1750 S.3       23 UNK        -0.2404 
     17 C17         1.6167  -18.9426  -48.0858 C.3       23 UNK        -0.0398 
     18 CA          0.5260  -20.0443  -48.0088 C.3       11 UNK         0.1400 
     19 N          -0.0215  -20.1819  -46.6559 N.am      11 UNK        -0.5000 
     20 C          -0.8902  -21.1237  -46.2613 C.2       10 UNK         0.5000 
     21 O          -1.2822  -22.0389  -46.9843 O.2       10 UNK        -0.5000 
     22 CA         -1.4585  -20.9885  -44.8357 C.3       10 UNK         0.1400 
     23 CB         -0.4968  -21.5856  -43.7977 C.3       10 UNK        -0.1800 
     24 N          -1.7697  -19.6007  -44.4854 N.am      10 UNK        -0.5000 
     25 C          -2.7046  -18.8622  -45.1015 C.2       9 UNK         0.5000 
     26 O          -3.4397  -19.2964  -45.9878 O.2       9 UNK        -0.5000 
     27 CA         -2.8039  -17.3793  -44.7007 C.3       9 UNK         0.1400 
     28 CB         -3.5975  -17.2172  -43.3960 C.3       9 UNK        -0.1800 
     29 N          -1.4939  -16.7411  -44.5672 N.am      9 UNK        -0.5000 
     30 C          -0.6144  -16.5902  -45.5682 C.2       8 UNK         0.5000 
     31 O          -0.8349  -16.9308  -46.7293 O.2       8 UNK        -0.5000 
     32 CA          0.7687  -16.0257  -45.2000 C.3       8 UNK         0.1400 
     33 CB          0.7346  -14.4952  -45.0886 C.3       8 UNK        -0.1800 
     34 N           1.2912  -16.5979  -43.9591 N.am      8 UNK        -0.5000 
     35 C           1.5865  -17.8947  -43.7876 C.2       7 UNK         0.5000 
     36 O           1.4695  -18.7446  -44.6675 O.2       7 UNK        -0.5000 
     37 CA          2.0406  -18.3249  -42.3845 C.3       7 UNK         0.1400 
     38 CB          3.5235  -17.9963  -42.1573 C.3       7 UNK        -0.1800 
     39 N           1.2243  -17.7074  -41.3414 N.am      7 UNK        -0.5000 
     40 C          -0.0700  -17.9901  -41.1338 C.2       6 UNK         0.5000 
     41 O          -0.6979  -18.8374  -41.7693 O.2       6 UNK        -0.5000 
     42 CA         -0.7916  -17.1482  -40.0669 C.3       6 UNK         0.1400 
     43 CB         -0.5486  -17.7243  -38.6641 C.3       6 UNK        -0.1800 
     44 N          -0.3797  -15.7435  -40.0949 N.am      6 UNK        -0.5000 
     45 C          -0.6376  -14.9015  -41.1056 C.2       5 UNK         0.5000 
     46 O          -1.2752  -15.2129  -42.1105 O.2       5 UNK        -0.5000 
     47 CA         -0.0383  -13.4892  -40.9952 C.3       5 UNK         0.1400 
     48 CB         -0.9497  -12.5742  -40.1643 C.3       5 UNK        -0.1800 
     49 N           1.3117  -13.4850  -40.4250 N.am      5 UNK        -0.5000 
     50 C           2.3807  -14.0239  -41.0231 C.2       4 UNK         0.5000 
     51 O           2.3363  -14.6183  -42.1040 O.2       4 UNK        -0.5000 
     52 CA          3.7225  -13.8802  -40.2992 C.3       4 UNK         0.1400 
     53 CB          4.0276  -15.1167  -39.4366 C.3       4 UNK        -0.1800 
     54 N           4.7474  -13.6955  -41.3171 N.am      4 UNK        -0.5000 
     55 C           5.9408  -13.1204  -41.1407 C.2       3 UNK         0.5000 
     56 O           6.3618  -12.7615  -40.0397 O.2       3 UNK        -0.5000 
     57 CA          6.7867  -12.8454  -42.4018 C.3       3 UNK         0.1400 
     58 CB          8.2747  -13.2089  -42.2131 C.3       3 UNK        -0.1800 
     59 N           6.2275  -13.4119  -43.6373 N.am      3 UNK        -0.5000 
     60 C           6.2316  -14.6884  -44.0540 C.2       2 UNK         0.5000 
     61 O           6.7454  -15.6101  -43.4205 O.2       2 UNK        -0.5000 
     62 CA          5.5208  -14.9987  -45.3920 C.3       2 UNK         0.1400 
     63 CB          4.6257  -16.2412  -45.2743 C.3       2 UNK        -0.1800 
     64 N           4.6945  -13.8862  -45.8635 N.am      2 UNK        -0.5000 
     65 C           5.1052  -12.8865  -46.6545 C.2       1 UNK         0.5000 
     66 O           6.2383  -12.8147  -47.1309 O.2       1 UNK        -0.5000 
     67 C          -0.5912  -19.8000  -49.0449 C.2       11 UNK         0.5000 
     68 O          -0.6350  -20.4847  -50.0666 O.2       11 UNK        -0.5000 
     69 N          -1.4918  -18.8547  -48.7378 N.am      12 UNK        -0.5000 
     70 CA         -2.6402  -18.4835  -49.5630 C.3       12 UNK         0.1400 
     71 CB         -3.3137  -17.2362  -48.9712 C.3       12 UNK        -0.1800 
     72 C          -3.6629  -19.6178  -49.7370 C.2       12 UNK         0.5000 
     73 O          -4.2002  -19.7759  -50.8331 O.2       12 UNK        -0.5000 
     74 N          -3.9008  -20.3849  -48.6641 N.am      13 UNK        -0.5000 
     75 CA         -4.7669  -21.5649  -48.6539 C.3       13 UNK         0.1400 
     76 CB         -5.0854  -21.9394  -47.1986 C.3       13 UNK        -0.1800 
     77 C          -4.1615  -22.7720  -49.3953 C.2       13 UNK         0.5000 
     78 O          -4.9158  -23.6331  -49.8490 O.2       13 UNK        -0.5000 
     79 N          -2.8247  -22.8161  -49.4937 N.am      14 UNK        -0.5000 
     80 CA         -2.0006  -23.8101  -50.1827 C.3       14 UNK         0.1400 
     81 CB         -2.1322  -23.6383  -51.7093 C.3       14 UNK        -0.1800 
     82 C          -2.2833  -25.2445  -49.6936 C.2       14 UNK         0.5000 
     83 O          -1.8245  -25.6169  -48.6132 O.2       14 UNK        -0.5000 
     84 N          -3.0445  -26.0155  -50.4808 N.am      15 UNK        -0.5000 
     85 CA         -3.4796  -27.3775  -50.1691 C.3       15 UNK         0.1400 
     86 CB         -3.9392  -28.0418  -51.4771 C.3       15 UNK        -0.1800 
     87 C          -4.6037  -27.4533  -49.1125 C.2       15 UNK         0.5000 
     88 O          -4.9683  -28.5620  -48.7194 O.2       15 UNK        -0.5000 
     89 N          -5.1548  -26.2977  -48.7057 N.am      16 UNK        -0.5000 
     90 CA         -6.3746  -26.1247  -47.9062 C.3       16 UNK         0.1400 
     91 CB         -6.2502  -26.7632  -46.5069 C.3       16 UNK        -0.1800 
     92 C          -7.6139  -26.5863  -48.6991 C.2       16 UNK         0.5000 
     93 O          -8.4912  -27.2732  -48.1726 O.2       16 UNK        -0.5000 
     94 N          -7.6297  -26.1987  -49.9764 N.am      17 UNK        -0.5000 
     95 CA         -8.6085  -26.5155  -51.0056 C.3       17 UNK         0.1400 
     96 CB         -8.4058  -27.9667  -51.4878 C.3       17 UNK        -0.1800 
     97 C          -8.4041  -25.4987  -52.1418 C.2       17 UNK         0.5000 
     98 O          -7.5823  -24.5900  -52.0054 O.2       17 UNK        -0.5000 
     99 N          -9.1265  -25.6654  -53.2563 N.am      18 UNK        -0.5000 
    100 CA        -8.9755  -24.8316  -54.4548 C.3       18 UNK         0.1400 
    101 CB       -10.1406  -25.1192  -55.4142 C.3       18 UNK        -0.1800 
    102 C         -7.6234  -25.0249  -55.1758 C.2       18 UNK         0.5000 
    103 O         -7.1780  -24.1184  -55.8808 O.2       18 UNK        -0.5000 
    104 N         -7.0036  -26.1999  -54.9939 N.am      19 UNK        -0.5000 
    105 CA        -5.7235  -26.5941  -55.5782 C.3       19 UNK         0.1400 
    106 CB        -5.4457  -28.0653  -55.2297 C.3       19 UNK        -0.1800 
    107 C         -4.5645  -25.6866  -55.1228 C.2       19 UNK         0.5000 
    108 O         -4.2076  -25.6945  -53.9432 O.2       19 UNK        -0.5000 
    109 N         -4.0142  -24.9247  -56.0792 N.am      20 UNK        -0.5000 
    110 CA        -2.8627  -24.0178  -55.9681 C.3       20 UNK         0.1400 
    111 CB        -1.5877  -24.8075  -55.6035 C.3       20 UNK        -0.1800 
    112 C         -3.0654  -22.7940  -55.0462 C.2       20 UNK         0.5000 
    113 O         -2.1038  -22.0623  -54.8048 O.2       20 UNK        -0.5000 
    114 N         -4.2908  -22.5767  -54.5532 N.am      21 UNK        -0.5000 
    115 CA        -4.6403  -21.4762  -53.6579 C.3       21 UNK         0.1400 
    116 CB        -5.9744  -21.7998  -52.9729 C.3       21 UNK        -0.1800 
    117 C         -4.7145  -20.1264  -54.3924 C.2       21 UNK         0.5000 
    118 O         -5.0149  -20.0857  -55.5890 O.2       21 UNK        -0.5000 
    119 N         -4.4603  -19.0456  -53.6497 N.am      22 UNK        -0.5000 
    120 CA        -4.5765  -17.6597  -54.1259 C.3       22 UNK         0.1400 
    121 C         -6.0592  -17.2154  -54.2596 C.2       22 UNK         0.5000 
    122 N         -6.3828  -16.4088  -55.2612 N.am      22 UNK        -0.7600 
    123 O         -6.9103  -17.5586  -53.4419 O.2       22 UNK        -0.5000 
    124 C124       -3.7946  -16.6747  -53.2219 C.3       23 UNK        -0.0398 
    125 S125       -2.0009  -16.9997  -53.2362 S.3       23 UNK        -0.2404 
    126 C126       -1.4317  -15.7931  -51.9901 C.3       23 UNK        -0.0205 
    127 H127        1.8739  -10.1059  -43.4614 H         1 UNK         0.0600 
    128 H128        2.2001  -11.7045  -42.7904 H         1 UNK         0.0600 
    129 H129        1.1434  -11.5390  -44.1939 H         1 UNK         0.0600 
    130 H130        2.1056  -11.7746  -46.2143 H         1 UNK         0.3000 
    131 H131        4.6666  -10.8261  -46.9017 H         1 UNK         0.0600 
    132 H132        2.9092  -10.9477  -48.5612 H         1 UNK         0.0800 
    133 H133        4.2647  -11.8905  -49.0940 H         1 UNK         0.0800 
    134 H134        3.9461  -14.1452  -50.1407 H         1 UNK         0.0800 
    135 H135        2.7875  -13.0963  -50.9284 H         1 UNK         0.0800 
    136 H136        0.3541  -13.9253  -51.1681 H         1 UNK         0.1150 
    137 H137       -0.0401  -18.1671  -51.6719 H         1 UNK         0.1150 
    138 H138        3.6128  -16.5234  -50.1688 H         1 UNK         0.1150 
    139 H139        1.6962  -19.6392  -51.1664 H         1 UNK         0.0800 
    140 H140        3.2619  -18.9727  -51.5354 H         1 UNK         0.0800 
    141 H141        1.2067  -17.9634  -48.3385 H         1 UNK         0.0800 
    142 H142        2.0710  -18.8031  -47.1064 H         1 UNK         0.0800 
    143 H143        0.9850  -21.0068  -48.2447 H         1 UNK         0.0600 
    144 H144        0.2962  -19.5037  -45.9687 H         1 UNK         0.3000 
    145 H145       -2.3899  -21.5571  -44.7968 H         1 UNK         0.0600 
    146 H146       -0.9276  -21.5516  -42.7969 H         1 UNK         0.0600 
    147 H147       -0.2796  -22.6303  -44.0237 H         1 UNK         0.0600 
    148 H148        0.4529  -21.0518  -43.7700 H         1 UNK         0.0600 
    149 H149       -1.2298  -19.1861  -43.7331 H         1 UNK         0.3000 
    150 H150       -3.3459  -16.8586  -45.4926 H         1 UNK         0.0600 
    151 H151       -4.5843  -17.6741  -43.4795 H         1 UNK         0.0600 
    152 H152       -3.7458  -16.1646  -43.1541 H         1 UNK         0.0600 
    153 H153       -3.0884  -17.6848  -42.5531 H         1 UNK         0.0600 
    154 H154       -1.2551  -16.3818  -43.6472 H         1 UNK         0.3000 
    155 H155        1.4587  -16.2896  -46.0043 H         1 UNK         0.0600 
    156 H156        0.0538  -14.1621  -44.3052 H         1 UNK         0.0600 
    157 H157        0.4062  -14.0437  -46.0255 H         1 UNK         0.0600 
    158 H158        1.7229  -14.0983  -44.8616 H         1 UNK         0.0600 
    159 H159        1.4575  -15.9513  -43.1935 H         1 UNK         0.3000 
    160 H160        1.9205  -19.4080  -42.3123 H         1 UNK         0.0600 
    161 H161        3.7185  -16.9258  -42.2173 H         1 UNK         0.0600 
    162 H162        4.1479  -18.4823  -42.9080 H         1 UNK         0.0600 
    163 H163        3.8600  -18.3454  -41.1811 H         1 UNK         0.0600 
    164 H164        1.6520  -16.9706  -40.8022 H         1 UNK         0.3000 
    165 H165       -1.8628  -17.1934  -40.2747 H         1 UNK         0.0600 
    166 H166       -1.1159  -17.1782  -37.9102 H         1 UNK         0.0600 
    167 H167       -0.8618  -18.7679  -38.6120 H         1 UNK         0.0600 
    168 H168        0.5055  -17.6834  -38.3866 H         1 UNK         0.0600 
    169 H169        0.1518  -15.4044  -39.3068 H         1 UNK         0.3000 
    170 H170        0.0221  -13.0783  -42.0053 H         1 UNK         0.0600 
    171 H171       -1.9583  -12.5479  -40.5790 H         1 UNK         0.0600 
    172 H172       -1.0283  -12.9124  -39.1303 H         1 UNK         0.0600 
    173 H173       -0.5769  -11.5498  -40.1557 H         1 UNK         0.0600 
    174 H174        1.4257  -13.0141  -39.5388 H         1 UNK         0.3000 
    175 H175        3.6849  -12.9924  -39.6644 H         1 UNK         0.0600 
    176 H176        4.1226  -16.0179  -40.0411 H         1 UNK         0.0600 
    177 H177        4.9579  -14.9908  -38.8827 H         1 UNK         0.0600 
    178 H178        3.2373  -15.2904  -38.7054 H         1 UNK         0.0600 
    179 H179        4.4554  -13.9497  -42.2514 H         1 UNK         0.3000 
    180 H180        6.7421  -11.7649  -42.5447 H         1 UNK         0.0600 
    181 H181        8.4088  -14.2570  -41.9452 H         1 UNK         0.0600 
    182 H182        8.7212  -12.6145  -41.4153 H         1 UNK         0.0600 
    183 H183        8.8479  -13.0150  -43.1196 H         1 UNK         0.0600 
    184 H184        5.7313  -12.7365  -44.2076 H         1 UNK         0.3000 
    185 H185        6.2981  -15.2122  -46.1284 H         1 UNK         0.0600 
    186 H186        5.2056  -17.1267  -45.0114 H         1 UNK         0.0600 
    187 H187        3.8721  -16.0997  -44.5025 H         1 UNK         0.0600 
    188 H188        4.1137  -16.4561  -46.2127 H         1 UNK         0.0600 
    189 H189        3.7470  -13.8516  -45.5187 H         1 UNK         0.3000 
    190 H190       -1.3511  -18.3050  -47.8931 H         1 UNK         0.3000 
    191 H191       -2.2611  -18.2344  -50.5537 H         1 UNK         0.0600 
    192 H192       -3.7298  -17.4345  -47.9834 H         1 UNK         0.0600 
    193 H193       -4.1298  -16.8931  -49.6079 H         1 UNK         0.0600 
    194 H194       -2.6064  -16.4128  -48.8718 H         1 UNK         0.0600 
    195 H195       -3.4744  -20.1268  -47.7789 H         1 UNK         0.3000 
    196 H196       -5.7023  -21.3070  -49.1549 H         1 UNK         0.0600 
    197 H197       -5.7611  -22.7935  -47.1514 H         1 UNK         0.0600 
    198 H198       -5.5691  -21.1139  -46.6761 H         1 UNK         0.0600 
    199 H199       -4.1825  -22.2018  -46.6458 H         1 UNK         0.0600 
    200 H200       -2.3023  -22.0960  -49.0103 H         1 UNK         0.3000 
    201 H201       -0.9664  -23.5894  -49.9145 H         1 UNK         0.0600 
    202 H202       -1.8018  -22.6449  -52.0137 H         1 UNK         0.0600 
    203 H203       -3.1597  -23.7623  -52.0529 H         1 UNK         0.0600 
    204 H204       -1.5129  -24.3599  -52.2429 H         1 UNK         0.0600 
    205 H205       -3.4019  -25.6201  -51.3410 H         1 UNK         0.3000 
    206 H206       -2.6250  -27.9349  -49.7805 H         1 UNK         0.0600 
    207 H207       -4.8138  -27.5375  -51.8900 H         1 UNK         0.0600 
    208 H208       -3.1531  -28.0203  -52.2323 H         1 UNK         0.0600 
    209 H209       -4.2076  -29.0868  -51.3174 H         1 UNK         0.0600 
    210 H210       -4.8052  -25.4432  -49.1305 H         1 UNK         0.3000 
    211 H211       -6.4910  -25.0501  -47.7625 H         1 UNK         0.0600 
    212 H212       -6.2261  -27.8520  -46.5514 H         1 UNK         0.0600 
    213 H213       -7.0977  -26.4850  -45.8797 H         1 UNK         0.0600 
    214 H214       -5.3461  -26.4266  -45.9997 H         1 UNK         0.0600 
    215 H215       -6.9095  -25.5638  -50.3054 H         1 UNK         0.3000 
    216 H216       -9.6145  -26.3883  -50.6017 H         1 UNK         0.0600 
    217 H217       -9.1514  -28.2490  -52.2313 H         1 UNK         0.0600 
    218 H218       -8.4971  -28.6749  -50.6641 H         1 UNK         0.0600 
    219 H219       -7.4209  -28.1060  -51.9355 H         1 UNK         0.0600 
    220 H220       -9.7963  -26.4194  -53.3079 H         1 UNK         0.3000 
    221 H221       -9.0356  -23.7840  -54.1515 H         1 UNK         0.0600 
    222 H222      -10.1456  -26.1598  -55.7411 H         1 UNK         0.0600 
    223 H223      -11.1011  -24.9093  -54.9431 H         1 UNK         0.0600 
    224 H224      -10.0751  -24.4951  -56.3065 H         1 UNK         0.0600 
    225 H225       -7.4379  -26.8693  -54.3776 H         1 UNK         0.3000 
    226 H226       -5.8206  -26.5230  -56.6635 H         1 UNK         0.0600 
    227 H227       -6.2136  -28.7201  -55.6417 H         1 UNK         0.0600 
    228 H228       -4.4883  -28.3896  -55.6395 H         1 UNK         0.0600 
    229 H229       -5.4122  -28.2263  -54.1520 H         1 UNK         0.0600 
    230 H230       -4.4285  -24.9644  -57.0004 H         1 UNK         0.3000 
    231 H231       -2.7145  -23.6067  -56.9675 H         1 UNK         0.0600 
    232 H232       -1.4279  -25.6378  -56.2913 H         1 UNK         0.0600 
    233 H233       -1.6375  -25.2143  -54.5934 H         1 UNK         0.0600 
    234 H234       -0.7024  -24.1727  -55.6546 H         1 UNK         0.0600 
    235 H235       -5.0401  -23.1948  -54.8308 H         1 UNK         0.3000 
    236 H236       -3.8686  -21.4065  -52.8887 H         1 UNK         0.0600 
    237 H237       -6.2940  -20.9841  -52.3232 H         1 UNK         0.0600 
    238 H238       -6.7704  -21.9798  -53.6964 H         1 UNK         0.0600 
    239 H239       -5.8754  -22.6864  -52.3479 H         1 UNK         0.0600 
    240 H240       -4.2861  -19.1725  -52.6563 H         1 UNK         0.3000 
    241 H241       -4.1305  -17.6176  -55.1219 H         1 UNK         0.0600 
    242 H242       -7.3387  -16.1003  -55.3515 H         1 UNK         0.3800 
    243 H243       -5.7017  -16.1079  -55.9416 H         1 UNK         0.3800 
    244 H244       -3.9473  -15.6455  -53.5523 H         1 UNK         0.0800 
    245 H245       -4.1611  -16.7291  -52.1954 H         1 UNK         0.0800 
    246 H246       -1.5236  -14.7951  -52.4213 H         1 UNK         0.0800 
    247 H247       -2.0960  -15.8164  -51.1278 H         1 UNK         0.0800 
@<TRIPOS>BOND
     1    1    2 1    
     2    1  127 1    
     3    1  128 1    
     4    1  129 1    
     5    2    3 2    
     6    2    4 am   BACKBONE|DICT|INTERRES
     7    4    5 1    
     8    4  130 1    
     9    5    6 1    
    10    5   65 1    
    11    5  131 1    
    12    6    7 1    
    13    6  132 1    
    14    6  133 1    
    15    7    8 1    
    16    8    9 1    
    17    8  134 1    
    18    8  135 1    
    19    9   10 ar   
    20    9   14 ar   
    21   10   11 ar   
    22   10  136 1    
    23   11   12 ar   
    24   11  126 1    
    25   12   13 ar   
    26   12  137 1    
    27   13   14 ar   
    28   13   15 1    
    29   14  138 1    
    30   15   16 1    
    31   15  139 1    
    32   15  140 1    
    33   16   17 1    
    34   17   18 1    
    35   17  141 1    
    36   17  142 1    
    37   18   19 1    
    38   18   67 1    
    39   18  143 1    
    40   19   20 am   BACKBONE|DICT|INTERRES
    41   19  144 1    
    42   20   21 2    
    43   20   22 1    
    44   22   23 1    
    45   22   24 1    
    46   22  145 1    
    47   23  146 1    
    48   23  147 1    
    49   23  148 1    
    50   24   25 am   BACKBONE|DICT|INTERRES
    51   24  149 1    
    52   25   26 2    
    53   25   27 1    
    54   27   28 1    
    55   27   29 1    
    56   27  150 1    
    57   28  151 1    
    58   28  152 1    
    59   28  153 1    
    60   29   30 am   BACKBONE|DICT|INTERRES
    61   29  154 1    
    62   30   31 2    
    63   30   32 1    
    64   32   33 1    
    65   32   34 1    
    66   32  155 1    
    67   33  156 1    
    68   33  157 1    
    69   33  158 1    
    70   34   35 am   BACKBONE|DICT|INTERRES
    71   34  159 1    
    72   35   36 2    
    73   35   37 1    
    74   37   38 1    
    75   37   39 1    
    76   37  160 1    
    77   38  161 1    
    78   38  162 1    
    79   38  163 1    
    80   39   40 am   BACKBONE|DICT|INTERRES
    81   39  164 1    
    82   40   41 2    
    83   40   42 1    
    84   42   43 1    
    85   42   44 1    
    86   42  165 1    
    87   43  166 1    
    88   43  167 1    
    89   43  168 1    
    90   44   45 am   BACKBONE|DICT|INTERRES
    91   44  169 1    
    92   45   46 2    
    93   45   47 1    
    94   47   48 1    
    95   47   49 1    
    96   47  170 1    
    97   48  171 1    
    98   48  172 1    
    99   48  173 1    
   100   49   50 am   BACKBONE|DICT|INTERRES
   101   49  174 1    
   102   50   51 2    
   103   50   52 1    
   104   52   53 1    
   105   52   54 1    
   106   52  175 1    
   107   53  176 1    
   108   53  177 1    
   109   53  178 1    
   110   54   55 am   BACKBONE|DICT|INTERRES
   111   54  179 1    
   112   55   56 2    
   113   55   57 1    
   114   57   58 1    
   115   57   59 1    
   116   57  180 1    
   117   58  181 1    
   118   58  182 1    
   119   58  183 1    
   120   59   60 am   BACKBONE|DICT|INTERRES
   121   59  184 1    
   122   60   61 2    
   123   60   62 1    
   124   62   63 1    
   125   62   64 1    
   126   62  185 1    
   127   63  186 1    
   128   63  187 1    
   129   63  188 1    
   130   64   65 am   BACKBONE|DICT|INTERRES
   131   64  189 1    
   132   65   66 2    
   133   67   68 2    
   134   67   69 am   BACKBONE|DICT|INTERRES
   135   69   70 1    
   136   69  190 1    
   137   70   71 1    
   138   70   72 1    
   139   70  191 1    
   140   71  192 1    
   141   71  193 1    
   142   71  194 1    
   143   72   73 2    
   144   72   74 am   BACKBONE|DICT|INTERRES
   145   74   75 1    
   146   74  195 1    
   147   75   76 1    
   148   75   77 1    
   149   75  196 1    
   150   76  197 1    
   151   76  198 1    
   152   76  199 1    
   153   77   78 2    
   154   77   79 am   BACKBONE|DICT|INTERRES
   155   79   80 1    
   156   79  200 1    
   157   80   81 1    
   158   80   82 1    
   159   80  201 1    
   160   81  202 1    
   161   81  203 1    
   162   81  204 1    
   163   82   83 2    
   164   82   84 am   BACKBONE|DICT|INTERRES
   165   84   85 1    
   166   84  205 1    
   167   85   86 1    
   168   85   87 1    
   169   85  206 1    
   170   86  207 1    
   171   86  208 1    
   172   86  209 1    
   173   87   88 2    
   174   87   89 am   BACKBONE|DICT|INTERRES
   175   89   90 1    
   176   89  210 1    
   177   90   91 1    
   178   90   92 1    
   179   90  211 1    
   180   91  212 1    
   181   91  213 1    
   182   91  214 1    
   183   92   93 2    
   184   92   94 am   BACKBONE|DICT|INTERRES
   185   94   95 1    
   186   94  215 1    
   187   95   96 1    
   188   95   97 1    
   189   95  216 1    
   190   96  217 1    
   191   96  218 1    
   192   96  219 1    
   193   97   98 2    
   194   97   99 am   BACKBONE|DICT|INTERRES
   195   99  100 1    
   196   99  220 1    
   197  100  101 1    
   198  100  102 1    
   199  100  221 1    
   200  101  222 1    
   201  101  223 1    
   202  101  224 1    
   203  102  103 2    
   204  102  104 am   BACKBONE|DICT|INTERRES
   205  104  105 1    
   206  104  225 1    
   207  105  106 1    
   208  105  107 1    
   209  105  226 1    
   210  106  227 1    
   211  106  228 1    
   212  106  229 1    
   213  107  108 2    
   214  107  109 am   BACKBONE|DICT|INTERRES
   215  109  110 1    
   216  109  230 1    
   217  110  111 1    
   218  110  112 1    
   219  110  231 1    
   220  111  232 1    
   221  111  233 1    
   222  111  234 1    
   223  112  113 2    
   224  112  114 am   BACKBONE|DICT|INTERRES
   225  114  115 1    
   226  114  235 1    
   227  115  116 1    
   228  115  117 1    
   229  115  236 1    
   230  116  237 1    
   231  116  238 1    
   232  116  239 1    
   233  117  118 2    
   234  117  119 am   BACKBONE|DICT|INTERRES
   235  119  120 1    
   236  119  240 1    
   237  120  121 1    
   238  120  124 1    
   239  120  241 1    
   240  121  122 am   BACKBONE|DICT|INTERRES
   241  121  123 2    
   242  122  242 1    
   243  122  243 1    
   244  124  125 1    
   245  124  244 1    
   246  124  245 1    
   247  125  126 1    
   248  126  246 1    
   249  126  247 1    
@<TRIPOS>SUBSTRUCTURE
     1 UNK         1 GROUP             0       ****    0 ROOT    
