@<TRIPOS>MOLECULE
3R540
247   249    1
SMALL
USER_CHARGES


@<TRIPOS>ATOM
      1 CA         -6.9913  -13.1764  -46.9913 C.3       0 UNK        -0.1800 
      2 C          -5.5036  -12.9050  -47.1645 C.2       0 UNK         0.5000 
      3 O          -5.1315  -11.9144  -47.7935 O.2       0 UNK        -0.5000 
      4 N          -4.6551  -13.7810  -46.6106 N.am      1 UNK        -0.5000 
      5 CA         -3.1905  -13.6879  -46.6696 C.3       1 UNK         0.1400 
      6 C6         -2.5166  -15.0131  -46.2415 C.3       23 UNK        -0.0398 
      7 S7         -2.7408  -16.3263  -47.4871 S.3       23 UNK        -0.2404 
      8 C8         -1.0925  -16.3012  -48.2668 C.3       23 UNK        -0.0205 
      9 C9         -0.9778  -17.2635  -49.4403 C.ar      23 UNK        -0.0193 
     10 C10        -1.8542  -17.1535  -50.5246 C.ar      23 UNK        -0.1150 
     11 C11        -1.7207  -17.9885  -51.6362 C.ar      23 UNK        -0.0193 
     12 C12        -0.6914  -18.9318  -51.6643 C.ar      23 UNK        -0.1150 
     13 C13         0.1928  -19.0538  -50.5895 C.ar      23 UNK        -0.0193 
     14 C14         0.0408  -18.2231  -49.4741 C.ar      23 UNK        -0.1150 
     15 C15         1.3340  -20.0556  -50.6697 C.3       23 UNK        -0.0205 
     16 S16         0.7766  -21.7484  -50.3133 S.3       23 UNK        -0.2404 
     17 C17         0.9559  -21.7987  -48.5020 C.3       23 UNK        -0.0398 
     18 CA          0.2095  -22.9932  -47.8433 C.3       11 UNK         0.1400 
     19 N           0.7154  -23.2831  -46.5068 N.am      11 UNK        -0.5000 
     20 C           1.8613  -23.9235  -46.2393 C.2       10 UNK         0.5000 
     21 O           2.5698  -24.4279  -47.1116 O.2       10 UNK        -0.5000 
     22 CA          2.2987  -23.9983  -44.7621 C.3       10 UNK         0.1400 
     23 CB          3.8293  -23.9789  -44.6004 C.3       10 UNK        -0.1800 
     24 N           1.7305  -22.8839  -44.0079 N.am      10 UNK        -0.5000 
     25 C           1.0703  -22.9808  -42.8480 C.2       9 UNK         0.5000 
     26 O           0.9777  -24.0276  -42.2065 O.2       9 UNK        -0.5000 
     27 CA          0.3787  -21.7085  -42.3081 C.3       9 UNK         0.1400 
     28 CB          1.1131  -21.1843  -41.0643 C.3       9 UNK        -0.1800 
     29 N           0.2654  -20.6141  -43.2749 N.am      9 UNK        -0.5000 
     30 C          -0.4042  -20.6453  -44.4341 C.2       8 UNK         0.5000 
     31 O          -1.0719  -21.6061  -44.8199 O.2       8 UNK        -0.5000 
     32 CA         -0.2544  -19.4152  -45.3467 C.3       8 UNK         0.1400 
     33 CB         -1.3290  -18.3772  -45.0075 C.3       8 UNK        -0.1800 
     34 N           1.0699  -18.7887  -45.2784 N.am      8 UNK        -0.5000 
     35 C           2.2408  -19.3967  -45.5260 C.2       7 UNK         0.5000 
     36 O           2.3452  -20.5825  -45.8345 O.2       7 UNK        -0.5000 
     37 CA          3.5079  -18.5453  -45.3575 C.3       7 UNK         0.1400 
     38 CB          3.7548  -17.6836  -46.6060 C.3       7 UNK        -0.1800 
     39 N           3.4040  -17.6928  -44.1738 N.am      7 UNK        -0.5000 
     40 C           3.6593  -18.1080  -42.9243 C.2       6 UNK         0.5000 
     41 O           4.1166  -19.2185  -42.6540 O.2       6 UNK        -0.5000 
     42 CA          3.3273  -17.1309  -41.7780 C.3       6 UNK         0.1400 
     43 CB          4.5404  -16.2455  -41.4564 C.3       6 UNK        -0.1800 
     44 N           2.1725  -16.2763  -42.0607 N.am      6 UNK        -0.5000 
     45 C           0.9160  -16.7164  -42.2185 C.2       5 UNK         0.5000 
     46 O           0.5853  -17.8946  -42.0885 O.2       5 UNK        -0.5000 
     47 CA         -0.1381  -15.6750  -42.6485 C.3       5 UNK         0.1400 
     48 CB         -0.8365  -15.0841  -41.4164 C.3       5 UNK        -0.1800 
     49 N           0.3877  -14.5909  -43.4886 N.am      5 UNK        -0.5000 
     50 C           1.0506  -14.7568  -44.6447 C.2       4 UNK         0.5000 
     51 O           1.2593  -15.8668  -45.1357 O.2       4 UNK        -0.5000 
     52 CA          1.5802  -13.5038  -45.3732 C.3       4 UNK         0.1400 
     53 CB          1.3308  -13.5789  -46.8896 C.3       4 UNK        -0.1800 
     54 N           1.0241  -12.2537  -44.8509 N.am      4 UNK        -0.5000 
     55 C           1.5204  -11.5685  -43.8105 C.2       3 UNK         0.5000 
     56 O           2.5200  -11.9206  -43.1837 O.2       3 UNK        -0.5000 
     57 CA          0.7677  -10.2944  -43.3725 C.3       3 UNK         0.1400 
     58 CB          1.4500   -9.0444  -43.9485 C.3       3 UNK        -0.1800 
     59 N          -0.6474  -10.2787  -43.7513 N.am      3 UNK        -0.5000 
     60 C          -1.5803  -11.1218  -43.2886 C.2       2 UNK         0.5000 
     61 O          -1.3457  -12.0015  -42.4605 O.2       2 UNK        -0.5000 
     62 CA         -3.0044  -10.9976  -43.8728 C.3       2 UNK         0.1400 
     63 CB         -3.2776   -9.6488  -44.5754 C.3       2 UNK        -0.1800 
     64 N          -3.3273  -12.1100  -44.7743 N.am      2 UNK        -0.5000 
     65 C          -2.6291  -12.5044  -45.8517 C.2       1 UNK         0.5000 
     66 O          -1.5795  -11.9741  -46.2183 O.2       1 UNK        -0.5000 
     67 C          -1.3250  -22.8689  -47.7629 C.2       11 UNK         0.5000 
     68 O          -1.9684  -23.8071  -47.2878 O.2       11 UNK        -0.5000 
     69 N          -1.8832  -21.7482  -48.2402 N.am      12 UNK        -0.5000 
     70 CA         -3.3082  -21.5361  -48.4967 C.3       12 UNK         0.1400 
     71 CB         -3.4877  -20.1589  -49.1486 C.3       12 UNK        -0.1800 
     72 C          -4.2474  -21.6793  -47.2858 C.2       12 UNK         0.5000 
     73 O          -5.3375  -22.2289  -47.4449 O.2       12 UNK        -0.5000 
     74 N          -3.8318  -21.1947  -46.1065 N.am      13 UNK        -0.5000 
     75 CA         -4.6470  -21.2491  -44.8859 C.3       13 UNK         0.1400 
     76 CB         -4.1690  -20.2035  -43.8674 C.3       13 UNK        -0.1800 
     77 C          -4.6636  -22.6538  -44.2617 C.2       13 UNK         0.5000 
     78 O          -5.6880  -23.0671  -43.7175 O.2       13 UNK        -0.5000 
     79 N          -3.5411  -23.3734  -44.3842 N.am      14 UNK        -0.5000 
     80 CA         -3.4177  -24.7826  -44.0097 C.3       14 UNK         0.1400 
     81 CB         -1.9271  -25.1181  -43.8596 C.3       14 UNK        -0.1800 
     82 C          -4.0804  -25.7351  -45.0251 C.2       14 UNK         0.5000 
     83 O          -4.3297  -26.8931  -44.6890 O.2       14 UNK        -0.5000 
     84 N          -4.3140  -25.2377  -46.2496 N.am      15 UNK        -0.5000 
     85 CA         -4.7377  -25.9601  -47.4537 C.3       15 UNK         0.1400 
     86 CB         -6.1499  -26.5566  -47.2835 C.3       15 UNK        -0.1800 
     87 C          -3.6871  -26.9954  -47.9117 C.2       15 UNK         0.5000 
     88 O          -4.0358  -28.0190  -48.5026 O.2       15 UNK        -0.5000 
     89 N          -2.4124  -26.7056  -47.6200 N.am      16 UNK        -0.5000 
     90 CA         -1.2623  -27.5534  -47.9285 C.3       16 UNK         0.1400 
     91 CB         -0.1582  -27.2648  -46.9002 C.3       16 UNK        -0.1800 
     92 C          -0.7380  -27.3288  -49.3576 C.2       16 UNK         0.5000 
     93 O          -0.0940  -28.2181  -49.9152 O.2       16 UNK        -0.5000 
     94 N          -1.0237  -26.1506  -49.9194 N.am      17 UNK        -0.5000 
     95 CA         -0.6479  -25.6967  -51.2520 C.3       17 UNK         0.1400 
     96 CB          0.8685  -25.4159  -51.3173 C.3       17 UNK        -0.1800 
     97 C          -1.4860  -24.4503  -51.5814 C.2       17 UNK         0.5000 
     98 O          -2.2994  -24.0225  -50.7581 O.2       17 UNK        -0.5000 
     99 N          -1.2737  -23.8898  -52.7729 N.am      18 UNK        -0.5000 
    100 CA        -1.8835  -22.6568  -53.2567 C.3       18 UNK         0.1400 
    101 CB        -3.3050  -22.9401  -53.7810 C.3       18 UNK        -0.1800 
    102 C         -0.9803  -22.0682  -54.3517 C.2       18 UNK         0.5000 
    103 O         -0.0065  -22.7086  -54.7604 O.2       18 UNK        -0.5000 
    104 N         -1.3288  -20.8676  -54.8167 N.am      19 UNK        -0.5000 
    105 CA        -0.6842  -20.1624  -55.9200 C.3       19 UNK         0.1400 
    106 CB         0.3722  -19.1909  -55.3631 C.3       19 UNK        -0.1800 
    107 C         -1.7689  -19.4310  -56.7243 C.2       19 UNK         0.5000 
    108 O         -2.9322  -19.4202  -56.3132 O.2       19 UNK        -0.5000 
    109 N         -1.3805  -18.8078  -57.8443 N.am      20 UNK        -0.5000 
    110 CA        -2.2696  -18.1216  -58.7946 C.3       20 UNK         0.1400 
    111 CB        -1.4250  -17.5807  -59.9588 C.3       20 UNK        -0.1800 
    112 C         -3.1412  -16.9950  -58.1954 C.2       20 UNK         0.5000 
    113 O         -4.1773  -16.6599  -58.7705 O.2       20 UNK        -0.5000 
    114 N         -2.7213  -16.4485  -57.0473 N.am      21 UNK        -0.5000 
    115 CA        -3.4579  -15.4579  -56.2638 C.3       21 UNK         0.1400 
    116 CB        -2.4774  -14.7790  -55.2932 C.3       21 UNK        -0.1800 
    117 C         -4.6718  -16.0307  -55.4978 C.2       21 UNK         0.5000 
    118 O         -5.4904  -15.2418  -55.0229 O.2       21 UNK        -0.5000 
    119 N         -4.7725  -17.3609  -55.3653 N.am      22 UNK        -0.5000 
    120 CA        -5.8325  -18.0436  -54.6020 C.3       22 UNK         0.1400 
    121 C         -6.3449  -19.3713  -55.2285 C.2       22 UNK         0.5000 
    122 N         -5.6209  -20.0166  -56.1329 N.am      22 UNK        -0.7600 
    123 O         -7.4448  -19.8130  -54.9062 O.2       22 UNK        -0.5000 
    124 C124       -5.4671  -18.2009  -53.1016 C.3       23 UNK        -0.0398 
    125 S125       -3.9403  -19.1630  -52.7970 S.3       23 UNK        -0.2404 
    126 C126       -2.6738  -17.8560  -52.8116 C.3       23 UNK        -0.0205 
    127 H127       -7.1740  -14.0863  -46.4190 H         1 UNK         0.0600 
    128 H128       -7.4684  -13.2861  -47.9651 H         1 UNK         0.0600 
    129 H129       -7.4659  -12.3454  -46.4694 H         1 UNK         0.0600 
    130 H130       -5.0244  -14.5902  -46.1320 H         1 UNK         0.3000 
    131 H131       -2.9155  -13.4917  -47.7085 H         1 UNK         0.0600 
    132 H132       -1.4486  -14.8764  -46.0767 H         1 UNK         0.0800 
    133 H133       -2.9177  -15.3612  -45.2882 H         1 UNK         0.0800 
    134 H134       -0.3352  -16.5251  -47.5137 H         1 UNK         0.0800 
    135 H135       -0.8832  -15.2933  -48.6271 H         1 UNK         0.0800 
    136 H136       -2.6387  -16.4101  -50.5028 H         1 UNK         0.1150 
    137 H137       -0.5732  -19.5714  -52.5256 H         1 UNK         0.1150 
    138 H138        0.7333  -18.3022  -48.6477 H         1 UNK         0.1150 
    139 H139        2.1461  -19.7779  -49.9958 H         1 UNK         0.0800 
    140 H140        1.7570  -20.0348  -51.6753 H         1 UNK         0.0800 
    141 H141        0.6589  -20.8469  -48.0645 H         1 UNK         0.0800 
    142 H142        2.0260  -21.8814  -48.3069 H         1 UNK         0.0800 
    143 H143        0.3885  -23.8801  -48.4539 H         1 UNK         0.0600 
    144 H144        0.1495  -22.9257  -45.7443 H         1 UNK         0.3000 
    145 H145        1.9206  -24.9484  -44.3796 H         1 UNK         0.0600 
    146 H146        4.2915  -24.8267  -45.1074 H         1 UNK         0.0600 
    147 H147        4.1143  -24.0363  -43.5498 H         1 UNK         0.0600 
    148 H148        4.2615  -23.0676  -45.0158 H         1 UNK         0.0600 
    149 H149        1.7876  -21.9818  -44.4709 H         1 UNK         0.3000 
    150 H150       -0.6336  -21.9948  -42.0162 H         1 UNK         0.0600 
    151 H151        2.1228  -20.8509  -41.3075 H         1 UNK         0.0600 
    152 H152        1.1960  -21.9576  -40.2997 H         1 UNK         0.0600 
    153 H153        0.5817  -20.3435  -40.6178 H         1 UNK         0.0600 
    154 H154        0.7197  -19.7442  -43.0180 H         1 UNK         0.3000 
    155 H155       -0.4058  -19.7322  -46.3785 H         1 UNK         0.0600 
    156 H156       -1.0540  -17.3868  -45.3632 H         1 UNK         0.0600 
    157 H157       -1.5060  -18.3057  -43.9340 H         1 UNK         0.0600 
    158 H158       -2.2753  -18.6384  -45.4793 H         1 UNK         0.0600 
    159 H159        1.0898  -17.7957  -45.0670 H         1 UNK         0.3000 
    160 H160        4.3581  -19.2212  -45.2423 H         1 UNK         0.0600 
    161 H161        2.9258  -17.0055  -46.8089 H         1 UNK         0.0600 
    162 H162        3.8846  -18.3105  -47.4891 H         1 UNK         0.0600 
    163 H163        4.6586  -17.0839  -46.4977 H         1 UNK         0.0600 
    164 H164        2.9689  -16.7895  -44.3104 H         1 UNK         0.3000 
    165 H165        3.0944  -17.7280  -40.8937 H         1 UNK         0.0600 
    166 H166        4.3457  -15.6072  -40.5944 H         1 UNK         0.0600 
    167 H167        5.4149  -16.8527  -41.2187 H         1 UNK         0.0600 
    168 H168        4.8050  -15.6035  -42.2977 H         1 UNK         0.0600 
    169 H169        2.3538  -15.2908  -42.1839 H         1 UNK         0.3000 
    170 H170       -0.8929  -16.1972  -43.2348 H         1 UNK         0.0600 
    171 H171       -1.7144  -14.5059  -41.7035 H         1 UNK         0.0600 
    172 H172       -0.1716  -14.4312  -40.8499 H         1 UNK         0.0600 
    173 H173       -1.1801  -15.8706  -40.7428 H         1 UNK         0.0600 
    174 H174        0.2236  -13.6492  -43.1576 H         1 UNK         0.3000 
    175 H175        2.6620  -13.4987  -45.2259 H         1 UNK         0.0600 
    176 H176        1.7962  -14.4647  -47.3239 H         1 UNK         0.0600 
    177 H177        0.2693  -13.6184  -47.1274 H         1 UNK         0.0600 
    178 H178        1.7529  -12.7127  -47.3991 H         1 UNK         0.0600 
    179 H179        0.1718  -11.9241  -45.2961 H         1 UNK         0.3000 
    180 H180        0.8225  -10.2426  -42.2831 H         1 UNK         0.0600 
    181 H181        1.4062   -9.0290  -45.0383 H         1 UNK         0.0600 
    182 H182        2.5017   -9.0053  -43.6614 H         1 UNK         0.0600 
    183 H183        0.9803   -8.1324  -43.5795 H         1 UNK         0.0600 
    184 H184       -0.9176   -9.6106  -44.4584 H         1 UNK         0.3000 
    185 H185       -3.6879  -11.0719  -43.0257 H         1 UNK         0.0600 
    186 H186       -3.0694   -8.8088  -43.9113 H         1 UNK         0.0600 
    187 H187       -2.6775   -9.5203  -45.4768 H         1 UNK         0.0600 
    188 H188       -4.3247   -9.5721  -44.8688 H         1 UNK         0.0600 
    189 H189       -4.1666  -12.6240  -44.5476 H         1 UNK         0.3000 
    190 H190       -1.2714  -21.0555  -48.6456 H         1 UNK         0.3000 
    191 H191       -3.6152  -22.2895  -49.2243 H         1 UNK         0.0600 
    192 H192       -4.5344  -19.9654  -49.3865 H         1 UNK         0.0600 
    193 H193       -3.1420  -19.3544  -48.4982 H         1 UNK         0.0600 
    194 H194       -2.9297  -20.0983  -50.0820 H         1 UNK         0.0600 
    195 H195       -2.8929  -20.8340  -46.0240 H         1 UNK         0.3000 
    196 H196       -5.6768  -20.9975  -45.1494 H         1 UNK         0.0600 
    197 H197       -4.8008  -20.2155  -42.9784 H         1 UNK         0.0600 
    198 H198       -4.2204  -19.1967  -44.2807 H         1 UNK         0.0600 
    199 H199       -3.1484  -20.3899  -43.5371 H         1 UNK         0.0600 
    200 H200       -2.7321  -22.9395  -44.8149 H         1 UNK         0.3000 
    201 H201       -3.9038  -24.9377  -43.0443 H         1 UNK         0.0600 
    202 H202       -1.7810  -26.1683  -43.6039 H         1 UNK         0.0600 
    203 H203       -1.4826  -24.5270  -43.0610 H         1 UNK         0.0600 
    204 H204       -1.3707  -24.9212  -44.7767 H         1 UNK         0.0600 
    205 H205       -4.0168  -24.2844  -46.4121 H         1 UNK         0.3000 
    206 H206       -4.7891  -25.2131  -48.2473 H         1 UNK         0.0600 
    207 H207       -6.8584  -25.7994  -46.9478 H         1 UNK         0.0600 
    208 H208       -6.5223  -26.9519  -48.2291 H         1 UNK         0.0600 
    209 H209       -6.1631  -27.3736  -46.5619 H         1 UNK         0.0600 
    210 H210       -2.2184  -25.8058  -47.1925 H         1 UNK         0.3000 
    211 H211       -1.5514  -28.6025  -47.8370 H         1 UNK         0.0600 
    212 H212        0.1614  -26.2240  -46.9423 H         1 UNK         0.0600 
    213 H213        0.7195  -27.8866  -47.0810 H         1 UNK         0.0600 
    214 H214       -0.5002  -27.4696  -45.8855 H         1 UNK         0.0600 
    215 H215       -1.6213  -25.4982  -49.4252 H         1 UNK         0.3000 
    216 H216       -0.9075  -26.4724  -51.9748 H         1 UNK         0.0600 
    217 H217        1.1656  -25.0329  -52.2939 H         1 UNK         0.0600 
    218 H218        1.4484  -26.3225  -51.1459 H         1 UNK         0.0600 
    219 H219        1.1755  -24.6846  -50.5708 H         1 UNK         0.0600 
    220 H220       -0.5510  -24.2490  -53.3850 H         1 UNK         0.3000 
    221 H221       -1.9317  -21.9342  -52.4385 H         1 UNK         0.0600 
    222 H222       -3.2928  -23.6584  -54.6014 H         1 UNK         0.0600 
    223 H223       -3.9440  -23.3413  -52.9943 H         1 UNK         0.0600 
    224 H224       -3.7839  -22.0310  -54.1468 H         1 UNK         0.0600 
    225 H225       -2.1940  -20.4436  -54.5042 H         1 UNK         0.3000 
    226 H226       -0.2042  -20.8781  -56.5906 H         1 UNK         0.0600 
    227 H227        1.1024  -19.7165  -54.7473 H         1 UNK         0.0600 
    228 H228       -0.0749  -18.4080  -54.7511 H         1 UNK         0.0600 
    229 H229        0.9237  -18.7029  -56.1671 H         1 UNK         0.0600 
    230 H230       -0.4057  -18.8482  -58.1056 H         1 UNK         0.3000 
    231 H231       -2.9557  -18.8720  -59.1926 H         1 UNK         0.0600 
    232 H232       -0.6910  -16.8503  -59.6161 H         1 UNK         0.0600 
    233 H233       -2.0525  -17.0904  -60.7044 H         1 UNK         0.0600 
    234 H234       -0.8901  -18.3837  -60.4662 H         1 UNK         0.0600 
    235 H235       -1.8547  -16.7835  -56.6544 H         1 UNK         0.3000 
    236 H236       -3.8399  -14.6957  -56.9462 H         1 UNK         0.0600 
    237 H237       -2.0236  -15.4957  -54.6088 H         1 UNK         0.0600 
    238 H238       -1.6739  -14.2779  -55.8332 H         1 UNK         0.0600 
    239 H239       -2.9808  -14.0222  -54.6901 H         1 UNK         0.0600 
    240 H240       -4.0678  -17.9614  -55.7794 H         1 UNK         0.3000 
    241 H241       -6.7155  -17.4023  -54.6356 H         1 UNK         0.0600 
    242 H242       -5.9856  -20.8645  -56.5354 H         1 UNK         0.3800 
    243 H243       -4.6610  -19.7435  -56.3306 H         1 UNK         0.3800 
    244 H244       -6.2827  -18.6888  -52.5653 H         1 UNK         0.0800 
    245 H245       -5.3758  -17.2181  -52.6385 H         1 UNK         0.0800 
    246 H246       -2.1216  -17.9129  -53.7487 H         1 UNK         0.0800 
    247 H247       -3.1384  -16.8697  -52.7988 H         1 UNK         0.0800 
@<TRIPOS>BOND
     1    1    2 1    
     2    1  127 1    
     3    1  128 1    
     4    1  129 1    
     5    2    3 2    
     6    2    4 am   BACKBONE|DICT|INTERRES
     7    4    5 1    
     8    4  130 1    
     9    5    6 1    
    10    5   65 1    
    11    5  131 1    
    12    6    7 1    
    13    6  132 1    
    14    6  133 1    
    15    7    8 1    
    16    8    9 1    
    17    8  134 1    
    18    8  135 1    
    19    9   10 ar   
    20    9   14 ar   
    21   10   11 ar   
    22   10  136 1    
    23   11   12 ar   
    24   11  126 1    
    25   12   13 ar   
    26   12  137 1    
    27   13   14 ar   
    28   13   15 1    
    29   14  138 1    
    30   15   16 1    
    31   15  139 1    
    32   15  140 1    
    33   16   17 1    
    34   17   18 1    
    35   17  141 1    
    36   17  142 1    
    37   18   19 1    
    38   18   67 1    
    39   18  143 1    
    40   19   20 am   BACKBONE|DICT|INTERRES
    41   19  144 1    
    42   20   21 2    
    43   20   22 1    
    44   22   23 1    
    45   22   24 1    
    46   22  145 1    
    47   23  146 1    
    48   23  147 1    
    49   23  148 1    
    50   24   25 am   BACKBONE|DICT|INTERRES
    51   24  149 1    
    52   25   26 2    
    53   25   27 1    
    54   27   28 1    
    55   27   29 1    
    56   27  150 1    
    57   28  151 1    
    58   28  152 1    
    59   28  153 1    
    60   29   30 am   BACKBONE|DICT|INTERRES
    61   29  154 1    
    62   30   31 2    
    63   30   32 1    
    64   32   33 1    
    65   32   34 1    
    66   32  155 1    
    67   33  156 1    
    68   33  157 1    
    69   33  158 1    
    70   34   35 am   BACKBONE|DICT|INTERRES
    71   34  159 1    
    72   35   36 2    
    73   35   37 1    
    74   37   38 1    
    75   37   39 1    
    76   37  160 1    
    77   38  161 1    
    78   38  162 1    
    79   38  163 1    
    80   39   40 am   BACKBONE|DICT|INTERRES
    81   39  164 1    
    82   40   41 2    
    83   40   42 1    
    84   42   43 1    
    85   42   44 1    
    86   42  165 1    
    87   43  166 1    
    88   43  167 1    
    89   43  168 1    
    90   44   45 am   BACKBONE|DICT|INTERRES
    91   44  169 1    
    92   45   46 2    
    93   45   47 1    
    94   47   48 1    
    95   47   49 1    
    96   47  170 1    
    97   48  171 1    
    98   48  172 1    
    99   48  173 1    
   100   49   50 am   BACKBONE|DICT|INTERRES
   101   49  174 1    
   102   50   51 2    
   103   50   52 1    
   104   52   53 1    
   105   52   54 1    
   106   52  175 1    
   107   53  176 1    
   108   53  177 1    
   109   53  178 1    
   110   54   55 am   BACKBONE|DICT|INTERRES
   111   54  179 1    
   112   55   56 2    
   113   55   57 1    
   114   57   58 1    
   115   57   59 1    
   116   57  180 1    
   117   58  181 1    
   118   58  182 1    
   119   58  183 1    
   120   59   60 am   BACKBONE|DICT|INTERRES
   121   59  184 1    
   122   60   61 2    
   123   60   62 1    
   124   62   63 1    
   125   62   64 1    
   126   62  185 1    
   127   63  186 1    
   128   63  187 1    
   129   63  188 1    
   130   64   65 am   BACKBONE|DICT|INTERRES
   131   64  189 1    
   132   65   66 2    
   133   67   68 2    
   134   67   69 am   BACKBONE|DICT|INTERRES
   135   69   70 1    
   136   69  190 1    
   137   70   71 1    
   138   70   72 1    
   139   70  191 1    
   140   71  192 1    
   141   71  193 1    
   142   71  194 1    
   143   72   73 2    
   144   72   74 am   BACKBONE|DICT|INTERRES
   145   74   75 1    
   146   74  195 1    
   147   75   76 1    
   148   75   77 1    
   149   75  196 1    
   150   76  197 1    
   151   76  198 1    
   152   76  199 1    
   153   77   78 2    
   154   77   79 am   BACKBONE|DICT|INTERRES
   155   79   80 1    
   156   79  200 1    
   157   80   81 1    
   158   80   82 1    
   159   80  201 1    
   160   81  202 1    
   161   81  203 1    
   162   81  204 1    
   163   82   83 2    
   164   82   84 am   BACKBONE|DICT|INTERRES
   165   84   85 1    
   166   84  205 1    
   167   85   86 1    
   168   85   87 1    
   169   85  206 1    
   170   86  207 1    
   171   86  208 1    
   172   86  209 1    
   173   87   88 2    
   174   87   89 am   BACKBONE|DICT|INTERRES
   175   89   90 1    
   176   89  210 1    
   177   90   91 1    
   178   90   92 1    
   179   90  211 1    
   180   91  212 1    
   181   91  213 1    
   182   91  214 1    
   183   92   93 2    
   184   92   94 am   BACKBONE|DICT|INTERRES
   185   94   95 1    
   186   94  215 1    
   187   95   96 1    
   188   95   97 1    
   189   95  216 1    
   190   96  217 1    
   191   96  218 1    
   192   96  219 1    
   193   97   98 2    
   194   97   99 am   BACKBONE|DICT|INTERRES
   195   99  100 1    
   196   99  220 1    
   197  100  101 1    
   198  100  102 1    
   199  100  221 1    
   200  101  222 1    
   201  101  223 1    
   202  101  224 1    
   203  102  103 2    
   204  102  104 am   BACKBONE|DICT|INTERRES
   205  104  105 1    
   206  104  225 1    
   207  105  106 1    
   208  105  107 1    
   209  105  226 1    
   210  106  227 1    
   211  106  228 1    
   212  106  229 1    
   213  107  108 2    
   214  107  109 am   BACKBONE|DICT|INTERRES
   215  109  110 1    
   216  109  230 1    
   217  110  111 1    
   218  110  112 1    
   219  110  231 1    
   220  111  232 1    
   221  111  233 1    
   222  111  234 1    
   223  112  113 2    
   224  112  114 am   BACKBONE|DICT|INTERRES
   225  114  115 1    
   226  114  235 1    
   227  115  116 1    
   228  115  117 1    
   229  115  236 1    
   230  116  237 1    
   231  116  238 1    
   232  116  239 1    
   233  117  118 2    
   234  117  119 am   BACKBONE|DICT|INTERRES
   235  119  120 1    
   236  119  240 1    
   237  120  121 1    
   238  120  124 1    
   239  120  241 1    
   240  121  122 am   BACKBONE|DICT|INTERRES
   241  121  123 2    
   242  122  242 1    
   243  122  243 1    
   244  124  125 1    
   245  124  244 1    
   246  124  245 1    
   247  125  126 1    
   248  126  246 1    
   249  126  247 1    
@<TRIPOS>SUBSTRUCTURE
     1 UNK         1 GROUP             0       ****    0 ROOT    
