@<TRIPOS>MOLECULE
3R540
247   249    1
SMALL
USER_CHARGES


@<TRIPOS>ATOM
      1 CA          2.2414  -15.5800  -49.8310 C.3       0 UNK        -0.1800 
      2 C           1.5891  -15.2233  -48.5039 C.2       0 UNK         0.5000 
      3 O           2.2904  -14.9893  -47.5207 O.2       0 UNK        -0.5000 
      4 N           0.2516  -15.1387  -48.4763 N.am      1 UNK        -0.5000 
      5 CA         -0.5517  -14.7688  -47.3004 C.3       1 UNK         0.1400 
      6 C6         -2.0700  -14.9733  -47.5489 C.3       23 UNK        -0.0398 
      7 S7         -2.5867  -16.7134  -47.3619 S.3       23 UNK        -0.2404 
      8 C8         -3.0453  -17.2036  -49.0575 C.3       23 UNK        -0.0205 
      9 C9         -1.8598  -17.5346  -49.9586 C.ar      23 UNK        -0.0193 
     10 C10        -1.9238  -17.2224  -51.3186 C.ar      23 UNK        -0.1150 
     11 C11        -0.8799  -17.5694  -52.1799 C.ar      23 UNK        -0.0193 
     12 C12         0.2451  -18.2241  -51.6713 C.ar      23 UNK        -0.1150 
     13 C13         0.3343  -18.5269  -50.3093 C.ar      23 UNK        -0.0193 
     14 C14        -0.7258  -18.1889  -49.4638 C.ar      23 UNK        -0.1150 
     15 C15         1.5924  -19.1781  -49.7509 C.3       23 UNK        -0.0205 
     16 S16         1.3185  -20.9028  -49.2444 S.3       23 UNK        -0.2404 
     17 C17         1.1175  -20.7013  -47.4408 C.3       23 UNK        -0.0398 
     18 CA          0.7603  -22.0207  -46.7229 C.3       11 UNK         0.1400 
     19 N           0.9799  -21.9360  -45.2799 N.am      11 UNK        -0.5000 
     20 C           0.9632  -22.9870  -44.4488 C.2       10 UNK         0.5000 
     21 O           0.7711  -24.1476  -44.8140 O.2       10 UNK        -0.5000 
     22 CA          1.1557  -22.6838  -42.9531 C.3       10 UNK         0.1400 
     23 CB          2.6302  -22.3869  -42.6412 C.3       10 UNK        -0.1800 
     24 N           0.3216  -21.5741  -42.4909 N.am      10 UNK        -0.5000 
     25 C          -1.0195  -21.5828  -42.4963 C.2       9 UNK         0.5000 
     26 O          -1.6990  -22.5342  -42.8832 O.2       9 UNK        -0.5000 
     27 CA         -1.7221  -20.2977  -42.0251 C.3       9 UNK         0.1400 
     28 CB         -1.6857  -20.1839  -40.4937 C.3       9 UNK        -0.1800 
     29 N          -1.1587  -19.0859  -42.6194 N.am      9 UNK        -0.5000 
     30 C          -1.1261  -18.8252  -43.9344 C.2       8 UNK         0.5000 
     31 O          -1.5558  -19.5839  -44.8004 O.2       8 UNK        -0.5000 
     32 CA         -0.4484  -17.5157  -44.3590 C.3       8 UNK         0.1400 
     33 CB         -1.3133  -16.3078  -43.9605 C.3       8 UNK        -0.1800 
     34 N           0.8896  -17.3765  -43.7904 N.am      8 UNK        -0.5000 
     35 C           1.8990  -18.2439  -43.9551 C.2       7 UNK         0.5000 
     36 O           1.8379  -19.2520  -44.6580 O.2       7 UNK        -0.5000 
     37 CA          3.1746  -17.9692  -43.1431 C.3       7 UNK         0.1400 
     38 CB          4.0364  -16.8900  -43.8172 C.3       7 UNK        -0.1800 
     39 N           2.8685  -17.5751  -41.7677 N.am      7 UNK        -0.5000 
     40 C           2.2915  -18.3739  -40.8574 C.2       6 UNK         0.5000 
     41 O           1.9892  -19.5494  -41.0646 O.2       6 UNK        -0.5000 
     42 CA          1.9557  -17.7295  -39.5010 C.3       6 UNK         0.1400 
     43 CB          3.2004  -17.6679  -38.6031 C.3       6 UNK        -0.1800 
     44 N           1.3970  -16.3852  -39.6542 N.am      6 UNK        -0.5000 
     45 C           0.1962  -16.1265  -40.1912 C.2       5 UNK         0.5000 
     46 O          -0.5849  -17.0004  -40.5676 O.2       5 UNK        -0.5000 
     47 CA         -0.1729  -14.6415  -40.3760 C.3       5 UNK         0.1400 
     48 CB         -0.8089  -14.0797  -39.0959 C.3       5 UNK        -0.1800 
     49 N           0.9698  -13.8057  -40.7609 N.am      5 UNK        -0.5000 
     50 C           1.6408  -13.9329  -41.9126 C.2       4 UNK         0.5000 
     51 O           1.3720  -14.7766  -42.7700 O.2       4 UNK        -0.5000 
     52 CA          2.8468  -13.0101  -42.1199 C.3       4 UNK         0.1400 
     53 CB          4.0716  -13.5817  -41.3753 C.3       4 UNK        -0.1800 
     54 N           3.1057  -12.9159  -43.5546 N.am      4 UNK        -0.5000 
     55 C           3.9983  -12.1189  -44.1514 C.2       3 UNK         0.5000 
     56 O           4.7170  -11.3183  -43.5515 O.2       3 UNK        -0.5000 
     57 CA          4.1009  -12.2299  -45.6834 C.3       3 UNK         0.1400 
     58 CB          4.8412  -13.5149  -46.0868 C.3       3 UNK        -0.1800 
     59 N           2.8018  -12.1733  -46.3600 N.am      3 UNK        -0.5000 
     60 C           2.0319  -11.0738  -46.4191 C.2       2 UNK         0.5000 
     61 O           2.3195  -10.0169  -45.8556 O.2       2 UNK        -0.5000 
     62 CA          0.7462  -11.1258  -47.2728 C.3       2 UNK         0.1400 
     63 CB          0.9338  -10.3248  -48.5713 C.3       2 UNK        -0.1800 
     64 N           0.3208  -12.4799  -47.6228 N.am      2 UNK        -0.5000 
     65 C          -0.2679  -13.3384  -46.7802 C.2       1 UNK         0.5000 
     66 O          -0.5711  -13.0440  -45.6241 O.2       1 UNK        -0.5000 
     67 C          -0.6685  -22.4915  -47.0517 C.2       11 UNK         0.5000 
     68 O          -0.8209  -23.4075  -47.8563 O.2       11 UNK        -0.5000 
     69 N          -1.6827  -21.9110  -46.3933 N.am      12 UNK        -0.5000 
     70 CA         -3.0880  -22.2722  -46.5771 C.3       12 UNK         0.1400 
     71 CB         -3.9905  -21.3034  -45.7999 C.3       12 UNK        -0.1800 
     72 C          -3.3986  -23.7282  -46.1922 C.2       12 UNK         0.5000 
     73 O          -4.1927  -24.3692  -46.8803 O.2       12 UNK        -0.5000 
     74 N          -2.7533  -24.2356  -45.1335 N.am      13 UNK        -0.5000 
     75 CA         -2.8426  -25.6349  -44.7192 C.3       13 UNK         0.1400 
     76 CB         -2.2161  -25.7995  -43.3263 C.3       13 UNK        -0.1800 
     77 C          -2.1866  -26.5942  -45.7305 C.2       13 UNK         0.5000 
     78 O          -2.7514  -27.6503  -46.0170 O.2       13 UNK        -0.5000 
     79 N          -1.0133  -26.2118  -46.2516 N.am      14 UNK        -0.5000 
     80 CA         -0.2311  -27.0079  -47.1962 C.3       14 UNK         0.1400 
     81 CB          1.2154  -26.4888  -47.2170 C.3       14 UNK        -0.1800 
     82 C          -0.8219  -27.0200  -48.6180 C.2       14 UNK         0.5000 
     83 O          -0.9267  -28.0871  -49.2240 O.2       14 UNK        -0.5000 
     84 N          -1.1718  -25.8355  -49.1327 N.am      15 UNK        -0.5000 
     85 CA         -1.5810  -25.6144  -50.5210 C.3       15 UNK         0.1400 
     86 CB         -1.0597  -24.2380  -50.9678 C.3       15 UNK        -0.1800 
     87 C          -3.1018  -25.7185  -50.7432 C.2       15 UNK         0.5000 
     88 O          -3.5308  -25.6651  -51.8962 O.2       15 UNK        -0.5000 
     89 N          -3.8792  -25.8662  -49.6585 N.am      16 UNK        -0.5000 
     90 CA         -5.3461  -25.8642  -49.6073 C.3       16 UNK         0.1400 
     91 CB         -5.9477  -27.0350  -50.4137 C.3       16 UNK        -0.1800 
     92 C          -5.9029  -24.4851  -50.0134 C.2       16 UNK         0.5000 
     93 O          -6.4997  -24.3345  -51.0814 O.2       16 UNK        -0.5000 
     94 N          -5.6523  -23.5028  -49.1378 N.am      17 UNK        -0.5000 
     95 CA         -5.8862  -22.0655  -49.3071 C.3       17 UNK         0.1400 
     96 CB         -7.3885  -21.7568  -49.4979 C.3       17 UNK        -0.1800 
     97 C          -4.9713  -21.4681  -50.3985 C.2       17 UNK         0.5000 
     98 O          -3.8554  -21.9549  -50.5903 O.2       17 UNK        -0.5000 
     99 N          -5.4331  -20.4079  -51.0726 N.am      18 UNK        -0.5000 
    100 CA        -4.7545  -19.7903  -52.2087 C.3       18 UNK         0.1400 
    101 CB        -5.3072  -18.3682  -52.4080 C.3       18 UNK        -0.1800 
    102 C         -4.9542  -20.6644  -53.4596 C.2       18 UNK         0.5000 
    103 O         -5.9959  -20.5645  -54.1129 O.2       18 UNK        -0.5000 
    104 N         -3.9767  -21.5355  -53.7402 N.am      19 UNK        -0.5000 
    105 CA        -3.9738  -22.4830  -54.8560 C.3       19 UNK         0.1400 
    106 CB        -2.6700  -23.2935  -54.8311 C.3       19 UNK        -0.1800 
    107 C         -4.1594  -21.7874  -56.2170 C.2       19 UNK         0.5000 
    108 O         -3.4019  -20.8722  -56.5428 O.2       19 UNK        -0.5000 
    109 N         -5.1896  -22.2144  -56.9606 N.am      20 UNK        -0.5000 
    110 CA        -5.6423  -21.6545  -58.2412 C.3       20 UNK         0.1400 
    111 CB        -4.5849  -21.8808  -59.3429 C.3       20 UNK        -0.1800 
    112 C         -6.1045  -20.1807  -58.1501 C.2       20 UNK         0.5000 
    113 O         -6.0807  -19.4735  -59.1589 O.2       20 UNK        -0.5000 
    114 N         -6.5270  -19.7518  -56.9488 N.am      21 UNK        -0.5000 
    115 CA        -6.9767  -18.4028  -56.5918 C.3       21 UNK         0.1400 
    116 CB        -8.3015  -18.0565  -57.3039 C.3       21 UNK        -0.1800 
    117 C         -5.8771  -17.3385  -56.7913 C.2       21 UNK         0.5000 
    118 O         -6.1419  -16.2668  -57.3392 O.2       21 UNK        -0.5000 
    119 N         -4.6557  -17.6607  -56.3440 N.am      22 UNK        -0.5000 
    120 CA        -3.4630  -16.8001  -56.4344 C.3       22 UNK         0.1400 
    121 C         -3.5000  -15.4792  -55.6051 C.2       22 UNK         0.5000 
    122 N         -4.4469  -15.2813  -54.6959 N.am      22 UNK        -0.7600 
    123 O         -2.6519  -14.6123  -55.7981 O.2       22 UNK        -0.5000 
    124 C124       -2.1584  -17.6021  -56.1815 C.3       23 UNK        -0.0398 
    125 S125       -2.0676  -18.3826  -54.5309 S.3       23 UNK        -0.2404 
    126 C126       -0.9715  -17.2252  -53.6564 C.3       23 UNK        -0.0205 
    127 H127        2.8682  -16.4639  -49.7191 H         1 UNK         0.0600 
    128 H128        2.8728  -14.7580  -50.1678 H         1 UNK         0.0600 
    129 H129        1.5012  -15.7778  -50.6062 H         1 UNK         0.0600 
    130 H130       -0.2725  -15.3669  -49.3092 H         1 UNK         0.3000 
    131 H131       -0.2391  -15.4329  -46.4952 H         1 UNK         0.0600 
    132 H132       -2.6647  -14.4131  -46.8245 H         1 UNK         0.0800 
    133 H133       -2.3610  -14.5898  -48.5280 H         1 UNK         0.0800 
    134 H134       -3.6742  -18.0928  -48.9965 H         1 UNK         0.0800 
    135 H135       -3.6644  -16.4217  -49.4999 H         1 UNK         0.0800 
    136 H136       -2.7957  -16.7233  -51.7179 H         1 UNK         0.1150 
    137 H137        1.0575  -18.4854  -52.3347 H         1 UNK         0.1150 
    138 H138       -0.6659  -18.4295  -48.4143 H         1 UNK         0.1150 
    139 H139        2.3880  -19.1629  -50.4972 H         1 UNK         0.0800 
    140 H140        1.9619  -18.5941  -48.9070 H         1 UNK         0.0800 
    141 H141        0.3813  -19.9299  -47.2163 H         1 UNK         0.0800 
    142 H142        2.0694  -20.3283  -47.0610 H         1 UNK         0.0800 
    143 H143        1.4439  -22.7892  -47.0913 H         1 UNK         0.0600 
    144 H144        1.1549  -21.0070  -44.9042 H         1 UNK         0.3000 
    145 H145        0.8632  -23.5754  -42.3945 H         1 UNK         0.0600 
    146 H146        2.7885  -22.2663  -41.5695 H         1 UNK         0.0600 
    147 H147        3.2732  -23.2020  -42.9758 H         1 UNK         0.0600 
    148 H148        2.9704  -21.4747  -43.1328 H         1 UNK         0.0600 
    149 H149        0.8084  -20.7559  -42.1370 H         1 UNK         0.3000 
    150 H150       -2.7668  -20.3607  -42.3360 H         1 UNK         0.0600 
    151 H151       -2.1057  -21.0744  -40.0245 H         1 UNK         0.0600 
    152 H152       -2.2679  -19.3290  -40.1492 H         1 UNK         0.0600 
    153 H153       -0.6672  -20.0641  -40.1225 H         1 UNK         0.0600 
    154 H154       -0.7922  -18.3930  -41.9736 H         1 UNK         0.3000 
    155 H155       -0.3418  -17.5315  -45.4448 H         1 UNK         0.0600 
    156 H156       -1.4888  -16.2679  -42.8873 H         1 UNK         0.0600 
    157 H157       -0.8466  -15.3673  -44.2479 H         1 UNK         0.0600 
    158 H158       -2.2904  -16.3500  -44.4412 H         1 UNK         0.0600 
    159 H159        1.0552  -16.5392  -43.2374 H         1 UNK         0.3000 
    160 H160        3.7537  -18.8944  -43.1078 H         1 UNK         0.0600 
    161 H161        4.2977  -17.1815  -44.8353 H         1 UNK         0.0600 
    162 H162        4.9687  -16.7325  -43.2750 H         1 UNK         0.0600 
    163 H163        3.5174  -15.9337  -43.8772 H         1 UNK         0.0600 
    164 H164        3.0421  -16.6131  -41.5224 H         1 UNK         0.3000 
    165 H165        1.2097  -18.3570  -39.0084 H         1 UNK         0.0600 
    166 H166        2.9536  -17.2807  -37.6143 H         1 UNK         0.0600 
    167 H167        3.6298  -18.6610  -38.4641 H         1 UNK         0.0600 
    168 H168        3.9767  -17.0310  -39.0290 H         1 UNK         0.0600 
    169 H169        1.9737  -15.6104  -39.3625 H         1 UNK         0.3000 
    170 H170       -0.9137  -14.5831  -41.1760 H         1 UNK         0.0600 
    171 H171       -1.6748  -14.6726  -38.7981 H         1 UNK         0.0600 
    172 H172       -0.1068  -14.0818  -38.2612 H         1 UNK         0.0600 
    173 H173       -1.1533  -13.0560  -39.2432 H         1 UNK         0.0600 
    174 H174        1.2532  -13.0962  -40.1002 H         1 UNK         0.3000 
    175 H175        2.6036  -12.0172  -41.7371 H         1 UNK         0.0600 
    176 H176        4.3777  -14.5446  -41.7854 H         1 UNK         0.0600 
    177 H177        4.9277  -12.9101  -41.4323 H         1 UNK         0.0600 
    178 H178        3.8576  -13.7285  -40.3161 H         1 UNK         0.0600 
    179 H179        2.5273  -13.5299  -44.1155 H         1 UNK         0.3000 
    180 H180        4.6946  -11.3833  -46.0350 H         1 UNK         0.0600 
    181 H181        4.2988  -14.4086  -45.7771 H         1 UNK         0.0600 
    182 H182        5.8297  -13.5567  -45.6277 H         1 UNK         0.0600 
    183 H183        4.9810  -13.5675  -47.1667 H         1 UNK         0.0600 
    184 H184        2.4994  -13.0193  -46.8306 H         1 UNK         0.3000 
    185 H185       -0.0486  -10.6511  -46.6934 H         1 UNK         0.0600 
    186 H186        1.2144   -9.2924  -48.3583 H         1 UNK         0.0600 
    187 H187        1.7153  -10.7542  -49.1994 H         1 UNK         0.0600 
    188 H188        0.0125  -10.2947  -49.1534 H         1 UNK         0.0600 
    189 H189        0.5424  -12.8000  -48.5541 H         1 UNK         0.3000 
    190 H190       -1.4955  -21.1500  -45.7426 H         1 UNK         0.3000 
    191 H191       -3.3078  -22.1629  -47.6406 H         1 UNK         0.0600 
    192 H192       -3.7642  -21.3155  -44.7329 H         1 UNK         0.0600 
    193 H193       -5.0429  -21.5655  -45.9147 H         1 UNK         0.0600 
    194 H194       -3.8690  -20.2806  -46.1574 H         1 UNK         0.0600 
    195 H195       -2.1550  -23.6302  -44.5808 H         1 UNK         0.3000 
    196 H196       -3.8996  -25.8998  -44.6469 H         1 UNK         0.0600 
    197 H197       -2.2734  -26.8358  -42.9910 H         1 UNK         0.0600 
    198 H198       -2.7354  -25.1892  -42.5873 H         1 UNK         0.0600 
    199 H199       -1.1651  -25.5083  -43.3196 H         1 UNK         0.0600 
    200 H200       -0.6025  -25.3367  -45.9450 H         1 UNK         0.3000 
    201 H201       -0.2091  -28.0393  -46.8376 H         1 UNK         0.0600 
    202 H202        1.6741  -26.5642  -46.2309 H         1 UNK         0.0600 
    203 H203        1.2647  -25.4442  -47.5274 H         1 UNK         0.0600 
    204 H204        1.8301  -27.0675  -47.9075 H         1 UNK         0.0600 
    205 H205       -1.0512  -24.9934  -48.5684 H         1 UNK         0.3000 
    206 H206       -1.1108  -26.3674  -51.1568 H         1 UNK         0.0600 
    207 H207        0.0128  -24.1441  -50.7960 H         1 UNK         0.0600 
    208 H208       -1.2315  -24.0783  -52.0315 H         1 UNK         0.0600 
    209 H209       -1.5551  -23.4276  -50.4322 H         1 UNK         0.0600 
    210 H210       -3.4162  -25.8664  -48.7598 H         1 UNK         0.3000 
    211 H211       -5.6188  -26.0240  -48.5630 H         1 UNK         0.0600 
    212 H212       -5.7651  -26.9399  -51.4841 H         1 UNK         0.0600 
    213 H213       -7.0282  -27.0817  -50.2746 H         1 UNK         0.0600 
    214 H214       -5.5359  -27.9898  -50.0871 H         1 UNK         0.0600 
    215 H215       -5.1263  -23.7634  -48.3061 H         1 UNK         0.3000 
    216 H216       -5.5791  -21.5999  -48.3709 H         1 UNK         0.0600 
    217 H217       -7.7493  -22.0659  -50.4795 H         1 UNK         0.0600 
    218 H218       -7.5905  -20.6905  -49.3918 H         1 UNK         0.0600 
    219 H219       -7.9911  -22.2682  -48.7471 H         1 UNK         0.0600 
    220 H220       -6.3684  -20.0810  -50.8802 H         1 UNK         0.3000 
    221 H221       -3.6859  -19.7090  -51.9956 H         1 UNK         0.0600 
    222 H222       -5.1306  -17.7512  -51.5271 H         1 UNK         0.0600 
    223 H223       -6.3799  -18.3699  -52.6050 H         1 UNK         0.0600 
    224 H224       -4.8184  -17.8788  -53.2501 H         1 UNK         0.0600 
    225 H225       -3.1768  -21.5692  -53.1246 H         1 UNK         0.3000 
    226 H226       -4.8041  -23.1738  -54.6958 H         1 UNK         0.0600 
    227 H227       -2.5978  -23.8872  -53.9207 H         1 UNK         0.0600 
    228 H228       -2.6232  -23.9867  -55.6719 H         1 UNK         0.0600 
    229 H229       -1.7926  -22.6477  -54.8867 H         1 UNK         0.0600 
    230 H230       -5.7637  -22.9612  -56.5939 H         1 UNK         0.3000 
    231 H231       -6.5295  -22.2245  -58.5205 H         1 UNK         0.0600 
    232 H232       -3.6930  -21.2752  -59.1801 H         1 UNK         0.0600 
    233 H233       -4.9803  -21.6200  -60.3252 H         1 UNK         0.0600 
    234 H234       -4.2779  -22.9258  -59.3867 H         1 UNK         0.0600 
    235 H235       -6.4636  -20.3937  -56.1658 H         1 UNK         0.3000 
    236 H236       -7.1813  -18.4253  -55.5204 H         1 UNK         0.0600 
    237 H237       -8.7030  -17.1097  -56.9408 H         1 UNK         0.0600 
    238 H238       -8.1728  -17.9633  -58.3825 H         1 UNK         0.0600 
    239 H239       -9.0580  -18.8195  -57.1209 H         1 UNK         0.0600 
    240 H240       -4.5058  -18.5759  -55.9421 H         1 UNK         0.3000 
    241 H241       -3.4186  -16.4685  -57.4735 H         1 UNK         0.0600 
    242 H242       -4.4604  -14.4180  -54.1765 H         1 UNK         0.3800 
    243 H243       -5.1629  -15.9707  -54.5426 H         1 UNK         0.3800 
    244 H244       -2.0805  -18.3993  -56.9221 H         1 UNK         0.0800 
    245 H245       -1.2800  -16.9748  -56.3429 H         1 UNK         0.0800 
    246 H246       -1.3441  -16.2060  -53.7631 H         1 UNK         0.0800 
    247 H247        0.0167  -17.2438  -54.1184 H         1 UNK         0.0800 
@<TRIPOS>BOND
     1    1    2 1    
     2    1  127 1    
     3    1  128 1    
     4    1  129 1    
     5    2    3 2    
     6    2    4 am   BACKBONE|DICT|INTERRES
     7    4    5 1    
     8    4  130 1    
     9    5    6 1    
    10    5   65 1    
    11    5  131 1    
    12    6    7 1    
    13    6  132 1    
    14    6  133 1    
    15    7    8 1    
    16    8    9 1    
    17    8  134 1    
    18    8  135 1    
    19    9   10 ar   
    20    9   14 ar   
    21   10   11 ar   
    22   10  136 1    
    23   11   12 ar   
    24   11  126 1    
    25   12   13 ar   
    26   12  137 1    
    27   13   14 ar   
    28   13   15 1    
    29   14  138 1    
    30   15   16 1    
    31   15  139 1    
    32   15  140 1    
    33   16   17 1    
    34   17   18 1    
    35   17  141 1    
    36   17  142 1    
    37   18   19 1    
    38   18   67 1    
    39   18  143 1    
    40   19   20 am   BACKBONE|DICT|INTERRES
    41   19  144 1    
    42   20   21 2    
    43   20   22 1    
    44   22   23 1    
    45   22   24 1    
    46   22  145 1    
    47   23  146 1    
    48   23  147 1    
    49   23  148 1    
    50   24   25 am   BACKBONE|DICT|INTERRES
    51   24  149 1    
    52   25   26 2    
    53   25   27 1    
    54   27   28 1    
    55   27   29 1    
    56   27  150 1    
    57   28  151 1    
    58   28  152 1    
    59   28  153 1    
    60   29   30 am   BACKBONE|DICT|INTERRES
    61   29  154 1    
    62   30   31 2    
    63   30   32 1    
    64   32   33 1    
    65   32   34 1    
    66   32  155 1    
    67   33  156 1    
    68   33  157 1    
    69   33  158 1    
    70   34   35 am   BACKBONE|DICT|INTERRES
    71   34  159 1    
    72   35   36 2    
    73   35   37 1    
    74   37   38 1    
    75   37   39 1    
    76   37  160 1    
    77   38  161 1    
    78   38  162 1    
    79   38  163 1    
    80   39   40 am   BACKBONE|DICT|INTERRES
    81   39  164 1    
    82   40   41 2    
    83   40   42 1    
    84   42   43 1    
    85   42   44 1    
    86   42  165 1    
    87   43  166 1    
    88   43  167 1    
    89   43  168 1    
    90   44   45 am   BACKBONE|DICT|INTERRES
    91   44  169 1    
    92   45   46 2    
    93   45   47 1    
    94   47   48 1    
    95   47   49 1    
    96   47  170 1    
    97   48  171 1    
    98   48  172 1    
    99   48  173 1    
   100   49   50 am   BACKBONE|DICT|INTERRES
   101   49  174 1    
   102   50   51 2    
   103   50   52 1    
   104   52   53 1    
   105   52   54 1    
   106   52  175 1    
   107   53  176 1    
   108   53  177 1    
   109   53  178 1    
   110   54   55 am   BACKBONE|DICT|INTERRES
   111   54  179 1    
   112   55   56 2    
   113   55   57 1    
   114   57   58 1    
   115   57   59 1    
   116   57  180 1    
   117   58  181 1    
   118   58  182 1    
   119   58  183 1    
   120   59   60 am   BACKBONE|DICT|INTERRES
   121   59  184 1    
   122   60   61 2    
   123   60   62 1    
   124   62   63 1    
   125   62   64 1    
   126   62  185 1    
   127   63  186 1    
   128   63  187 1    
   129   63  188 1    
   130   64   65 am   BACKBONE|DICT|INTERRES
   131   64  189 1    
   132   65   66 2    
   133   67   68 2    
   134   67   69 am   BACKBONE|DICT|INTERRES
   135   69   70 1    
   136   69  190 1    
   137   70   71 1    
   138   70   72 1    
   139   70  191 1    
   140   71  192 1    
   141   71  193 1    
   142   71  194 1    
   143   72   73 2    
   144   72   74 am   BACKBONE|DICT|INTERRES
   145   74   75 1    
   146   74  195 1    
   147   75   76 1    
   148   75   77 1    
   149   75  196 1    
   150   76  197 1    
   151   76  198 1    
   152   76  199 1    
   153   77   78 2    
   154   77   79 am   BACKBONE|DICT|INTERRES
   155   79   80 1    
   156   79  200 1    
   157   80   81 1    
   158   80   82 1    
   159   80  201 1    
   160   81  202 1    
   161   81  203 1    
   162   81  204 1    
   163   82   83 2    
   164   82   84 am   BACKBONE|DICT|INTERRES
   165   84   85 1    
   166   84  205 1    
   167   85   86 1    
   168   85   87 1    
   169   85  206 1    
   170   86  207 1    
   171   86  208 1    
   172   86  209 1    
   173   87   88 2    
   174   87   89 am   BACKBONE|DICT|INTERRES
   175   89   90 1    
   176   89  210 1    
   177   90   91 1    
   178   90   92 1    
   179   90  211 1    
   180   91  212 1    
   181   91  213 1    
   182   91  214 1    
   183   92   93 2    
   184   92   94 am   BACKBONE|DICT|INTERRES
   185   94   95 1    
   186   94  215 1    
   187   95   96 1    
   188   95   97 1    
   189   95  216 1    
   190   96  217 1    
   191   96  218 1    
   192   96  219 1    
   193   97   98 2    
   194   97   99 am   BACKBONE|DICT|INTERRES
   195   99  100 1    
   196   99  220 1    
   197  100  101 1    
   198  100  102 1    
   199  100  221 1    
   200  101  222 1    
   201  101  223 1    
   202  101  224 1    
   203  102  103 2    
   204  102  104 am   BACKBONE|DICT|INTERRES
   205  104  105 1    
   206  104  225 1    
   207  105  106 1    
   208  105  107 1    
   209  105  226 1    
   210  106  227 1    
   211  106  228 1    
   212  106  229 1    
   213  107  108 2    
   214  107  109 am   BACKBONE|DICT|INTERRES
   215  109  110 1    
   216  109  230 1    
   217  110  111 1    
   218  110  112 1    
   219  110  231 1    
   220  111  232 1    
   221  111  233 1    
   222  111  234 1    
   223  112  113 2    
   224  112  114 am   BACKBONE|DICT|INTERRES
   225  114  115 1    
   226  114  235 1    
   227  115  116 1    
   228  115  117 1    
   229  115  236 1    
   230  116  237 1    
   231  116  238 1    
   232  116  239 1    
   233  117  118 2    
   234  117  119 am   BACKBONE|DICT|INTERRES
   235  119  120 1    
   236  119  240 1    
   237  120  121 1    
   238  120  124 1    
   239  120  241 1    
   240  121  122 am   BACKBONE|DICT|INTERRES
   241  121  123 2    
   242  122  242 1    
   243  122  243 1    
   244  124  125 1    
   245  124  244 1    
   246  124  245 1    
   247  125  126 1    
   248  126  246 1    
   249  126  247 1    
@<TRIPOS>SUBSTRUCTURE
     1 UNK         1 GROUP             0       ****    0 ROOT    
