@<TRIPOS>MOLECULE
3R540
247   249    1
SMALL
USER_CHARGES


@<TRIPOS>ATOM
      1 CA         -3.9305  -11.6201  -45.7217 C.3       0 UNK        -0.1800 
      2 C          -2.9487  -11.9606  -46.8344 C.2       0 UNK         0.5000 
      3 O          -2.4113  -11.0571  -47.4762 O.2       0 UNK        -0.5000 
      4 N          -2.7232  -13.2582  -47.0687 N.am      1 UNK        -0.5000 
      5 CA         -1.7610  -13.7840  -48.0438 C.3       1 UNK         0.1400 
      6 C6         -2.0143  -15.2811  -48.3750 C.3       23 UNK        -0.0398 
      7 S7         -3.7532  -15.7407  -48.6951 S.3       23 UNK        -0.2404 
      8 C8         -3.8347  -17.4010  -47.9359 C.3       23 UNK        -0.0205 
      9 C9         -3.2630  -18.4821  -48.8434 C.ar      23 UNK        -0.0193 
     10 C10        -4.1174  -19.3982  -49.4631 C.ar      23 UNK        -0.1150 
     11 C11        -3.6035  -20.3883  -50.3029 C.ar      23 UNK        -0.0193 
     12 C12        -2.2271  -20.4510  -50.5353 C.ar      23 UNK        -0.1150 
     13 C13        -1.3614  -19.5386  -49.9293 C.ar      23 UNK        -0.0193 
     14 C14        -1.8845  -18.5744  -49.0643 C.ar      23 UNK        -0.1150 
     15 C15         0.1258  -19.5410  -50.2626 C.3       23 UNK        -0.0205 
     16 S16         1.0418  -20.9286  -49.5298 S.3       23 UNK        -0.2404 
     17 C17         0.8532  -20.6105  -47.7424 C.3       23 UNK        -0.0398 
     18 CA          0.4463  -21.8782  -46.9593 C.3       11 UNK         0.1400 
     19 N           0.5951  -21.6946  -45.5146 N.am      11 UNK        -0.5000 
     20 C           0.5128  -22.6779  -44.6081 C.2       10 UNK         0.5000 
     21 O           0.2833  -23.8527  -44.8938 O.2       10 UNK        -0.5000 
     22 CA          0.6669  -22.2759  -43.1319 C.3       10 UNK         0.1400 
     23 CB          2.1304  -21.9497  -42.7984 C.3       10 UNK        -0.1800 
     24 N          -0.1883  -21.1445  -42.7782 N.am      10 UNK        -0.5000 
     25 C          -1.5289  -21.1796  -42.7958 C.2       9 UNK         0.5000 
     26 O          -2.1865  -22.1887  -43.0524 O.2       9 UNK        -0.5000 
     27 CA         -2.2592  -19.8566  -42.5082 C.3       9 UNK         0.1400 
     28 CB         -2.3582  -19.6088  -40.9956 C.3       9 UNK        -0.1800 
     29 N          -1.6285  -18.7032  -43.1496 N.am      9 UNK        -0.5000 
     30 C          -1.4984  -18.5386  -44.4739 C.2       8 UNK         0.5000 
     31 O          -1.8917  -19.3460  -45.3136 O.2       8 UNK        -0.5000 
     32 CA         -0.7622  -17.2717  -44.9362 C.3       8 UNK         0.1400 
     33 CB         -1.6333  -16.0288  -44.6893 C.3       8 UNK        -0.1800 
     34 N           0.5308  -17.1120  -44.2721 N.am      8 UNK        -0.5000 
     35 C           1.5373  -17.9975  -44.3179 C.2       7 UNK         0.5000 
     36 O           1.5135  -19.0327  -44.9823 O.2       7 UNK        -0.5000 
     37 CA          2.7547  -17.7053  -43.4254 C.3       7 UNK         0.1400 
     38 CB          3.7404  -16.7533  -44.1211 C.3       7 UNK        -0.1800 
     39 N           2.3579  -17.1527  -42.1307 N.am      7 UNK        -0.5000 
     40 C           1.7101  -17.8425  -41.1802 C.2       6 UNK         0.5000 
     41 O           1.4183  -19.0350  -41.2758 O.2       6 UNK        -0.5000 
     42 CA          1.2740  -17.0468  -39.9364 C.3       6 UNK         0.1400 
     43 CB          2.4509  -16.8599  -38.9672 C.3       6 UNK        -0.1800 
     44 N           0.7168  -15.7385  -40.2855 N.am      6 UNK        -0.5000 
     45 C          -0.4341  -15.5654  -40.9505 C.2       5 UNK         0.5000 
     46 O          -1.1740  -16.4923  -41.2787 O.2       5 UNK        -0.5000 
     47 CA         -0.8031  -14.1229  -41.3513 C.3       5 UNK         0.1400 
     48 CB         -1.6652  -13.4677  -40.2625 C.3       5 UNK        -0.1800 
     49 N           0.3535  -13.2663  -41.6333 N.am      5 UNK        -0.5000 
     50 C           1.2567  -13.4871  -42.5975 C.2       4 UNK         0.5000 
     51 O           1.2425  -14.4722  -43.3397 O.2       4 UNK        -0.5000 
     52 CA          2.3993  -12.4699  -42.7044 C.3       4 UNK         0.1400 
     53 CB          3.4239  -12.7005  -41.5754 C.3       4 UNK        -0.1800 
     54 N           3.0462  -12.6146  -44.0047 N.am      4 UNK        -0.5000 
     55 C           3.8881  -11.7356  -44.5616 C.2       3 UNK         0.5000 
     56 O           4.1770  -10.6529  -44.0498 O.2       3 UNK        -0.5000 
     57 CA          4.5413  -12.1276  -45.9010 C.3       3 UNK         0.1400 
     58 CB          5.9622  -12.6613  -45.6587 C.3       3 UNK        -0.1800 
     59 N           3.7825  -13.1403  -46.6360 N.am      3 UNK        -0.5000 
     60 C           2.7572  -12.8790  -47.4567 C.2       2 UNK         0.5000 
     61 O           2.3690  -11.7375  -47.7169 O.2       2 UNK        -0.5000 
     62 CA          2.0828  -14.0953  -48.1350 C.3       2 UNK         0.1400 
     63 CB          2.2649  -15.4195  -47.3535 C.3       2 UNK        -0.1800 
     64 N           0.6587  -13.8958  -48.4302 N.am      2 UNK        -0.5000 
     65 C          -0.3060  -13.6176  -47.5407 C.2       1 UNK         0.5000 
     66 O          -0.0856  -13.3356  -46.3605 O.2       1 UNK        -0.5000 
     67 C          -0.9586  -22.3871  -47.3418 C.2       11 UNK         0.5000 
     68 O          -1.0591  -23.3201  -48.1364 O.2       11 UNK        -0.5000 
     69 N          -2.0080  -21.8334  -46.7185 N.am      12 UNK        -0.5000 
     70 CA         -3.3993  -22.2472  -46.9141 C.3       12 UNK         0.1400 
     71 CB         -4.3262  -21.2896  -46.1508 C.3       12 UNK        -0.1800 
     72 C          -3.6867  -23.7101  -46.5178 C.2       12 UNK         0.5000 
     73 O          -4.6503  -24.2845  -47.0235 O.2       12 UNK        -0.5000 
     74 N          -2.8559  -24.2874  -45.6398 N.am      13 UNK        -0.5000 
     75 CA         -2.8889  -25.7016  -45.2813 C.3       13 UNK         0.1400 
     76 CB         -2.4898  -25.8601  -43.8053 C.3       13 UNK        -0.1800 
     77 C          -1.9680  -26.5326  -46.1932 C.2       13 UNK         0.5000 
     78 O          -2.4003  -27.5606  -46.7154 O.2       13 UNK        -0.5000 
     79 N          -0.7116  -26.0917  -46.3489 N.am      14 UNK        -0.5000 
     80 CA          0.3524  -26.8274  -47.0362 C.3       14 UNK         0.1400 
     81 CB          1.7084  -26.2040  -46.6703 C.3       14 UNK        -0.1800 
     82 C           0.1965  -26.8954  -48.5661 C.2       14 UNK         0.5000 
     83 O           0.5624  -27.9084  -49.1640 O.2       14 UNK        -0.5000 
     84 N          -0.3240  -25.8249  -49.1721 N.am      15 UNK        -0.5000 
     85 CA         -0.5018  -25.6638  -50.6109 C.3       15 UNK         0.1400 
     86 CB          0.6559  -24.8207  -51.1744 C.3       15 UNK        -0.1800 
     87 C          -1.8819  -25.0369  -50.8475 C.2       15 UNK         0.5000 
     88 O          -1.9876  -23.9289  -51.3707 O.2       15 UNK        -0.5000 
     89 N          -2.9184  -25.7669  -50.4176 N.am      16 UNK        -0.5000 
     90 CA         -4.3217  -25.3567  -50.3023 C.3       16 UNK         0.1400 
     91 CB         -5.0614  -26.4441  -49.5019 C.3       16 UNK        -0.1800 
     92 C          -5.0729  -25.0203  -51.6143 C.2       16 UNK         0.5000 
     93 O          -6.3014  -24.9285  -51.5881 O.2       16 UNK        -0.5000 
     94 N          -4.3617  -24.8290  -52.7291 N.am      17 UNK        -0.5000 
     95 CA         -4.9096  -24.4069  -54.0114 C.3       17 UNK         0.1400 
     96 CB         -5.4520  -25.6239  -54.7812 C.3       17 UNK        -0.1800 
     97 C          -3.8207  -23.6907  -54.8205 C.2       17 UNK         0.5000 
     98 O          -2.6589  -24.1012  -54.7781 O.2       17 UNK        -0.5000 
     99 N          -4.2357  -22.6573  -55.5649 N.am      18 UNK        -0.5000 
    100 CA        -3.5167  -21.8805  -56.5847 C.3       18 UNK         0.1400 
    101 CB        -3.1403  -22.7826  -57.7749 C.3       18 UNK        -0.1800 
    102 C         -2.2895  -21.0619  -56.1289 C.2       18 UNK         0.5000 
    103 O         -2.0381  -20.0136  -56.7250 O.2       18 UNK        -0.5000 
    104 N         -1.5470  -21.5318  -55.1178 N.am      19 UNK        -0.5000 
    105 CA        -0.2093  -21.0643  -54.7268 C.3       19 UNK         0.1400 
    106 CB         0.2992  -21.9145  -53.5540 C.3       19 UNK        -0.1800 
    107 C         -0.0632  -19.5578  -54.4266 C.2       19 UNK         0.5000 
    108 O          1.0182  -19.0086  -54.6423 O.2       19 UNK        -0.5000 
    109 N         -1.1442  -18.9098  -53.9805 N.am      20 UNK        -0.5000 
    110 CA        -1.2558  -17.4534  -53.8821 C.3       20 UNK         0.1400 
    111 CB        -0.8483  -16.9740  -52.4763 C.3       20 UNK        -0.1800 
    112 C         -2.6759  -17.0177  -54.2775 C.2       20 UNK         0.5000 
    113 O         -3.2512  -16.1394  -53.6338 O.2       20 UNK        -0.5000 
    114 N         -3.2486  -17.6908  -55.2888 N.am      21 UNK        -0.5000 
    115 CA        -4.6241  -17.5911  -55.8067 C.3       21 UNK         0.1400 
    116 CB        -4.9316  -16.1743  -56.3274 C.3       21 UNK        -0.1800 
    117 C         -5.7195  -18.0780  -54.8316 C.2       21 UNK         0.5000 
    118 O         -6.7274  -18.6199  -55.2858 O.2       21 UNK        -0.5000 
    119 N         -5.4883  -17.9106  -53.5247 N.am      22 UNK        -0.5000 
    120 CA        -6.2992  -18.3884  -52.3924 C.3       22 UNK         0.1400 
    121 C         -7.6309  -17.6096  -52.1691 C.2       22 UNK         0.5000 
    122 N         -7.8404  -16.4599  -52.7988 N.am      22 UNK        -0.7600 
    123 O         -8.4797  -18.0354  -51.3904 O.2       22 UNK        -0.5000 
    124 C124       -6.5080  -19.9305  -52.3783 C.3       23 UNK        -0.0398 
    125 S125       -4.9793  -20.8980  -52.6437 S.3       23 UNK        -0.2404 
    126 C126       -4.5255  -21.4000  -50.9574 C.3       23 UNK        -0.0205 
    127 H127       -4.3355  -12.5158  -45.2499 H         1 UNK         0.0600 
    128 H128       -4.7628  -11.0393  -46.1194 H         1 UNK         0.0600 
    129 H129       -3.4347  -11.0266  -44.9535 H         1 UNK         0.0600 
    130 H130       -3.1972  -13.9513  -46.5099 H         1 UNK         0.3000 
    131 H131       -1.8674  -13.2078  -48.9654 H         1 UNK         0.0600 
    132 H132       -1.6452  -15.9015  -47.5601 H         1 UNK         0.0800 
    133 H133       -1.4392  -15.5697  -49.2564 H         1 UNK         0.0800 
    134 H134       -4.8793  -17.6185  -47.7088 H         1 UNK         0.0800 
    135 H135       -3.3165  -17.4187  -46.9782 H         1 UNK         0.0800 
    136 H136       -5.1829  -19.3442  -49.2905 H         1 UNK         0.1150 
    137 H137       -1.8337  -21.2111  -51.1925 H         1 UNK         0.1150 
    138 H138       -1.2129  -17.8801  -48.5855 H         1 UNK         0.1150 
    139 H139        0.2428  -19.5920  -51.3451 H         1 UNK         0.0800 
    140 H140        0.5927  -18.6049  -49.9527 H         1 UNK         0.0800 
    141 H141        0.1453  -19.8023  -47.5571 H         1 UNK         0.0800 
    142 H142        1.8172  -20.2491  -47.3822 H         1 UNK         0.0800 
    143 H143        1.1499  -22.6667  -47.2357 H         1 UNK         0.0600 
    144 H144        0.7933  -20.7470  -45.2013 H         1 UNK         0.3000 
    145 H145        0.3637  -23.1292  -42.5217 H         1 UNK         0.0600 
    146 H146        2.2546  -21.7440  -41.7351 H         1 UNK         0.0600 
    147 H147        2.4874  -21.0798  -43.3498 H         1 UNK         0.0600 
    148 H148        2.7833  -22.7875  -43.0465 H         1 UNK         0.0600 
    149 H149        0.2777  -20.2838  -42.5125 H         1 UNK         0.3000 
    150 H150       -3.2718  -19.9444  -42.9071 H         1 UNK         0.0600 
    151 H151       -2.8321  -20.4513  -40.4904 H         1 UNK         0.0600 
    152 H152       -2.9553  -18.7224  -40.7806 H         1 UNK         0.0600 
    153 H153       -1.3745  -19.4649  -40.5468 H         1 UNK         0.0600 
    154 H154       -1.2968  -17.9686  -42.5304 H         1 UNK         0.3000 
    155 H155       -0.5680  -17.3590  -46.0065 H         1 UNK         0.0600 
    156 H156       -2.5133  -16.0274  -45.3301 H         1 UNK         0.0600 
    157 H157       -1.0827  -15.1114  -44.8819 H         1 UNK         0.0600 
    158 H158       -1.9963  -15.9802  -43.6648 H         1 UNK         0.0600 
    159 H159        0.6720  -16.2520  -43.7495 H         1 UNK         0.3000 
    160 H160        3.2700  -18.6514  -43.2468 H         1 UNK         0.0600 
    161 H161        3.2989  -15.7763  -44.3131 H         1 UNK         0.0600 
    162 H162        4.0625  -17.1612  -45.0800 H         1 UNK         0.0600 
    163 H163        4.6343  -16.6020  -43.5161 H         1 UNK         0.0600 
    164 H164        2.4995  -16.1624  -41.9996 H         1 UNK         0.3000 
    165 H165        0.4993  -17.6234  -39.4261 H         1 UNK         0.0600 
    166 H166        2.1310  -16.3643  -38.0505 H         1 UNK         0.0600 
    167 H167        2.8780  -17.8226  -38.6830 H         1 UNK         0.0600 
    168 H168        3.2499  -16.2638  -39.4099 H         1 UNK         0.0600 
    169 H169        1.2627  -14.9250  -40.0443 H         1 UNK         0.3000 
    170 H170       -1.3978  -14.1773  -42.2645 H         1 UNK         0.0600 
    171 H171       -1.1140  -13.3495  -39.3288 H         1 UNK         0.0600 
    172 H172       -2.0145  -12.4832  -40.5744 H         1 UNK         0.0600 
    173 H173       -2.5486  -14.0709  -40.0483 H         1 UNK         0.0600 
    174 H174        0.4483  -12.4426  -41.0568 H         1 UNK         0.3000 
    175 H175        1.9765  -11.4663  -42.6256 H         1 UNK         0.0600 
    176 H176        3.8795  -13.6893  -41.6446 H         1 UNK         0.0600 
    177 H177        4.2255  -11.9627  -41.6057 H         1 UNK         0.0600 
    178 H178        2.9569  -12.6212  -40.5932 H         1 UNK         0.0600 
    179 H179        2.7839  -13.4534  -44.5059 H         1 UNK         0.3000 
    180 H180        4.6194  -11.2233  -46.5085 H         1 UNK         0.0600 
    181 H181        6.4643  -12.8883  -46.5994 H         1 UNK         0.0600 
    182 H182        5.9545  -13.5688  -45.0535 H         1 UNK         0.0600 
    183 H183        6.5731  -11.9239  -45.1360 H         1 UNK         0.0600 
    184 H184        4.0578  -14.1008  -46.4941 H         1 UNK         0.3000 
    185 H185        2.5778  -14.2111  -49.1001 H         1 UNK         0.0600 
    186 H186        1.8711  -15.3464  -46.3388 H         1 UNK         0.0600 
    187 H187        1.7448  -16.2410  -47.8468 H         1 UNK         0.0600 
    188 H188        3.3138  -15.7093  -47.2872 H         1 UNK         0.0600 
    189 H189        0.3971  -14.0549  -49.3925 H         1 UNK         0.3000 
    190 H190       -1.8576  -21.0415  -46.0971 H         1 UNK         0.3000 
    191 H191       -3.6185  -22.1567  -47.9794 H         1 UNK         0.0600 
    192 H192       -4.2079  -20.2644  -46.5011 H         1 UNK         0.0600 
    193 H193       -4.1208  -21.3041  -45.0799 H         1 UNK         0.0600 
    194 H194       -5.3732  -21.5607  -46.2912 H         1 UNK         0.0600 
    195 H195       -2.0932  -23.7390  -45.2648 H         1 UNK         0.3000 
    196 H196       -3.9050  -26.0870  -45.3906 H         1 UNK         0.0600 
    197 H197       -3.1774  -25.3203  -43.1539 H         1 UNK         0.0600 
    198 H198       -1.4854  -25.4829  -43.6107 H         1 UNK         0.0600 
    199 H199       -2.5114  -26.9085  -43.5055 H         1 UNK         0.0600 
    200 H200       -0.4268  -25.2389  -45.8722 H         1 UNK         0.3000 
    201 H201        0.3435  -27.8531  -46.6616 H         1 UNK         0.0600 
    202 H202        1.8749  -26.2256  -45.5932 H         1 UNK         0.0600 
    203 H203        1.7731  -25.1657  -46.9980 H         1 UNK         0.0600 
    204 H204        2.5298  -26.7487  -47.1376 H         1 UNK         0.0600 
    205 H205       -0.6209  -25.0238  -48.6149 H         1 UNK         0.3000 
    206 H206       -0.4988  -26.6345  -51.1109 H         1 UNK         0.0600 
    207 H207        0.6721  -23.8198  -50.7409 H         1 UNK         0.0600 
    208 H208        1.6197  -25.2884  -50.9737 H         1 UNK         0.0600 
    209 H209        0.5649  -24.7141  -52.2550 H         1 UNK         0.0600 
    210 H210       -2.7044  -26.6670  -50.0133 H         1 UNK         0.3000 
    211 H211       -4.3321  -24.4415  -49.7085 H         1 UNK         0.0600 
    212 H212       -5.1173  -27.3813  -50.0567 H         1 UNK         0.0600 
    213 H213       -6.0810  -26.1383  -49.2645 H         1 UNK         0.0600 
    214 H214       -4.5636  -26.6447  -48.5526 H         1 UNK         0.0600 
    215 H215       -3.3493  -24.8055  -52.6643 H         1 UNK         0.3000 
    216 H216       -5.7261  -23.7032  -53.8350 H         1 UNK         0.0600 
    217 H217       -5.8476  -25.3272  -55.7534 H         1 UNK         0.0600 
    218 H218       -6.2616  -26.1097  -54.2367 H         1 UNK         0.0600 
    219 H219       -4.6724  -26.3665  -54.9554 H         1 UNK         0.0600 
    220 H220       -5.2043  -22.3882  -55.4619 H         1 UNK         0.3000 
    221 H221       -4.2417  -21.1507  -56.9488 H         1 UNK         0.0600 
    222 H222       -2.6944  -22.2002  -58.5823 H         1 UNK         0.0600 
    223 H223       -2.4189  -23.5492  -57.4898 H         1 UNK         0.0600 
    224 H224       -4.0179  -23.2834  -58.1837 H         1 UNK         0.0600 
    225 H225       -1.8390  -22.4234  -54.7258 H         1 UNK         0.3000 
    226 H226        0.4430  -21.2646  -55.5790 H         1 UNK         0.0600 
    227 H227        0.3919  -22.9598  -53.8471 H         1 UNK         0.0600 
    228 H228        1.2825  -21.5831  -53.2175 H         1 UNK         0.0600 
    229 H229       -0.3728  -21.8693  -52.6992 H         1 UNK         0.0600 
    230 H230       -1.9921  -19.4367  -53.8213 H         1 UNK         0.3000 
    231 H231       -0.5882  -16.9853  -54.6084 H         1 UNK         0.0600 
    232 H232        0.1650  -17.2886  -52.2286 H         1 UNK         0.0600 
    233 H233       -1.5247  -17.3596  -51.7139 H         1 UNK         0.0600 
    234 H234       -0.8707  -15.8857  -52.4117 H         1 UNK         0.0600 
    235 H235       -2.6841  -18.4001  -55.7485 H         1 UNK         0.3000 
    236 H236       -4.6573  -18.2662  -56.6633 H         1 UNK         0.0600 
    237 H237       -4.9549  -15.4376  -55.5243 H         1 UNK         0.0600 
    238 H238       -4.1884  -15.8529  -57.0570 H         1 UNK         0.0600 
    239 H239       -5.9041  -16.1458  -56.8204 H         1 UNK         0.0600 
    240 H240       -4.6606  -17.3785  -53.2758 H         1 UNK         0.3000 
    241 H241       -5.7015  -18.1464  -51.5139 H         1 UNK         0.0600 
    242 H242       -7.1483  -16.0917  -53.4313 H         1 UNK         0.3800 
    243 H243       -8.6993  -15.9559  -52.6426 H         1 UNK         0.3800 
    244 H244       -7.2151  -20.2172  -53.1578 H         1 UNK         0.0800 
    245 H245       -6.9669  -20.2416  -51.4390 H         1 UNK         0.0800 
    246 H246       -5.4136  -21.5753  -50.3490 H         1 UNK         0.0800 
    247 H247       -4.0086  -22.3557  -51.0139 H         1 UNK         0.0800 
@<TRIPOS>BOND
     1    1    2 1    
     2    1  127 1    
     3    1  128 1    
     4    1  129 1    
     5    2    3 2    
     6    2    4 am   BACKBONE|DICT|INTERRES
     7    4    5 1    
     8    4  130 1    
     9    5    6 1    
    10    5   65 1    
    11    5  131 1    
    12    6    7 1    
    13    6  132 1    
    14    6  133 1    
    15    7    8 1    
    16    8    9 1    
    17    8  134 1    
    18    8  135 1    
    19    9   10 ar   
    20    9   14 ar   
    21   10   11 ar   
    22   10  136 1    
    23   11   12 ar   
    24   11  126 1    
    25   12   13 ar   
    26   12  137 1    
    27   13   14 ar   
    28   13   15 1    
    29   14  138 1    
    30   15   16 1    
    31   15  139 1    
    32   15  140 1    
    33   16   17 1    
    34   17   18 1    
    35   17  141 1    
    36   17  142 1    
    37   18   19 1    
    38   18   67 1    
    39   18  143 1    
    40   19   20 am   BACKBONE|DICT|INTERRES
    41   19  144 1    
    42   20   21 2    
    43   20   22 1    
    44   22   23 1    
    45   22   24 1    
    46   22  145 1    
    47   23  146 1    
    48   23  147 1    
    49   23  148 1    
    50   24   25 am   BACKBONE|DICT|INTERRES
    51   24  149 1    
    52   25   26 2    
    53   25   27 1    
    54   27   28 1    
    55   27   29 1    
    56   27  150 1    
    57   28  151 1    
    58   28  152 1    
    59   28  153 1    
    60   29   30 am   BACKBONE|DICT|INTERRES
    61   29  154 1    
    62   30   31 2    
    63   30   32 1    
    64   32   33 1    
    65   32   34 1    
    66   32  155 1    
    67   33  156 1    
    68   33  157 1    
    69   33  158 1    
    70   34   35 am   BACKBONE|DICT|INTERRES
    71   34  159 1    
    72   35   36 2    
    73   35   37 1    
    74   37   38 1    
    75   37   39 1    
    76   37  160 1    
    77   38  161 1    
    78   38  162 1    
    79   38  163 1    
    80   39   40 am   BACKBONE|DICT|INTERRES
    81   39  164 1    
    82   40   41 2    
    83   40   42 1    
    84   42   43 1    
    85   42   44 1    
    86   42  165 1    
    87   43  166 1    
    88   43  167 1    
    89   43  168 1    
    90   44   45 am   BACKBONE|DICT|INTERRES
    91   44  169 1    
    92   45   46 2    
    93   45   47 1    
    94   47   48 1    
    95   47   49 1    
    96   47  170 1    
    97   48  171 1    
    98   48  172 1    
    99   48  173 1    
   100   49   50 am   BACKBONE|DICT|INTERRES
   101   49  174 1    
   102   50   51 2    
   103   50   52 1    
   104   52   53 1    
   105   52   54 1    
   106   52  175 1    
   107   53  176 1    
   108   53  177 1    
   109   53  178 1    
   110   54   55 am   BACKBONE|DICT|INTERRES
   111   54  179 1    
   112   55   56 2    
   113   55   57 1    
   114   57   58 1    
   115   57   59 1    
   116   57  180 1    
   117   58  181 1    
   118   58  182 1    
   119   58  183 1    
   120   59   60 am   BACKBONE|DICT|INTERRES
   121   59  184 1    
   122   60   61 2    
   123   60   62 1    
   124   62   63 1    
   125   62   64 1    
   126   62  185 1    
   127   63  186 1    
   128   63  187 1    
   129   63  188 1    
   130   64   65 am   BACKBONE|DICT|INTERRES
   131   64  189 1    
   132   65   66 2    
   133   67   68 2    
   134   67   69 am   BACKBONE|DICT|INTERRES
   135   69   70 1    
   136   69  190 1    
   137   70   71 1    
   138   70   72 1    
   139   70  191 1    
   140   71  192 1    
   141   71  193 1    
   142   71  194 1    
   143   72   73 2    
   144   72   74 am   BACKBONE|DICT|INTERRES
   145   74   75 1    
   146   74  195 1    
   147   75   76 1    
   148   75   77 1    
   149   75  196 1    
   150   76  197 1    
   151   76  198 1    
   152   76  199 1    
   153   77   78 2    
   154   77   79 am   BACKBONE|DICT|INTERRES
   155   79   80 1    
   156   79  200 1    
   157   80   81 1    
   158   80   82 1    
   159   80  201 1    
   160   81  202 1    
   161   81  203 1    
   162   81  204 1    
   163   82   83 2    
   164   82   84 am   BACKBONE|DICT|INTERRES
   165   84   85 1    
   166   84  205 1    
   167   85   86 1    
   168   85   87 1    
   169   85  206 1    
   170   86  207 1    
   171   86  208 1    
   172   86  209 1    
   173   87   88 2    
   174   87   89 am   BACKBONE|DICT|INTERRES
   175   89   90 1    
   176   89  210 1    
   177   90   91 1    
   178   90   92 1    
   179   90  211 1    
   180   91  212 1    
   181   91  213 1    
   182   91  214 1    
   183   92   93 2    
   184   92   94 am   BACKBONE|DICT|INTERRES
   185   94   95 1    
   186   94  215 1    
   187   95   96 1    
   188   95   97 1    
   189   95  216 1    
   190   96  217 1    
   191   96  218 1    
   192   96  219 1    
   193   97   98 2    
   194   97   99 am   BACKBONE|DICT|INTERRES
   195   99  100 1    
   196   99  220 1    
   197  100  101 1    
   198  100  102 1    
   199  100  221 1    
   200  101  222 1    
   201  101  223 1    
   202  101  224 1    
   203  102  103 2    
   204  102  104 am   BACKBONE|DICT|INTERRES
   205  104  105 1    
   206  104  225 1    
   207  105  106 1    
   208  105  107 1    
   209  105  226 1    
   210  106  227 1    
   211  106  228 1    
   212  106  229 1    
   213  107  108 2    
   214  107  109 am   BACKBONE|DICT|INTERRES
   215  109  110 1    
   216  109  230 1    
   217  110  111 1    
   218  110  112 1    
   219  110  231 1    
   220  111  232 1    
   221  111  233 1    
   222  111  234 1    
   223  112  113 2    
   224  112  114 am   BACKBONE|DICT|INTERRES
   225  114  115 1    
   226  114  235 1    
   227  115  116 1    
   228  115  117 1    
   229  115  236 1    
   230  116  237 1    
   231  116  238 1    
   232  116  239 1    
   233  117  118 2    
   234  117  119 am   BACKBONE|DICT|INTERRES
   235  119  120 1    
   236  119  240 1    
   237  120  121 1    
   238  120  124 1    
   239  120  241 1    
   240  121  122 am   BACKBONE|DICT|INTERRES
   241  121  123 2    
   242  122  242 1    
   243  122  243 1    
   244  124  125 1    
   245  124  244 1    
   246  124  245 1    
   247  125  126 1    
   248  126  246 1    
   249  126  247 1    
@<TRIPOS>SUBSTRUCTURE
     1 UNK         1 GROUP             0       ****    0 ROOT    
