@<TRIPOS>MOLECULE
3R540
247   249    1
SMALL
USER_CHARGES


@<TRIPOS>ATOM
      1 CA         -0.7137   -9.3689  -49.4486 C.3       0 UNK        -0.1800 
      2 C          -0.9875  -10.1302  -48.1597 C.2       0 UNK         0.5000 
      3 O          -1.6252   -9.5915  -47.2555 O.2       0 UNK        -0.5000 
      4 N          -0.4847  -11.3685  -48.0633 N.am      1 UNK        -0.5000 
      5 CA         -0.6437  -12.3422  -46.9676 C.3       1 UNK         0.1400 
      6 C6         -2.1153  -12.7319  -46.6676 C.3       23 UNK        -0.0398 
      7 S7         -2.9304  -13.4984  -48.1074 S.3       23 UNK        -0.2404 
      8 C8         -2.5089  -15.2405  -47.8106 C.3       23 UNK        -0.0205 
      9 C9         -2.8836  -16.1152  -48.9950 C.ar      23 UNK        -0.0193 
     10 C10        -1.9923  -16.2755  -50.0601 C.ar      23 UNK        -0.1150 
     11 C11        -2.3239  -17.0884  -51.1480 C.ar      23 UNK        -0.0193 
     12 C12        -3.5580  -17.7443  -51.1651 C.ar      23 UNK        -0.1150 
     13 C13        -4.4605  -17.5832  -50.1091 C.ar      23 UNK        -0.0193 
     14 C14        -4.1167  -16.7706  -49.0250 C.ar      23 UNK        -0.1150 
     15 C15        -5.8196  -18.2617  -50.1574 C.3       23 UNK        -0.0205 
     16 S16        -5.7058  -20.0425  -49.8195 S.3       23 UNK        -0.2404 
     17 C17        -5.4213  -20.0790  -48.0162 C.3       23 UNK        -0.0398 
     18 CA         -4.6035  -21.3316  -47.6362 C.3       11 UNK         0.1400 
     19 N          -3.2210  -21.2743  -48.1259 N.am      11 UNK        -0.5000 
     20 C          -2.4357  -22.3491  -48.2593 C.2       10 UNK         0.5000 
     21 O          -2.8136  -23.4931  -48.0045 O.2       10 UNK        -0.5000 
     22 CA         -0.9809  -22.1208  -48.7097 C.3       10 UNK         0.1400 
     23 CB         -0.8760  -22.2726  -50.2312 C.3       10 UNK        -0.1800 
     24 N          -0.3838  -20.8407  -48.3128 N.am      10 UNK        -0.5000 
     25 C          -0.2784  -20.3819  -47.0590 C.2       9 UNK         0.5000 
     26 O          -0.8224  -20.9128  -46.0887 O.2       9 UNK        -0.5000 
     27 CA          0.5512  -19.1031  -46.8663 C.3       9 UNK         0.1400 
     28 CB         -0.3092  -17.8616  -47.1218 C.3       9 UNK        -0.1800 
     29 N           1.1031  -19.0418  -45.5137 N.am      9 UNK        -0.5000 
     30 C           2.2109  -19.6932  -45.1302 C.2       8 UNK         0.5000 
     31 O           2.9067  -20.3516  -45.9050 O.2       8 UNK        -0.5000 
     32 CA          2.6355  -19.5999  -43.6509 C.3       8 UNK         0.1400 
     33 CB          3.9995  -18.9049  -43.5071 C.3       8 UNK        -0.1800 
     34 N           1.6490  -18.9169  -42.8095 N.am      8 UNK        -0.5000 
     35 C           0.6365  -19.5502  -42.2008 C.2       7 UNK         0.5000 
     36 O           0.4482  -20.7643  -42.2798 O.2       7 UNK        -0.5000 
     37 CA         -0.3307  -18.7040  -41.3528 C.3       7 UNK         0.1400 
     38 CB          0.1717  -18.6150  -39.9039 C.3       7 UNK        -0.1800 
     39 N          -0.5722  -17.3500  -41.8482 N.am      7 UNK        -0.5000 
     40 C          -1.0810  -17.0040  -43.0360 C.2       6 UNK         0.5000 
     41 O          -1.3271  -17.8141  -43.9270 O.2       6 UNK        -0.5000 
     42 CA         -1.3544  -15.5029  -43.2849 C.3       6 UNK         0.1400 
     43 CB         -2.7395  -15.0928  -42.7550 C.3       6 UNK        -0.1800 
     44 N          -0.3050  -14.5989  -42.7967 N.am      6 UNK        -0.5000 
     45 C           0.1463  -14.4041  -41.5469 C.2       5 UNK         0.5000 
     46 O          -0.4052  -14.8578  -40.5427 O.2       5 UNK        -0.5000 
     47 CA          1.4845  -13.6422  -41.4117 C.3       5 UNK         0.1400 
     48 CB          2.2594  -14.0316  -40.1365 C.3       5 UNK        -0.1800 
     49 N           2.3472  -13.7848  -42.5918 N.am      5 UNK        -0.5000 
     50 C           2.7798  -14.9216  -43.1653 C.2       4 UNK         0.5000 
     51 O           2.5734  -16.0430  -42.6976 O.2       4 UNK        -0.5000 
     52 CA          3.4929  -14.7940  -44.5278 C.3       4 UNK         0.1400 
     53 CB          2.7359  -15.5904  -45.6059 C.3       4 UNK        -0.1800 
     54 N           3.5698  -13.4021  -44.9733 N.am      4 UNK        -0.5000 
     55 C           4.6348  -12.5996  -44.8519 C.2       3 UNK         0.5000 
     56 O           5.7225  -12.9663  -44.4069 O.2       3 UNK        -0.5000 
     57 CA          4.4447  -11.1293  -45.2817 C.3       3 UNK         0.1400 
     58 CB          4.9387  -10.9233  -46.7216 C.3       3 UNK        -0.1800 
     59 N           3.0560  -10.6668  -45.1860 N.am      3 UNK        -0.5000 
     60 C           2.3709  -10.5224  -44.0426 C.2       2 UNK         0.5000 
     61 O           2.8485  -10.7408  -42.9297 O.2       2 UNK        -0.5000 
     62 CA          0.8850  -10.1355  -44.1642 C.3       2 UNK         0.1400 
     63 CB          0.7228   -8.6087  -44.1507 C.3       2 UNK        -0.1800 
     64 N           0.2270  -10.6772  -45.3563 N.am      2 UNK        -0.5000 
     65 C           0.0987  -11.9736  -45.6655 C.2       1 UNK         0.5000 
     66 O           0.5694  -12.8799  -44.9765 O.2       1 UNK        -0.5000 
     67 C          -4.7102  -21.6864  -46.1368 C.2       11 UNK         0.5000 
     68 O          -5.7748  -22.1341  -45.7093 O.2       11 UNK        -0.5000 
     69 N          -3.6138  -21.5388  -45.3822 N.am      12 UNK        -0.5000 
     70 CA         -3.4896  -21.9988  -44.0025 C.3       12 UNK         0.1400 
     71 CB         -2.9474  -20.8519  -43.1373 C.3       12 UNK        -0.1800 
     72 C          -2.5696  -23.2289  -43.9282 C.2       12 UNK         0.5000 
     73 O          -2.9623  -24.2478  -43.3601 O.2       12 UNK        -0.5000 
     74 N          -1.3688  -23.1197  -44.5119 N.am      13 UNK        -0.5000 
     75 CA         -0.2825  -24.0944  -44.3981 C.3       13 UNK         0.1400 
     76 CB          1.0215  -23.4482  -44.8903 C.3       13 UNK        -0.1800 
     77 C          -0.5343  -25.4176  -45.1417 C.2       13 UNK         0.5000 
     78 O          -0.0695  -26.4609  -44.6808 O.2       13 UNK        -0.5000 
     79 N          -1.2561  -25.3562  -46.2673 N.am      14 UNK        -0.5000 
     80 CA         -1.6096  -26.5070  -47.1026 C.3       14 UNK         0.1400 
     81 CB         -1.0041  -26.3146  -48.5063 C.3       14 UNK        -0.1800 
     82 C          -3.1351  -26.7047  -47.1672 C.2       14 UNK         0.5000 
     83 O          -3.6102  -27.4464  -48.0267 O.2       14 UNK        -0.5000 
     84 N          -3.8838  -26.0165  -46.2895 N.am      15 UNK        -0.5000 
     85 CA         -5.3480  -26.0271  -46.1715 C.3       15 UNK         0.1400 
     86 CB         -5.8188  -27.3666  -45.5688 C.3       15 UNK        -0.1800 
     87 C          -6.0841  -25.6746  -47.4854 C.2       15 UNK         0.5000 
     88 O          -7.1744  -26.1895  -47.7375 O.2       15 UNK        -0.5000 
     89 N          -5.4561  -24.8164  -48.3031 N.am      16 UNK        -0.5000 
     90 CA         -5.8958  -24.3467  -49.6211 C.3       16 UNK         0.1400 
     91 CB         -7.2728  -23.6514  -49.5515 C.3       16 UNK        -0.1800 
     92 C          -5.8195  -25.4072  -50.7371 C.2       16 UNK         0.5000 
     93 O          -6.3246  -25.1579  -51.8323 O.2       16 UNK        -0.5000 
     94 N          -5.1343  -26.5360  -50.4949 N.am      17 UNK        -0.5000 
     95 CA         -4.8575  -27.5543  -51.5154 C.3       17 UNK         0.1400 
     96 CB         -4.3663  -28.8415  -50.8368 C.3       17 UNK        -0.1800 
     97 C          -3.8361  -27.0805  -52.5705 C.2       17 UNK         0.5000 
     98 O          -3.8236  -27.6088  -53.6826 O.2       17 UNK        -0.5000 
     99 N          -3.0147  -26.0880  -52.2038 N.am      18 UNK        -0.5000 
    100 CA        -1.9981  -25.4585  -53.0446 C.3       18 UNK         0.1400 
    101 CB        -0.6085  -25.7607  -52.4539 C.3       18 UNK        -0.1800 
    102 C         -2.2568  -23.9457  -53.1895 C.2       18 UNK         0.5000 
    103 O         -1.3097  -23.1817  -53.3712 O.2       18 UNK        -0.5000 
    104 N         -3.5291  -23.5200  -53.1147 N.am      19 UNK        -0.5000 
    105 CA        -3.9606  -22.1142  -53.1956 C.3       19 UNK         0.1400 
    106 CB        -5.4780  -22.0373  -52.9778 C.3       19 UNK        -0.1800 
    107 C         -3.5725  -21.3909  -54.5039 C.2       19 UNK         0.5000 
    108 O         -3.4824  -20.1635  -54.5164 O.2       19 UNK        -0.5000 
    109 N         -3.3023  -22.1667  -55.5633 N.am      20 UNK        -0.5000 
    110 CA        -2.7771  -21.7229  -56.8568 C.3       20 UNK         0.1400 
    111 CB        -2.8944  -22.8892  -57.8518 C.3       20 UNK        -0.1800 
    112 C         -1.3278  -21.1836  -56.8129 C.2       20 UNK         0.5000 
    113 O         -0.8352  -20.7153  -57.8401 O.2       20 UNK        -0.5000 
    114 N         -0.6673  -21.2431  -55.6452 N.am      21 UNK        -0.5000 
    115 CA         0.6617  -20.6860  -55.3734 C.3       21 UNK         0.1400 
    116 CB         1.0857  -21.0838  -53.9502 C.3       21 UNK        -0.1800 
    117 C          0.7757  -19.1561  -55.5557 C.2       21 UNK         0.5000 
    118 O          1.8946  -18.6536  -55.6734 O.2       21 UNK        -0.5000 
    119 N         -0.3563  -18.4439  -55.5927 N.am      22 UNK        -0.5000 
    120 CA        -0.4422  -17.0216  -55.9399 C.3       22 UNK         0.1400 
    121 C         -1.6841  -16.7197  -56.8262 C.2       22 UNK         0.5000 
    122 N         -1.7865  -15.5144  -57.3709 N.am      22 UNK        -0.7600 
    123 O         -2.5545  -17.5630  -57.0348 O.2       22 UNK        -0.5000 
    124 C124       -0.2998  -16.1045  -54.6940 C.3       23 UNK        -0.0398 
    125 S125       -1.7682  -16.0197  -53.6094 S.3       23 UNK        -0.2404 
    126 C126       -1.3619  -17.2298  -52.3163 C.3       23 UNK        -0.0205 
    127 H127       -0.1284   -9.9602  -50.1531 H         1 UNK         0.0600 
    128 H128       -0.1638   -8.4526  -49.2337 H         1 UNK         0.0600 
    129 H129       -1.6535   -9.0989  -49.9302 H         1 UNK         0.0600 
    130 H130        0.0489  -11.7181  -48.8471 H         1 UNK         0.3000 
    131 H131       -0.1406  -13.2417  -47.3260 H         1 UNK         0.0600 
    132 H132       -2.1730  -13.4268  -45.8276 H         1 UNK         0.0800 
    133 H133       -2.6952  -11.8581  -46.3677 H         1 UNK         0.0800 
    134 H134       -3.0094  -15.5907  -46.9063 H         1 UNK         0.0800 
    135 H135       -1.4384  -15.3206  -47.6225 H         1 UNK         0.0800 
    136 H136       -1.0428  -15.7591  -50.0454 H         1 UNK         0.1150 
    137 H137       -3.8239  -18.3656  -52.0096 H         1 UNK         0.1150 
    138 H138       -4.8121  -16.6392  -48.2080 H         1 UNK         0.1150 
    139 H139       -6.5144  -17.8000  -49.4540 H         1 UNK         0.0800 
    140 H140       -6.2527  -18.1213  -51.1488 H         1 UNK         0.0800 
    141 H141       -6.3994  -20.0838  -47.5316 H         1 UNK         0.0800 
    142 H142       -4.9129  -19.1734  -47.6844 H         1 UNK         0.0800 
    143 H143       -5.0820  -22.1674  -48.1387 H         1 UNK         0.0600 
    144 H144       -2.8521  -20.3637  -48.3568 H         1 UNK         0.3000 
    145 H145       -0.3816  -22.9093  -48.2501 H         1 UNK         0.0600 
    146 H146        0.1612  -22.2492  -50.5661 H         1 UNK         0.0600 
    147 H147       -1.2940  -23.2274  -50.5476 H         1 UNK         0.0600 
    148 H148       -1.4180  -21.4853  -50.7569 H         1 UNK         0.0600 
    149 H149        0.0690  -20.3227  -49.0517 H         1 UNK         0.3000 
    150 H150        1.3732  -19.1025  -47.5854 H         1 UNK         0.0600 
    151 H151       -0.6143  -17.8216  -48.1667 H         1 UNK         0.0600 
    152 H152        0.2425  -16.9468  -46.9072 H         1 UNK         0.0600 
    153 H153       -1.2168  -17.8613  -46.5181 H         1 UNK         0.0600 
    154 H154        0.5193  -18.6063  -44.8101 H         1 UNK         0.3000 
    155 H155        2.7627  -20.6247  -43.2955 H         1 UNK         0.0600 
    156 H156        3.9939  -17.9000  -43.9250 H         1 UNK         0.0600 
    157 H157        4.7782  -19.4656  -44.0255 H         1 UNK         0.0600 
    158 H158        4.2966  -18.8305  -42.4609 H         1 UNK         0.0600 
    159 H159        1.7622  -17.9139  -42.6926 H         1 UNK         0.3000 
    160 H160       -1.2926  -19.2189  -41.3456 H         1 UNK         0.0600 
    161 H161        1.1113  -18.0644  -39.8398 H         1 UNK         0.0600 
    162 H162        0.3416  -19.6080  -39.4853 H         1 UNK         0.0600 
    163 H163       -0.5547  -18.1131  -39.2643 H         1 UNK         0.0600 
    164 H164       -0.4122  -16.5931  -41.1888 H         1 UNK         0.3000 
    165 H165       -1.3670  -15.3715  -44.3681 H         1 UNK         0.0600 
    166 H166       -2.8131  -15.2067  -41.6732 H         1 UNK         0.0600 
    167 H167       -2.9621  -14.0542  -42.9995 H         1 UNK         0.0600 
    168 H168       -3.5226  -15.7074  -43.2009 H         1 UNK         0.0600 
    169 H169        0.2158  -14.1339  -43.5353 H         1 UNK         0.3000 
    170 H170        1.2289  -12.5843  -41.3403 H         1 UNK         0.0600 
    171 H171        1.6810  -13.8050  -39.2402 H         1 UNK         0.0600 
    172 H172        2.4930  -15.0967  -40.1154 H         1 UNK         0.0600 
    173 H173        3.1973  -13.4811  -40.0629 H         1 UNK         0.0600 
    174 H174        2.5818  -12.9140  -43.0502 H         1 UNK         0.3000 
    175 H175        4.4929  -15.2182  -44.4193 H         1 UNK         0.0600 
    176 H176        1.7168  -15.2254  -45.7362 H         1 UNK         0.0600 
    177 H177        3.2400  -15.5257  -46.5701 H         1 UNK         0.0600 
    178 H178        2.6693  -16.6463  -45.3494 H         1 UNK         0.0600 
    179 H179        2.7022  -13.0068  -45.3133 H         1 UNK         0.3000 
    180 H180        5.0533  -10.5116  -44.6180 H         1 UNK         0.0600 
    181 H181        4.3519  -11.5029  -47.4354 H         1 UNK         0.0600 
    182 H182        5.9799  -11.2319  -46.8254 H         1 UNK         0.0600 
    183 H183        4.8821   -9.8741  -47.0122 H         1 UNK         0.0600 
    184 H184        2.5811  -10.4701  -46.0549 H         1 UNK         0.3000 
    185 H185        0.3694  -10.5427  -43.2920 H         1 UNK         0.0600 
    186 H186        1.1896   -8.1470  -45.0218 H         1 UNK         0.0600 
    187 H187       -0.3297   -8.3244  -44.1446 H         1 UNK         0.0600 
    188 H188        1.1814   -8.1737  -43.2616 H         1 UNK         0.0600 
    189 H189       -0.2445  -10.0131  -45.9627 H         1 UNK         0.3000 
    190 H190       -2.7626  -21.1904  -45.8115 H         1 UNK         0.3000 
    191 H191       -4.4613  -22.2890  -43.5976 H         1 UNK         0.0600 
    192 H192       -2.7816  -21.1780  -42.1098 H         1 UNK         0.0600 
    193 H193       -3.6466  -20.0163  -43.1080 H         1 UNK         0.0600 
    194 H194       -2.0000  -20.4747  -43.5226 H         1 UNK         0.0600 
    195 H195       -1.1325  -22.2476  -44.9831 H         1 UNK         0.3000 
    196 H196       -0.1611  -24.3320  -43.3391 H         1 UNK         0.0600 
    197 H197        0.9603  -23.1649  -45.9416 H         1 UNK         0.0600 
    198 H198        1.2553  -22.5519  -44.3162 H         1 UNK         0.0600 
    199 H199        1.8644  -24.1318  -44.7819 H         1 UNK         0.0600 
    200 H200       -1.6263  -24.4647  -46.5744 H         1 UNK         0.3000 
    201 H201       -1.1999  -27.4283  -46.6845 H         1 UNK         0.0600 
    202 H202       -1.4361  -25.4586  -49.0232 H         1 UNK         0.0600 
    203 H203       -1.1745  -27.1917  -49.1319 H         1 UNK         0.0600 
    204 H204        0.0739  -26.1627  -48.4523 H         1 UNK         0.0600 
    205 H205       -3.3965  -25.4392  -45.6186 H         1 UNK         0.3000 
    206 H206       -5.6022  -25.2365  -45.4638 H         1 UNK         0.0600 
    207 H207       -5.3016  -27.5808  -44.6335 H         1 UNK         0.0600 
    208 H208       -6.8867  -27.3458  -45.3488 H         1 UNK         0.0600 
    209 H209       -5.6398  -28.1995  -46.2496 H         1 UNK         0.0600 
    210 H210       -4.5387  -24.4856  -48.0174 H         1 UNK         0.3000 
    211 H211       -5.1676  -23.5897  -49.9137 H         1 UNK         0.0600 
    212 H212       -7.4960  -23.1279  -50.4814 H         1 UNK         0.0600 
    213 H213       -7.3069  -22.9120  -48.7516 H         1 UNK         0.0600 
    214 H214       -8.0805  -24.3637  -49.3839 H         1 UNK         0.0600 
    215 H215       -4.7431  -26.7004  -49.5725 H         1 UNK         0.3000 
    216 H216       -5.7913  -27.7803  -52.0345 H         1 UNK         0.0600 
    217 H217       -3.3946  -28.7008  -50.3623 H         1 UNK         0.0600 
    218 H218       -4.2599  -29.6478  -51.5634 H         1 UNK         0.0600 
    219 H219       -5.0675  -29.1804  -50.0739 H         1 UNK         0.0600 
    220 H220       -3.1093  -25.7214  -51.2681 H         1 UNK         0.3000 
    221 H221       -2.0306  -25.8700  -54.0551 H         1 UNK         0.0600 
    222 H222       -0.4402  -26.8350  -52.3776 H         1 UNK         0.0600 
    223 H223       -0.4904  -25.3339  -51.4579 H         1 UNK         0.0600 
    224 H224        0.1851  -25.3547  -53.0825 H         1 UNK         0.0600 
    225 H225       -4.2601  -24.2070  -52.9894 H         1 UNK         0.3000 
    226 H226       -3.4748  -21.5751  -52.3796 H         1 UNK         0.0600 
    227 H227       -6.0227  -22.6264  -53.7164 H         1 UNK         0.0600 
    228 H228       -5.7505  -22.4010  -51.9891 H         1 UNK         0.0600 
    229 H229       -5.8341  -21.0083  -53.0468 H         1 UNK         0.0600 
    230 H230       -3.4020  -23.1637  -55.4451 H         1 UNK         0.3000 
    231 H231       -3.4082  -20.9052  -57.2108 H         1 UNK         0.0600 
    232 H232       -2.2848  -23.7403  -57.5457 H         1 UNK         0.0600 
    233 H233       -2.5656  -22.5915  -58.8483 H         1 UNK         0.0600 
    234 H234       -3.9263  -23.2292  -57.9426 H         1 UNK         0.0600 
    235 H235       -1.1164  -21.7057  -54.8630 H         1 UNK         0.3000 
    236 H236        1.3592  -21.1434  -56.0776 H         1 UNK         0.0600 
    237 H237        1.1544  -22.1669  -53.8483 H         1 UNK         0.0600 
    238 H238        2.0659  -20.6757  -53.7003 H         1 UNK         0.0600 
    239 H239        0.3772  -20.7209  -53.2043 H         1 UNK         0.0600 
    240 H240       -1.2465  -18.9210  -55.5281 H         1 UNK         0.3000 
    241 H241        0.4040  -16.8029  -56.5945 H         1 UNK         0.0600 
    242 H242       -2.5872  -15.3075  -57.9476 H         1 UNK         0.3800 
    243 H243       -1.0887  -14.8018  -57.2233 H         1 UNK         0.3800 
    244 H244       -0.0860  -15.0860  -55.0203 H         1 UNK         0.0800 
    245 H245        0.5711  -16.4014  -54.1085 H         1 UNK         0.0800 
    246 H246       -0.3359  -17.0817  -51.9760 H         1 UNK         0.0800 
    247 H247       -1.4133  -18.2381  -52.7308 H         1 UNK         0.0800 
@<TRIPOS>BOND
     1    1    2 1    
     2    1  127 1    
     3    1  128 1    
     4    1  129 1    
     5    2    3 2    
     6    2    4 am   BACKBONE|DICT|INTERRES
     7    4    5 1    
     8    4  130 1    
     9    5    6 1    
    10    5   65 1    
    11    5  131 1    
    12    6    7 1    
    13    6  132 1    
    14    6  133 1    
    15    7    8 1    
    16    8    9 1    
    17    8  134 1    
    18    8  135 1    
    19    9   10 ar   
    20    9   14 ar   
    21   10   11 ar   
    22   10  136 1    
    23   11   12 ar   
    24   11  126 1    
    25   12   13 ar   
    26   12  137 1    
    27   13   14 ar   
    28   13   15 1    
    29   14  138 1    
    30   15   16 1    
    31   15  139 1    
    32   15  140 1    
    33   16   17 1    
    34   17   18 1    
    35   17  141 1    
    36   17  142 1    
    37   18   19 1    
    38   18   67 1    
    39   18  143 1    
    40   19   20 am   BACKBONE|DICT|INTERRES
    41   19  144 1    
    42   20   21 2    
    43   20   22 1    
    44   22   23 1    
    45   22   24 1    
    46   22  145 1    
    47   23  146 1    
    48   23  147 1    
    49   23  148 1    
    50   24   25 am   BACKBONE|DICT|INTERRES
    51   24  149 1    
    52   25   26 2    
    53   25   27 1    
    54   27   28 1    
    55   27   29 1    
    56   27  150 1    
    57   28  151 1    
    58   28  152 1    
    59   28  153 1    
    60   29   30 am   BACKBONE|DICT|INTERRES
    61   29  154 1    
    62   30   31 2    
    63   30   32 1    
    64   32   33 1    
    65   32   34 1    
    66   32  155 1    
    67   33  156 1    
    68   33  157 1    
    69   33  158 1    
    70   34   35 am   BACKBONE|DICT|INTERRES
    71   34  159 1    
    72   35   36 2    
    73   35   37 1    
    74   37   38 1    
    75   37   39 1    
    76   37  160 1    
    77   38  161 1    
    78   38  162 1    
    79   38  163 1    
    80   39   40 am   BACKBONE|DICT|INTERRES
    81   39  164 1    
    82   40   41 2    
    83   40   42 1    
    84   42   43 1    
    85   42   44 1    
    86   42  165 1    
    87   43  166 1    
    88   43  167 1    
    89   43  168 1    
    90   44   45 am   BACKBONE|DICT|INTERRES
    91   44  169 1    
    92   45   46 2    
    93   45   47 1    
    94   47   48 1    
    95   47   49 1    
    96   47  170 1    
    97   48  171 1    
    98   48  172 1    
    99   48  173 1    
   100   49   50 am   BACKBONE|DICT|INTERRES
   101   49  174 1    
   102   50   51 2    
   103   50   52 1    
   104   52   53 1    
   105   52   54 1    
   106   52  175 1    
   107   53  176 1    
   108   53  177 1    
   109   53  178 1    
   110   54   55 am   BACKBONE|DICT|INTERRES
   111   54  179 1    
   112   55   56 2    
   113   55   57 1    
   114   57   58 1    
   115   57   59 1    
   116   57  180 1    
   117   58  181 1    
   118   58  182 1    
   119   58  183 1    
   120   59   60 am   BACKBONE|DICT|INTERRES
   121   59  184 1    
   122   60   61 2    
   123   60   62 1    
   124   62   63 1    
   125   62   64 1    
   126   62  185 1    
   127   63  186 1    
   128   63  187 1    
   129   63  188 1    
   130   64   65 am   BACKBONE|DICT|INTERRES
   131   64  189 1    
   132   65   66 2    
   133   67   68 2    
   134   67   69 am   BACKBONE|DICT|INTERRES
   135   69   70 1    
   136   69  190 1    
   137   70   71 1    
   138   70   72 1    
   139   70  191 1    
   140   71  192 1    
   141   71  193 1    
   142   71  194 1    
   143   72   73 2    
   144   72   74 am   BACKBONE|DICT|INTERRES
   145   74   75 1    
   146   74  195 1    
   147   75   76 1    
   148   75   77 1    
   149   75  196 1    
   150   76  197 1    
   151   76  198 1    
   152   76  199 1    
   153   77   78 2    
   154   77   79 am   BACKBONE|DICT|INTERRES
   155   79   80 1    
   156   79  200 1    
   157   80   81 1    
   158   80   82 1    
   159   80  201 1    
   160   81  202 1    
   161   81  203 1    
   162   81  204 1    
   163   82   83 2    
   164   82   84 am   BACKBONE|DICT|INTERRES
   165   84   85 1    
   166   84  205 1    
   167   85   86 1    
   168   85   87 1    
   169   85  206 1    
   170   86  207 1    
   171   86  208 1    
   172   86  209 1    
   173   87   88 2    
   174   87   89 am   BACKBONE|DICT|INTERRES
   175   89   90 1    
   176   89  210 1    
   177   90   91 1    
   178   90   92 1    
   179   90  211 1    
   180   91  212 1    
   181   91  213 1    
   182   91  214 1    
   183   92   93 2    
   184   92   94 am   BACKBONE|DICT|INTERRES
   185   94   95 1    
   186   94  215 1    
   187   95   96 1    
   188   95   97 1    
   189   95  216 1    
   190   96  217 1    
   191   96  218 1    
   192   96  219 1    
   193   97   98 2    
   194   97   99 am   BACKBONE|DICT|INTERRES
   195   99  100 1    
   196   99  220 1    
   197  100  101 1    
   198  100  102 1    
   199  100  221 1    
   200  101  222 1    
   201  101  223 1    
   202  101  224 1    
   203  102  103 2    
   204  102  104 am   BACKBONE|DICT|INTERRES
   205  104  105 1    
   206  104  225 1    
   207  105  106 1    
   208  105  107 1    
   209  105  226 1    
   210  106  227 1    
   211  106  228 1    
   212  106  229 1    
   213  107  108 2    
   214  107  109 am   BACKBONE|DICT|INTERRES
   215  109  110 1    
   216  109  230 1    
   217  110  111 1    
   218  110  112 1    
   219  110  231 1    
   220  111  232 1    
   221  111  233 1    
   222  111  234 1    
   223  112  113 2    
   224  112  114 am   BACKBONE|DICT|INTERRES
   225  114  115 1    
   226  114  235 1    
   227  115  116 1    
   228  115  117 1    
   229  115  236 1    
   230  116  237 1    
   231  116  238 1    
   232  116  239 1    
   233  117  118 2    
   234  117  119 am   BACKBONE|DICT|INTERRES
   235  119  120 1    
   236  119  240 1    
   237  120  121 1    
   238  120  124 1    
   239  120  241 1    
   240  121  122 am   BACKBONE|DICT|INTERRES
   241  121  123 2    
   242  122  242 1    
   243  122  243 1    
   244  124  125 1    
   245  124  244 1    
   246  124  245 1    
   247  125  126 1    
   248  126  246 1    
   249  126  247 1    
@<TRIPOS>SUBSTRUCTURE
     1 UNK         1 GROUP             0       ****    0 ROOT    
