@<TRIPOS>MOLECULE
3R540
247   249    1
SMALL
USER_CHARGES


@<TRIPOS>ATOM
      1 CA          0.4218  -10.4542  -47.4039 C.3       0 UNK        -0.1800 
      2 C          -0.8333  -10.7975  -46.6045 C.2       0 UNK         0.5000 
      3 O          -0.9096  -10.4608  -45.4250 O.2       0 UNK        -0.5000 
      4 N          -1.8390  -11.4629  -47.1904 N.am      1 UNK        -0.5000 
      5 CA         -1.8900  -11.9581  -48.5742 C.3       1 UNK         0.1400 
      6 C6         -3.3563  -12.0511  -49.0751 C.3       23 UNK        -0.0398 
      7 S7         -4.3446  -13.3877  -48.3024 S.3       23 UNK        -0.2404 
      8 C8         -4.5074  -14.5389  -49.7049 C.3       23 UNK        -0.0205 
      9 C9         -4.5038  -15.9901  -49.2550 C.ar      23 UNK        -0.0193 
     10 C10        -5.7006  -16.6256  -48.9123 C.ar      23 UNK        -0.1150 
     11 C11        -5.7105  -17.9868  -48.5942 C.ar      23 UNK        -0.0193 
     12 C12        -4.5095  -18.6979  -48.5777 C.ar      23 UNK        -0.1150 
     13 C13        -3.3018  -18.0685  -48.8897 C.ar      23 UNK        -0.0193 
     14 C14        -3.3073  -16.7148  -49.2371 C.ar      23 UNK        -0.1150 
     15 C15        -2.0067  -18.8686  -48.9047 C.3       23 UNK        -0.0205 
     16 S16        -1.0445  -18.7397  -47.3591 S.3       23 UNK        -0.2404 
     17 C17        -2.2028  -19.3216  -46.0724 C.3       23 UNK        -0.0398 
     18 CA         -2.0681  -20.8242  -45.7229 C.3       11 UNK         0.1400 
     19 N          -2.4657  -21.0675  -44.3256 N.am      11 UNK        -0.5000 
     20 C          -2.4494  -22.2434  -43.6819 C.2       10 UNK         0.5000 
     21 O          -2.2712  -23.3239  -44.2441 O.2       10 UNK        -0.5000 
     22 CA         -2.6349  -22.1951  -42.1572 C.3       10 UNK         0.1400 
     23 CB         -2.3365  -23.5489  -41.4791 C.3       10 UNK        -0.1800 
     24 N          -1.7900  -21.1469  -41.5842 N.am      10 UNK        -0.5000 
     25 C          -2.0115  -20.5480  -40.4058 C.2       9 UNK         0.5000 
     26 O          -2.9817  -20.7995  -39.6895 O.2       9 UNK        -0.5000 
     27 CA         -0.9884  -19.4950  -39.9283 C.3       9 UNK         0.1400 
     28 CB          0.0143  -20.1299  -38.9524 C.3       9 UNK        -0.1800 
     29 N          -0.2430  -18.8466  -41.0067 N.am      9 UNK        -0.5000 
     30 C          -0.7735  -18.0548  -41.9472 C.2       8 UNK         0.5000 
     31 O          -1.9642  -17.7444  -41.9874 O.2       8 UNK        -0.5000 
     32 CA          0.1771  -17.5354  -43.0441 C.3       8 UNK         0.1400 
     33 CB          0.6838  -16.1346  -42.6672 C.3       8 UNK        -0.1800 
     34 N           1.3322  -18.3860  -43.3575 N.am      8 UNK        -0.5000 
     35 C           1.3283  -19.7026  -43.6164 C.2       7 UNK         0.5000 
     36 O           0.3376  -20.4218  -43.5134 O.2       7 UNK        -0.5000 
     37 CA          2.6624  -20.3336  -44.0424 C.3       7 UNK         0.1400 
     38 CB          2.7989  -20.3130  -45.5729 C.3       7 UNK        -0.1800 
     39 N           3.8124  -19.6685  -43.4303 N.am      7 UNK        -0.5000 
     40 C           4.2167  -19.8734  -42.1679 C.2       6 UNK         0.5000 
     41 O           3.6753  -20.6661  -41.3968 O.2       6 UNK        -0.5000 
     42 CA          5.4256  -19.0511  -41.6818 C.3       6 UNK         0.1400 
     43 CB          6.7366  -19.7923  -41.9853 C.3       6 UNK        -0.1800 
     44 N           5.4772  -17.7203  -42.2872 N.am      6 UNK        -0.5000 
     45 C           4.6538  -16.7110  -41.9706 C.2       5 UNK         0.5000 
     46 O           3.8139  -16.7700  -41.0731 O.2       5 UNK        -0.5000 
     47 CA          4.7683  -15.4323  -42.8243 C.3       5 UNK         0.1400 
     48 CB          5.7358  -14.4333  -42.1721 C.3       5 UNK        -0.1800 
     49 N           5.1973  -15.6906  -44.2037 N.am      5 UNK        -0.5000 
     50 C           4.4848  -16.3870  -45.0976 C.2       4 UNK         0.5000 
     51 O           3.3880  -16.8962  -44.8516 O.2       4 UNK        -0.5000 
     52 CA          5.1247  -16.6050  -46.4725 C.3       4 UNK         0.1400 
     53 CB          6.0539  -17.8323  -46.4491 C.3       4 UNK        -0.1800 
     54 N           4.0525  -16.8060  -47.4371 N.am      4 UNK        -0.5000 
     55 C           4.1417  -16.6476  -48.7618 C.2       3 UNK         0.5000 
     56 O           5.1858  -16.3617  -49.3492 O.2       3 UNK        -0.5000 
     57 CA          2.8402  -16.8264  -49.5694 C.3       3 UNK         0.1400 
     58 CB          2.7270  -18.2676  -50.0890 C.3       3 UNK        -0.1800 
     59 N           1.6305  -16.5042  -48.8080 N.am      3 UNK        -0.5000 
     60 C           1.2949  -15.2781  -48.3857 C.2       2 UNK         0.5000 
     61 O           1.9794  -14.2691  -48.5724 O.2       2 UNK        -0.5000 
     62 CA         -0.0105  -15.1926  -47.5756 C.3       2 UNK         0.1400 
     63 CB          0.2658  -15.5075  -46.0992 C.3       2 UNK        -0.1800 
     64 N          -0.6824  -13.8978  -47.6541 N.am      2 UNK        -0.5000 
     65 C          -1.1246  -13.2913  -48.7655 C.2       1 UNK         0.5000 
     66 O          -0.9838  -13.7484  -49.9005 O.2       1 UNK        -0.5000 
     67 C          -2.7944  -21.7184  -46.7537 C.2       11 UNK         0.5000 
     68 O          -2.1851  -22.1476  -47.7367 O.2       11 UNK        -0.5000 
     69 N          -4.0668  -22.0366  -46.4772 N.am      12 UNK        -0.5000 
     70 CA         -4.9051  -22.9473  -47.2605 C.3       12 UNK         0.1400 
     71 CB         -6.3239  -22.9455  -46.6741 C.3       12 UNK        -0.1800 
     72 C          -4.3597  -24.3885  -47.3597 C.2       12 UNK         0.5000 
     73 O          -4.6777  -25.0807  -48.3263 O.2       12 UNK        -0.5000 
     74 N          -3.5435  -24.8048  -46.3829 N.am      13 UNK        -0.5000 
     75 CA         -2.8642  -26.0973  -46.3509 C.3       13 UNK         0.1400 
     76 CB         -3.1495  -26.7833  -45.0052 C.3       13 UNK        -0.1800 
     77 C          -1.3513  -25.9249  -46.5592 C.2       13 UNK         0.5000 
     78 O          -0.7701  -26.6348  -47.3789 O.2       13 UNK        -0.5000 
     79 N          -0.7416  -24.9799  -45.8296 N.am      14 UNK        -0.5000 
     80 CA          0.7048  -24.7579  -45.7626 C.3       14 UNK         0.1400 
     81 CB          1.0109  -23.7657  -44.6315 C.3       14 UNK        -0.1800 
     82 C           1.3262  -24.2743  -47.0836 C.2       14 UNK         0.5000 
     83 O           2.4347  -24.6946  -47.4165 O.2       14 UNK        -0.5000 
     84 N           0.5955  -23.4257  -47.8166 N.am      15 UNK        -0.5000 
     85 CA          0.9556  -22.9620  -49.1585 C.3       15 UNK         0.1400 
     86 CB          0.9229  -21.4256  -49.1785 C.3       15 UNK        -0.1800 
     87 C           0.0046  -23.5447  -50.2201 C.2       15 UNK         0.5000 
     88 O           0.0545  -23.1169  -51.3734 O.2       15 UNK        -0.5000 
     89 N          -0.8735  -24.4753  -49.8122 N.am      16 UNK        -0.5000 
     90 CA         -1.9322  -25.1108  -50.6041 C.3       16 UNK         0.1400 
     91 CB         -1.3177  -26.0826  -51.6324 C.3       16 UNK        -0.1800 
     92 C          -2.9029  -24.0920  -51.2429 C.2       16 UNK         0.5000 
     93 O          -3.3551  -24.3017  -52.3689 O.2       16 UNK        -0.5000 
     94 N          -3.1660  -22.9906  -50.5188 N.am      17 UNK        -0.5000 
     95 CA         -3.9648  -21.8227  -50.9152 C.3       17 UNK         0.1400 
     96 CB         -5.3944  -22.2278  -51.3312 C.3       17 UNK        -0.1800 
     97 C          -3.2850  -20.9095  -51.9581 C.2       17 UNK         0.5000 
     98 O          -3.9174  -19.9586  -52.4237 O.2       17 UNK        -0.5000 
     99 N          -2.0128  -21.1910  -52.2829 N.am      18 UNK        -0.5000 
    100 CA        -1.1749  -20.5473  -53.2983 C.3       18 UNK         0.1400 
    101 CB        -0.9117  -19.0715  -52.9260 C.3       18 UNK        -0.1800 
    102 C         -1.7272  -20.7055  -54.7326 C.2       18 UNK         0.5000 
    103 O         -2.7618  -21.3412  -54.9495 O.2       18 UNK        -0.5000 
    104 N         -1.0289  -20.1067  -55.7072 N.am      19 UNK        -0.5000 
    105 CA        -1.4360  -20.0706  -57.1177 C.3       19 UNK         0.1400 
    106 CB        -0.2902  -19.4802  -57.9539 C.3       19 UNK        -0.1800 
    107 C         -2.7421  -19.2833  -57.3569 C.2       19 UNK         0.5000 
    108 O         -3.4262  -19.5222  -58.3524 O.2       19 UNK        -0.5000 
    109 N         -3.0667  -18.3720  -56.4300 N.am      20 UNK        -0.5000 
    110 CA        -4.2969  -17.5860  -56.4098 C.3       20 UNK         0.1400 
    111 CB        -4.0917  -16.3872  -55.4693 C.3       20 UNK        -0.1800 
    112 C         -5.5387  -18.3885  -55.9740 C.2       20 UNK         0.5000 
    113 O         -6.6513  -17.9222  -56.2207 O.2       20 UNK        -0.5000 
    114 N         -5.3468  -19.5365  -55.3009 N.am      21 UNK        -0.5000 
    115 CA        -6.3841  -20.3826  -54.6910 C.3       21 UNK         0.1400 
    116 CB        -7.1932  -21.1153  -55.7804 C.3       21 UNK        -0.1800 
    117 C         -7.2706  -19.5887  -53.7037 C.2       21 UNK         0.5000 
    118 O         -8.4978  -19.5959  -53.8135 O.2       21 UNK        -0.5000 
    119 N         -6.6013  -18.8585  -52.8047 N.am      22 UNK        -0.5000 
    120 CA        -7.1409  -17.8325  -51.8950 C.3       22 UNK         0.1400 
    121 C         -7.6386  -16.5204  -52.5783 C.2       22 UNK         0.5000 
    122 N         -7.5813  -16.3638  -53.8948 N.am      22 UNK        -0.7600 
    123 O         -8.0574  -15.5942  -51.8895 O.2       22 UNK        -0.5000 
    124 C124       -8.1845  -18.3601  -50.8650 C.3       23 UNK        -0.0398 
    125 S125       -7.5618  -19.6720  -49.7589 S.3       23 UNK        -0.2404 
    126 C126       -7.0158  -18.7109  -48.3096 C.3       23 UNK        -0.0205 
    127 H127        1.1596   -9.9683  -46.7650 H         1 UNK         0.0600 
    128 H128        0.1857   -9.7690  -48.2179 H         1 UNK         0.0600 
    129 H129        0.8845  -11.3496  -47.8183 H         1 UNK         0.0600 
    130 H130       -2.6588  -11.6766  -46.6393 H         1 UNK         0.3000 
    131 H131       -1.3931  -11.2275  -49.2146 H         1 UNK         0.0600 
    132 H132       -3.8667  -11.1060  -48.8847 H         1 UNK         0.0800 
    133 H133       -3.3693  -12.1596  -50.1606 H         1 UNK         0.0800 
    134 H134       -3.6946  -14.3915  -50.4173 H         1 UNK         0.0800 
    135 H135       -5.4276  -14.3149  -50.2473 H         1 UNK         0.0800 
    136 H136       -6.6285  -16.0713  -48.9400 H         1 UNK         0.1150 
    137 H137       -4.5234  -19.7490  -48.3311 H         1 UNK         0.1150 
    138 H138       -2.3841  -16.2281  -49.5163 H         1 UNK         0.1150 
    139 H139       -2.2138  -19.9160  -49.1175 H         1 UNK         0.0800 
    140 H140       -1.3809  -18.5212  -49.7269 H         1 UNK         0.0800 
    141 H141       -3.2317  -19.0509  -46.3019 H         1 UNK         0.0800 
    142 H142       -1.9585  -18.7275  -45.1919 H         1 UNK         0.0800 
    143 H143       -1.0108  -21.0900  -45.7783 H         1 UNK         0.0600 
    144 H144       -2.6226  -20.2419  -43.7660 H         1 UNK         0.3000 
    145 H145       -3.6831  -21.9443  -41.9833 H         1 UNK         0.0600 
    146 H146       -2.5234  -23.5088  -40.4062 H         1 UNK         0.0600 
    147 H147       -2.9687  -24.3400  -41.8844 H         1 UNK         0.0600 
    148 H148       -1.2981  -23.8477  -41.6272 H         1 UNK         0.0600 
    149 H149       -0.9825  -20.8756  -42.1419 H         1 UNK         0.3000 
    150 H150       -1.5428  -18.7208  -39.3939 H         1 UNK         0.0600 
    151 H151       -0.5000  -20.6048  -38.1158 H         1 UNK         0.0600 
    152 H152        0.6880  -19.3811  -38.5353 H         1 UNK         0.0600 
    153 H153        0.6213  -20.8931  -39.4414 H         1 UNK         0.0600 
    154 H154        0.7423  -19.0589  -41.0691 H         1 UNK         0.3000 
    155 H155       -0.4067  -17.4527  -43.9608 H         1 UNK         0.0600 
    156 H156        1.2393  -16.1504  -41.7292 H         1 UNK         0.0600 
    157 H157       -0.1466  -15.4381  -42.5450 H         1 UNK         0.0600 
    158 H158        1.3405  -15.7250  -43.4334 H         1 UNK         0.0600 
    159 H159        2.1965  -17.8881  -43.5388 H         1 UNK         0.3000 
    160 H160        2.6521  -21.3764  -43.7200 H         1 UNK         0.0600 
    161 H161        2.8018  -19.2973  -45.9690 H         1 UNK         0.0600 
    162 H162        1.9676  -20.8425  -46.0399 H         1 UNK         0.0600 
    163 H163        3.7174  -20.8034  -45.8953 H         1 UNK         0.0600 
    164 H164        4.2764  -18.9638  -43.9832 H         1 UNK         0.3000 
    165 H165        5.3398  -18.9382  -40.5989 H         1 UNK         0.0600 
    166 H166        7.5961  -19.2516  -41.5886 H         1 UNK         0.0600 
    167 H167        6.7389  -20.7833  -41.5293 H         1 UNK         0.0600 
    168 H168        6.8876  -19.9240  -43.0575 H         1 UNK         0.0600 
    169 H169        6.1539  -17.5768  -43.0217 H         1 UNK         0.3000 
    170 H170        3.7778  -14.9738  -42.8610 H         1 UNK         0.0600 
    171 H171        5.4289  -14.2024  -41.1510 H         1 UNK         0.0600 
    172 H172        6.7523  -14.8262  -42.1285 H         1 UNK         0.0600 
    173 H173        5.7617  -13.4925  -42.7222 H         1 UNK         0.0600 
    174 H174        6.0931  -15.3108  -44.4748 H         1 UNK         0.3000 
    175 H175        5.6916  -15.7116  -46.7427 H         1 UNK         0.0600 
    176 H176        5.5099  -18.7442  -46.2001 H         1 UNK         0.0600 
    177 H177        6.5325  -17.9853  -47.4164 H         1 UNK         0.0600 
    178 H178        6.8494  -17.7106  -45.7131 H         1 UNK         0.0600 
    179 H179        3.1536  -17.0036  -47.0169 H         1 UNK         0.3000 
    180 H180        2.8876  -16.1535  -50.4282 H         1 UNK         0.0600 
    181 H181        2.6889  -18.9847  -49.2686 H         1 UNK         0.0600 
    182 H182        3.5850  -18.5270  -50.7105 H         1 UNK         0.0600 
    183 H183        1.8327  -18.4022  -50.6978 H         1 UNK         0.0600 
    184 H184        1.0195  -17.2788  -48.5914 H         1 UNK         0.3000 
    185 H185       -0.7049  -15.9345  -47.9679 H         1 UNK         0.0600 
    186 H186        0.7410  -16.4828  -45.9853 H         1 UNK         0.0600 
    187 H187        0.9294  -14.7670  -45.6510 H         1 UNK         0.0600 
    188 H188       -0.6583  -15.5280  -45.5214 H         1 UNK         0.0600 
    189 H189       -0.8518  -13.4319  -46.7753 H         1 UNK         0.3000 
    190 H190       -4.4754  -21.6669  -45.6313 H         1 UNK         0.3000 
    191 H191       -4.9639  -22.5519  -48.2740 H         1 UNK         0.0600 
    192 H192       -6.3331  -23.3000  -45.6426 H         1 UNK         0.0600 
    193 H193       -6.9858  -23.5933  -47.2506 H         1 UNK         0.0600 
    194 H194       -6.7571  -21.9452  -46.6919 H         1 UNK         0.0600 
    195 H195       -3.3050  -24.1589  -45.6368 H         1 UNK         0.3000 
    196 H196       -3.2352  -26.7492  -47.1445 H         1 UNK         0.0600 
    197 H197       -2.6427  -27.7471  -44.9421 H         1 UNK         0.0600 
    198 H198       -4.2164  -26.9681  -44.8791 H         1 UNK         0.0600 
    199 H199       -2.8145  -26.1785  -44.1613 H         1 UNK         0.0600 
    200 H200       -1.3041  -24.4205  -45.1900 H         1 UNK         0.3000 
    201 H201        1.1715  -25.7123  -45.5102 H         1 UNK         0.0600 
    202 H202        0.6301  -24.1241  -43.6749 H         1 UNK         0.0600 
    203 H203        0.5636  -22.7906  -44.8236 H         1 UNK         0.0600 
    204 H204        2.0860  -23.6210  -44.5207 H         1 UNK         0.0600 
    205 H205       -0.3129  -23.1292  -47.4786 H         1 UNK         0.3000 
    206 H206        1.9642  -23.2825  -49.4255 H         1 UNK         0.0600 
    207 H207        1.5795  -21.0065  -48.4173 H         1 UNK         0.0600 
    208 H208        1.2523  -21.0364  -50.1425 H         1 UNK         0.0600 
    209 H209       -0.0819  -21.0478  -49.0005 H         1 UNK         0.0600 
    210 H210       -0.8025  -24.7882  -48.8540 H         1 UNK         0.3000 
    211 H211       -2.5253  -25.7026  -49.9061 H         1 UNK         0.0600 
    212 H212       -0.7476  -25.5545  -52.3975 H         1 UNK         0.0600 
    213 H213       -2.0926  -26.6584  -52.1396 H         1 UNK         0.0600 
    214 H214       -0.6502  -26.7959  -51.1489 H         1 UNK         0.0600 
    215 H215       -2.7113  -22.9063  -49.6153 H         1 UNK         0.3000 
    216 H216       -4.0548  -21.2141  -50.0180 H         1 UNK         0.0600 
    217 H217       -6.0188  -21.3493  -51.4793 H         1 UNK         0.0600 
    218 H218       -5.8733  -22.8400  -50.5674 H         1 UNK         0.0600 
    219 H219       -5.4093  -22.7842  -52.2676 H         1 UNK         0.0600 
    220 H220       -1.5875  -22.0076  -51.8582 H         1 UNK         0.3000 
    221 H221       -0.2204  -21.0748  -53.2760 H         1 UNK         0.0600 
    222 H222       -1.8146  -18.4638  -52.9926 H         1 UNK         0.0600 
    223 H223       -0.5286  -18.9903  -51.9093 H         1 UNK         0.0600 
    224 H224       -0.1649  -18.6195  -53.5788 H         1 UNK         0.0600 
    225 H225       -0.1774  -19.6167  -55.4737 H         1 UNK         0.3000 
    226 H226       -1.6077  -21.0975  -57.4472 H         1 UNK         0.0600 
    227 H227        0.6191  -20.0728  -57.8523 H         1 UNK         0.0600 
    228 H228       -0.5484  -19.4637  -59.0137 H         1 UNK         0.0600 
    229 H229       -0.0606  -18.4563  -57.6562 H         1 UNK         0.0600 
    230 H230       -2.4357  -18.2410  -55.6539 H         1 UNK         0.3000 
    231 H231       -4.4841  -17.2067  -57.4166 H         1 UNK         0.0600 
    232 H232       -3.2490  -15.7736  -55.7882 H         1 UNK         0.0600 
    233 H233       -3.9063  -16.7078  -54.4430 H         1 UNK         0.0600 
    234 H234       -4.9724  -15.7436  -55.4565 H         1 UNK         0.0600 
    235 H235       -4.3957  -19.8428  -55.1324 H         1 UNK         0.3000 
    236 H236       -5.8608  -21.1391  -54.1055 H         1 UNK         0.0600 
    237 H237       -7.8992  -21.8171  -55.3352 H         1 UNK         0.0600 
    238 H238       -7.7653  -20.4221  -56.3978 H         1 UNK         0.0600 
    239 H239       -6.5380  -21.6869  -56.4378 H         1 UNK         0.0600 
    240 H240       -5.5923  -18.9771  -52.7706 H         1 UNK         0.3000 
    241 H241       -6.2637  -17.5120  -51.3385 H         1 UNK         0.0600 
    242 H242       -7.9027  -15.4961  -54.2931 H         1 UNK         0.3800 
    243 H243       -7.2753  -17.1066  -54.5123 H         1 UNK         0.3800 
    244 H244       -8.5523  -17.5472  -50.2372 H         1 UNK         0.0800 
    245 H245       -9.0639  -18.7439  -51.3827 H         1 UNK         0.0800 
    246 H246       -6.8750  -19.3917  -47.4689 H         1 UNK         0.0800 
    247 H247       -7.7953  -18.0104  -48.0064 H         1 UNK         0.0800 
@<TRIPOS>BOND
     1    1    2 1    
     2    1  127 1    
     3    1  128 1    
     4    1  129 1    
     5    2    3 2    
     6    2    4 am   BACKBONE|DICT|INTERRES
     7    4    5 1    
     8    4  130 1    
     9    5    6 1    
    10    5   65 1    
    11    5  131 1    
    12    6    7 1    
    13    6  132 1    
    14    6  133 1    
    15    7    8 1    
    16    8    9 1    
    17    8  134 1    
    18    8  135 1    
    19    9   10 ar   
    20    9   14 ar   
    21   10   11 ar   
    22   10  136 1    
    23   11   12 ar   
    24   11  126 1    
    25   12   13 ar   
    26   12  137 1    
    27   13   14 ar   
    28   13   15 1    
    29   14  138 1    
    30   15   16 1    
    31   15  139 1    
    32   15  140 1    
    33   16   17 1    
    34   17   18 1    
    35   17  141 1    
    36   17  142 1    
    37   18   19 1    
    38   18   67 1    
    39   18  143 1    
    40   19   20 am   BACKBONE|DICT|INTERRES
    41   19  144 1    
    42   20   21 2    
    43   20   22 1    
    44   22   23 1    
    45   22   24 1    
    46   22  145 1    
    47   23  146 1    
    48   23  147 1    
    49   23  148 1    
    50   24   25 am   BACKBONE|DICT|INTERRES
    51   24  149 1    
    52   25   26 2    
    53   25   27 1    
    54   27   28 1    
    55   27   29 1    
    56   27  150 1    
    57   28  151 1    
    58   28  152 1    
    59   28  153 1    
    60   29   30 am   BACKBONE|DICT|INTERRES
    61   29  154 1    
    62   30   31 2    
    63   30   32 1    
    64   32   33 1    
    65   32   34 1    
    66   32  155 1    
    67   33  156 1    
    68   33  157 1    
    69   33  158 1    
    70   34   35 am   BACKBONE|DICT|INTERRES
    71   34  159 1    
    72   35   36 2    
    73   35   37 1    
    74   37   38 1    
    75   37   39 1    
    76   37  160 1    
    77   38  161 1    
    78   38  162 1    
    79   38  163 1    
    80   39   40 am   BACKBONE|DICT|INTERRES
    81   39  164 1    
    82   40   41 2    
    83   40   42 1    
    84   42   43 1    
    85   42   44 1    
    86   42  165 1    
    87   43  166 1    
    88   43  167 1    
    89   43  168 1    
    90   44   45 am   BACKBONE|DICT|INTERRES
    91   44  169 1    
    92   45   46 2    
    93   45   47 1    
    94   47   48 1    
    95   47   49 1    
    96   47  170 1    
    97   48  171 1    
    98   48  172 1    
    99   48  173 1    
   100   49   50 am   BACKBONE|DICT|INTERRES
   101   49  174 1    
   102   50   51 2    
   103   50   52 1    
   104   52   53 1    
   105   52   54 1    
   106   52  175 1    
   107   53  176 1    
   108   53  177 1    
   109   53  178 1    
   110   54   55 am   BACKBONE|DICT|INTERRES
   111   54  179 1    
   112   55   56 2    
   113   55   57 1    
   114   57   58 1    
   115   57   59 1    
   116   57  180 1    
   117   58  181 1    
   118   58  182 1    
   119   58  183 1    
   120   59   60 am   BACKBONE|DICT|INTERRES
   121   59  184 1    
   122   60   61 2    
   123   60   62 1    
   124   62   63 1    
   125   62   64 1    
   126   62  185 1    
   127   63  186 1    
   128   63  187 1    
   129   63  188 1    
   130   64   65 am   BACKBONE|DICT|INTERRES
   131   64  189 1    
   132   65   66 2    
   133   67   68 2    
   134   67   69 am   BACKBONE|DICT|INTERRES
   135   69   70 1    
   136   69  190 1    
   137   70   71 1    
   138   70   72 1    
   139   70  191 1    
   140   71  192 1    
   141   71  193 1    
   142   71  194 1    
   143   72   73 2    
   144   72   74 am   BACKBONE|DICT|INTERRES
   145   74   75 1    
   146   74  195 1    
   147   75   76 1    
   148   75   77 1    
   149   75  196 1    
   150   76  197 1    
   151   76  198 1    
   152   76  199 1    
   153   77   78 2    
   154   77   79 am   BACKBONE|DICT|INTERRES
   155   79   80 1    
   156   79  200 1    
   157   80   81 1    
   158   80   82 1    
   159   80  201 1    
   160   81  202 1    
   161   81  203 1    
   162   81  204 1    
   163   82   83 2    
   164   82   84 am   BACKBONE|DICT|INTERRES
   165   84   85 1    
   166   84  205 1    
   167   85   86 1    
   168   85   87 1    
   169   85  206 1    
   170   86  207 1    
   171   86  208 1    
   172   86  209 1    
   173   87   88 2    
   174   87   89 am   BACKBONE|DICT|INTERRES
   175   89   90 1    
   176   89  210 1    
   177   90   91 1    
   178   90   92 1    
   179   90  211 1    
   180   91  212 1    
   181   91  213 1    
   182   91  214 1    
   183   92   93 2    
   184   92   94 am   BACKBONE|DICT|INTERRES
   185   94   95 1    
   186   94  215 1    
   187   95   96 1    
   188   95   97 1    
   189   95  216 1    
   190   96  217 1    
   191   96  218 1    
   192   96  219 1    
   193   97   98 2    
   194   97   99 am   BACKBONE|DICT|INTERRES
   195   99  100 1    
   196   99  220 1    
   197  100  101 1    
   198  100  102 1    
   199  100  221 1    
   200  101  222 1    
   201  101  223 1    
   202  101  224 1    
   203  102  103 2    
   204  102  104 am   BACKBONE|DICT|INTERRES
   205  104  105 1    
   206  104  225 1    
   207  105  106 1    
   208  105  107 1    
   209  105  226 1    
   210  106  227 1    
   211  106  228 1    
   212  106  229 1    
   213  107  108 2    
   214  107  109 am   BACKBONE|DICT|INTERRES
   215  109  110 1    
   216  109  230 1    
   217  110  111 1    
   218  110  112 1    
   219  110  231 1    
   220  111  232 1    
   221  111  233 1    
   222  111  234 1    
   223  112  113 2    
   224  112  114 am   BACKBONE|DICT|INTERRES
   225  114  115 1    
   226  114  235 1    
   227  115  116 1    
   228  115  117 1    
   229  115  236 1    
   230  116  237 1    
   231  116  238 1    
   232  116  239 1    
   233  117  118 2    
   234  117  119 am   BACKBONE|DICT|INTERRES
   235  119  120 1    
   236  119  240 1    
   237  120  121 1    
   238  120  124 1    
   239  120  241 1    
   240  121  122 am   BACKBONE|DICT|INTERRES
   241  121  123 2    
   242  122  242 1    
   243  122  243 1    
   244  124  125 1    
   245  124  244 1    
   246  124  245 1    
   247  125  126 1    
   248  126  246 1    
   249  126  247 1    
@<TRIPOS>SUBSTRUCTURE
     1 UNK         1 GROUP             0       ****    0 ROOT    
