@<TRIPOS>MOLECULE
3R540
247   249    1
SMALL
USER_CHARGES


@<TRIPOS>ATOM
      1 CA         -1.7453  -14.9932  -48.4531 C.3       0 UNK        -0.1800 
      2 C          -0.8301  -13.8625  -48.0112 C.2       0 UNK         0.5000 
      3 O          -1.3130  -12.7736  -47.7005 O.2       0 UNK        -0.5000 
      4 N           0.4820  -14.1142  -47.9757 N.am      1 UNK        -0.5000 
      5 CA          1.4984  -13.1612  -47.5374 C.3       1 UNK         0.1400 
      6 C6          1.8799  -12.1199  -48.6320 C.3       23 UNK        -0.0398 
      7 S7          2.8471  -12.7255  -50.0642 S.3       23 UNK        -0.2404 
      8 C8          1.5749  -13.0489  -51.3339 C.3       23 UNK        -0.0205 
      9 C9          0.9959  -14.4638  -51.3251 C.ar      23 UNK        -0.0193 
     10 C10        -0.2993  -14.6670  -51.8143 C.ar      23 UNK        -0.1150 
     11 C11        -0.8520  -15.9504  -51.8731 C.ar      23 UNK        -0.0193 
     12 C12        -0.0898  -17.0397  -51.4458 C.ar      23 UNK        -0.1150 
     13 C13         1.1898  -16.8538  -50.9183 C.ar      23 UNK        -0.0193 
     14 C14         1.7356  -15.5687  -50.8808 C.ar      23 UNK        -0.1150 
     15 C15         1.9693  -18.0406  -50.3676 C.3       23 UNK        -0.0205 
     16 S16         1.9165  -18.1165  -48.5437 S.3       23 UNK        -0.2404 
     17 C17         0.1365  -18.3522  -48.2241 C.3       23 UNK        -0.0398 
     18 CA         -0.2556  -19.8256  -47.9577 C.3       11 UNK         0.1400 
     19 N          -0.0822  -20.1948  -46.5519 N.am      11 UNK        -0.5000 
     20 C          -0.2534  -21.4195  -46.0360 C.2       10 UNK         0.5000 
     21 O          -0.4735  -22.4254  -46.7096 O.2       10 UNK        -0.5000 
     22 CA         -0.2232  -21.5298  -44.4994 C.3       10 UNK         0.1400 
     23 CB          1.2192  -21.6249  -43.9806 C.3       10 UNK        -0.1800 
     24 N          -0.9182  -20.4213  -43.8383 N.am      10 UNK        -0.5000 
     25 C          -2.2319  -20.1767  -43.9592 C.2       9 UNK         0.5000 
     26 O          -3.0000  -20.8849  -44.6090 O.2       9 UNK        -0.5000 
     27 CA         -2.7764  -18.9084  -43.2787 C.3       9 UNK         0.1400 
     28 CB         -2.9800  -19.1397  -41.7742 C.3       9 UNK        -0.1800 
     29 N          -1.9152  -17.7455  -43.4872 N.am      9 UNK        -0.5000 
     30 C          -1.6689  -17.1817  -44.6782 C.2       8 UNK         0.5000 
     31 O          -2.1978  -17.5446  -45.7282 O.2       8 UNK        -0.5000 
     32 CA         -0.6055  -16.0684  -44.7127 C.3       8 UNK         0.1400 
     33 CB         -1.2007  -14.7166  -44.2968 C.3       8 UNK        -0.1800 
     34 N           0.5561  -16.3816  -43.8805 N.am      8 UNK        -0.5000 
     35 C           1.3714  -17.4249  -44.0959 C.2       7 UNK         0.5000 
     36 O           1.2321  -18.2228  -45.0205 O.2       7 UNK        -0.5000 
     37 CA          2.4907  -17.6604  -43.0718 C.3       7 UNK         0.1400 
     38 CB          3.7098  -16.7901  -43.3886 C.3       7 UNK        -0.1800 
     39 N           2.0326  -17.4038  -41.7084 N.am      7 UNK        -0.5000 
     40 C           1.1895  -18.2074  -41.0449 C.2       6 UNK         0.5000 
     41 O           0.7477  -19.2627  -41.5013 O.2       6 UNK        -0.5000 
     42 CA          0.7283  -17.7246  -39.6581 C.3       6 UNK         0.1400 
     43 CB          1.7867  -18.0401  -38.5905 C.3       6 UNK        -0.1800 
     44 N           0.4248  -16.2928  -39.6351 N.am      6 UNK        -0.5000 
     45 C          -0.5692  -15.7208  -40.3286 C.2       5 UNK         0.5000 
     46 O          -1.3516  -16.3468  -41.0417 O.2       5 UNK        -0.5000 
     47 CA         -0.6981  -14.1906  -40.2356 C.3       5 UNK         0.1400 
     48 CB         -1.6475  -13.8026  -39.0922 C.3       5 UNK        -0.1800 
     49 N           0.5775  -13.4924  -40.0607 N.am      5 UNK        -0.5000 
     50 C           1.5894  -13.4908  -40.9394 C.2       4 UNK         0.5000 
     51 O           1.5919  -14.1538  -41.9797 O.2       4 UNK        -0.5000 
     52 CA          2.7737  -12.5793  -40.5641 C.3       4 UNK         0.1400 
     53 CB          3.5922  -13.1641  -39.3935 C.3       4 UNK        -0.1800 
     54 N           3.6205  -12.2098  -41.7061 N.am      4 UNK        -0.5000 
     55 C           4.5396  -12.9450  -42.3486 C.2       3 UNK         0.5000 
     56 O           4.8695  -14.0854  -42.0241 O.2       3 UNK        -0.5000 
     57 CA          5.2541  -12.2279  -43.5124 C.3       3 UNK         0.1400 
     58 CB          6.7550  -12.0275  -43.2212 C.3       3 UNK        -0.1800 
     59 N           5.0311  -12.8512  -44.8222 N.am      3 UNK        -0.5000 
     60 C           5.4903  -14.0176  -45.3026 C.2       2 UNK         0.5000 
     61 O           6.2159  -14.7935  -44.6800 O.2       2 UNK        -0.5000 
     62 CA          5.1326  -14.3258  -46.7754 C.3       2 UNK         0.1400 
     63 CB          5.1287  -15.8337  -47.1105 C.3       2 UNK        -0.1800 
     64 N           3.9021  -13.6758  -47.2474 N.am      2 UNK        -0.5000 
     65 C           2.6463  -13.9383  -46.8595 C.2       1 UNK         0.5000 
     66 O           2.3657  -14.7546  -45.9836 O.2       1 UNK        -0.5000 
     67 C          -1.6972  -20.0847  -48.4393 C.2       11 UNK         0.5000 
     68 O          -1.8784  -20.7075  -49.4827 O.2       11 UNK        -0.5000 
     69 N          -2.6959  -19.6172  -47.6781 N.am      12 UNK        -0.5000 
     70 CA         -4.1127  -19.7781  -48.0079 C.3       12 UNK         0.1400 
     71 CB         -4.9645  -18.9524  -47.0333 C.3       12 UNK        -0.1800 
     72 C          -4.5678  -21.2504  -48.0259 C.2       12 UNK         0.5000 
     73 O          -5.3427  -21.6445  -48.8977 O.2       12 UNK        -0.5000 
     74 N          -4.0517  -22.0420  -47.0791 N.am      13 UNK        -0.5000 
     75 CA         -4.3433  -23.4647  -46.9193 C.3       13 UNK         0.1400 
     76 CB         -4.1180  -23.8418  -45.4458 C.3       13 UNK        -0.1800 
     77 C          -3.5234  -24.3886  -47.8434 C.2       13 UNK         0.5000 
     78 O          -3.7019  -25.6042  -47.7533 O.2       13 UNK        -0.5000 
     79 N          -2.6385  -23.8351  -48.6883 N.am      14 UNK        -0.5000 
     80 CA         -1.6820  -24.5608  -49.5315 C.3       14 UNK         0.1400 
     81 CB         -0.8303  -23.5569  -50.3218 C.3       14 UNK        -0.1800 
     82 C          -2.3532  -25.5881  -50.4649 C.2       14 UNK         0.5000 
     83 O          -2.9960  -25.2083  -51.4492 O.2       14 UNK        -0.5000 
     84 N          -2.2212  -26.8717  -50.1003 N.am      15 UNK        -0.5000 
     85 CA         -2.8551  -28.0443  -50.7155 C.3       15 UNK         0.1400 
     86 CB         -2.2605  -28.3145  -52.1122 C.3       15 UNK        -0.1800 
     87 C          -4.3987  -27.9682  -50.7144 C.2       15 UNK         0.5000 
     88 O          -5.0376  -28.4354  -51.6568 O.2       15 UNK        -0.5000 
     89 N          -4.9606  -27.3632  -49.6561 N.am      16 UNK        -0.5000 
     90 CA         -6.3757  -27.0271  -49.4723 C.3       16 UNK         0.1400 
     91 CB         -7.2570  -28.2932  -49.4129 C.3       16 UNK        -0.1800 
     92 C          -6.8553  -25.9845  -50.5038 C.2       16 UNK         0.5000 
     93 O          -7.9148  -26.1525  -51.1101 O.2       16 UNK        -0.5000 
     94 N          -6.0472  -24.9255  -50.6704 N.am      17 UNK        -0.5000 
     95 CA         -6.2293  -23.7971  -51.5905 C.3       17 UNK         0.1400 
     96 CB         -7.5017  -22.9943  -51.2402 C.3       17 UNK        -0.1800 
     97 C          -6.1772  -24.2350  -53.0680 C.2       17 UNK         0.5000 
     98 O          -7.0365  -23.8460  -53.8624 O.2       17 UNK        -0.5000 
     99 N          -5.1737  -25.0570  -53.3995 N.am      18 UNK        -0.5000 
    100 CA        -4.9453  -25.5840  -54.7459 C.3       18 UNK         0.1400 
    101 CB        -5.2175  -27.0954  -54.7624 C.3       18 UNK        -0.1800 
    102 C         -3.5258  -25.2841  -55.2495 C.2       18 UNK         0.5000 
    103 O         -3.3516  -25.0949  -56.4541 O.2       18 UNK        -0.5000 
    104 N         -2.5376  -25.2279  -54.3438 N.am      19 UNK        -0.5000 
    105 CA        -1.1503  -24.8907  -54.6784 C.3       19 UNK         0.1400 
    106 CB        -0.1989  -25.5959  -53.7014 C.3       19 UNK        -0.1800 
    107 C         -0.9108  -23.3688  -54.7082 C.2       19 UNK         0.5000 
    108 O          0.0726  -22.9239  -55.3015 O.2       19 UNK        -0.5000 
    109 N         -1.8260  -22.6005  -54.1076 N.am      20 UNK        -0.5000 
    110 CA        -1.9332  -21.1543  -54.2311 C.3       20 UNK         0.1400 
    111 CB        -1.3448  -20.4708  -52.9899 C.3       20 UNK        -0.1800 
    112 C         -3.4217  -20.8249  -54.3811 C.2       20 UNK         0.5000 
    113 O         -4.2486  -21.4250  -53.6884 O.2       20 UNK        -0.5000 
    114 N         -3.7358  -19.8739  -55.2693 N.am      21 UNK        -0.5000 
    115 CA        -5.1020  -19.4826  -55.6329 C.3       21 UNK         0.1400 
    116 CB        -5.0420  -18.5096  -56.8206 C.3       21 UNK        -0.1800 
    117 C         -5.9170  -18.8705  -54.4775 C.2       21 UNK         0.5000 
    118 O         -7.1454  -18.9581  -54.4940 O.2       21 UNK        -0.5000 
    119 N         -5.2242  -18.2736  -53.5001 N.am      22 UNK        -0.5000 
    120 CA        -5.8158  -17.7602  -52.2575 C.3       22 UNK         0.1400 
    121 C         -6.0914  -18.8478  -51.1769 C.2       22 UNK         0.5000 
    122 N         -5.6509  -20.0896  -51.3449 N.am      22 UNK        -0.7600 
    123 O         -6.7178  -18.5546  -50.1627 O.2       22 UNK        -0.5000 
    124 C124       -5.0096  -16.5604  -51.6952 C.3       23 UNK        -0.0398 
    125 S125       -3.3200  -16.9700  -51.1259 S.3       23 UNK        -0.2404 
    126 C126       -2.2741  -16.1580  -52.3800 C.3       23 UNK        -0.0205 
    127 H127       -2.4672  -14.6291  -49.1840 H         1 UNK         0.0600 
    128 H128       -2.2924  -15.3965  -47.6013 H         1 UNK         0.0600 
    129 H129       -1.1835  -15.8014  -48.9159 H         1 UNK         0.0600 
    130 H130        0.8340  -15.0298  -48.2201 H         1 UNK         0.3000 
    131 H131        1.0646  -12.5884  -46.7146 H         1 UNK         0.0600 
    132 H132        0.9773  -11.6296  -48.9981 H         1 UNK         0.0800 
    133 H133        2.4590  -11.3182  -48.1714 H         1 UNK         0.0800 
    134 H134        0.7776  -12.3101  -51.2418 H         1 UNK         0.0800 
    135 H135        2.0282  -12.8849  -52.3121 H         1 UNK         0.0800 
    136 H136       -0.8791  -13.8204  -52.1544 H         1 UNK         0.1150 
    137 H137       -0.5163  -18.0316  -51.4743 H         1 UNK         0.1150 
    138 H138        2.7361  -15.4389  -50.4946 H         1 UNK         0.1150 
    139 H139        1.5859  -18.9765  -50.7774 H         1 UNK         0.0800 
    140 H140        3.0096  -17.9709  -50.6879 H         1 UNK         0.0800 
    141 H141       -0.4265  -17.9470  -49.0598 H         1 UNK         0.0800 
    142 H142       -0.1376  -17.7235  -47.3784 H         1 UNK         0.0800 
    143 H143        0.3928  -20.4749  -48.5499 H         1 UNK         0.0600 
    144 H144        0.1897  -19.4412  -45.9238 H         1 UNK         0.3000 
    145 H145       -0.7402  -22.4519  -44.2258 H         1 UNK         0.0600 
    146 H146        1.2415  -21.7591  -42.8990 H         1 UNK         0.0600 
    147 H147        1.7371  -22.4754  -44.4254 H         1 UNK         0.0600 
    148 H148        1.7948  -20.7308  -44.2186 H         1 UNK         0.0600 
    149 H149       -0.3545  -19.8080  -43.2608 H         1 UNK         0.3000 
    150 H150       -3.7492  -18.6857  -43.7216 H         1 UNK         0.0600 
    151 H151       -3.6252  -20.0005  -41.5945 H         1 UNK         0.0600 
    152 H152       -3.4508  -18.2762  -41.3041 H         1 UNK         0.0600 
    153 H153       -2.0347  -19.3235  -41.2625 H         1 UNK         0.0600 
    154 H154       -1.4846  -17.3456  -42.6577 H         1 UNK         0.3000 
    155 H155       -0.2512  -15.9757  -45.7404 H         1 UNK         0.0600 
    156 H156       -1.6113  -14.7502  -43.2886 H         1 UNK         0.0600 
    157 H157       -2.0086  -14.4260  -44.9694 H         1 UNK         0.0600 
    158 H158       -0.4486  -13.9278  -44.3313 H         1 UNK         0.0600 
    159 H159        0.7744  -15.7402  -43.1265 H         1 UNK         0.3000 
    160 H160        2.7996  -18.7058  -43.1369 H         1 UNK         0.0600 
    161 H161        3.4372  -15.7375  -43.4689 H         1 UNK         0.0600 
    162 H162        4.1549  -17.0825  -44.3390 H         1 UNK         0.0600 
    163 H163        4.4822  -16.8835  -42.6254 H         1 UNK         0.0600 
    164 H164        2.3056  -16.5234  -41.2954 H         1 UNK         0.3000 
    165 H165       -0.1849  -18.2675  -39.4048 H         1 UNK         0.0600 
    166 H166        1.4324  -17.7756  -37.5941 H         1 UNK         0.0600 
    167 H167        2.0224  -19.1051  -38.5784 H         1 UNK         0.0600 
    168 H168        2.7169  -17.4998  -38.7710 H         1 UNK         0.0600 
    169 H169        1.0224  -15.7039  -39.0743 H         1 UNK         0.3000 
    170 H170       -1.1371  -13.8406  -41.1712 H         1 UNK         0.0600 
    171 H171       -1.2479  -14.0940  -38.1201 H         1 UNK         0.0600 
    172 H172       -1.8260  -12.7273  -39.0744 H         1 UNK         0.0600 
    173 H173       -2.6172  -14.2889  -39.2078 H         1 UNK         0.0600 
    174 H174        0.6589  -12.9253  -39.2290 H         1 UNK         0.3000 
    175 H175        2.3445  -11.6369  -40.2200 H         1 UNK         0.0600 
    176 H176        4.4568  -12.5409  -39.1646 H         1 UNK         0.0600 
    177 H177        3.9502  -14.1717  -39.6062 H         1 UNK         0.0600 
    178 H178        2.9900  -13.2242  -38.4865 H         1 UNK         0.0600 
    179 H179        3.4336  -11.2868  -42.0720 H         1 UNK         0.3000 
    180 H180        4.8218  -11.2299  -43.6021 H         1 UNK         0.0600 
    181 H181        7.2763  -12.9753  -43.0848 H         1 UNK         0.0600 
    182 H182        6.8968  -11.4484  -42.3080 H         1 UNK         0.0600 
    183 H183        7.2465  -11.4863  -44.0296 H         1 UNK         0.0600 
    184 H184        4.4357  -12.3227  -45.4429 H         1 UNK         0.3000 
    185 H185        5.9380  -13.8786  -47.3596 H         1 UNK         0.0600 
    186 H186        6.0882  -16.2940  -46.8727 H         1 UNK         0.0600 
    187 H187        4.3613  -16.3743  -46.5578 H         1 UNK         0.0600 
    188 H188        4.9468  -15.9981  -48.1726 H         1 UNK         0.0600 
    189 H189        4.0265  -13.0143  -48.0032 H         1 UNK         0.3000 
    190 H190       -2.4792  -19.0643  -46.8529 H         1 UNK         0.3000 
    191 H191       -4.2553  -19.3719  -49.0092 H         1 UNK         0.0600 
    192 H192       -4.7013  -17.8955  -47.0807 H         1 UNK         0.0600 
    193 H193       -6.0241  -19.0343  -47.2785 H         1 UNK         0.0600 
    194 H194       -4.8359  -19.2852  -46.0032 H         1 UNK         0.0600 
    195 H195       -3.4540  -21.6234  -46.3716 H         1 UNK         0.3000 
    196 H196       -5.3965  -23.6342  -47.1524 H         1 UNK         0.0600 
    197 H197       -4.3858  -24.8820  -45.2562 H         1 UNK         0.0600 
    198 H198       -4.7274  -23.2263  -44.7837 H         1 UNK         0.0600 
    199 H199       -3.0743  -23.7117  -45.1562 H         1 UNK         0.0600 
    200 H200       -2.5610  -22.8262  -48.7030 H         1 UNK         0.3000 
    201 H201       -1.0093  -25.0936  -48.8566 H         1 UNK         0.0600 
    202 H202       -0.3329  -22.8551  -49.6528 H         1 UNK         0.0600 
    203 H203       -1.4311  -22.9831  -51.0284 H         1 UNK         0.0600 
    204 H204       -0.0442  -24.0608  -50.8821 H         1 UNK         0.0600 
    205 H205       -1.7051  -27.0656  -49.2532 H         1 UNK         0.3000 
    206 H206       -2.6001  -28.8956  -50.0829 H         1 UNK         0.0600 
    207 H207       -1.1743  -28.3917  -52.0689 H         1 UNK         0.0600 
    208 H208       -2.6347  -29.2524  -52.5239 H         1 UNK         0.0600 
    209 H209       -2.5118  -27.5259  -52.8182 H         1 UNK         0.0600 
    210 H210       -4.3407  -26.9800  -48.9467 H         1 UNK         0.3000 
    211 H211       -6.4449  -26.5408  -48.4981 H         1 UNK         0.0600 
    212 H212       -7.3036  -28.8064  -50.3736 H         1 UNK         0.0600 
    213 H213       -8.2797  -28.0401  -49.1315 H         1 UNK         0.0600 
    214 H214       -6.8824  -28.9996  -48.6723 H         1 UNK         0.0600 
    215 H215       -5.1725  -24.9236  -50.1664 H         1 UNK         0.3000 
    216 H216       -5.3726  -23.1384  -51.4389 H         1 UNK         0.0600 
    217 H217       -7.5715  -22.0917  -51.8479 H         1 UNK         0.0600 
    218 H218       -7.4989  -22.6832  -50.1959 H         1 UNK         0.0600 
    219 H219       -8.4106  -23.5698  -51.4153 H         1 UNK         0.0600 
    220 H220       -4.5040  -25.3074  -52.6794 H         1 UNK         0.3000 
    221 H221       -5.6302  -25.1162  -55.4560 H         1 UNK         0.0600 
    222 H222       -4.5086  -27.6403  -54.1402 H         1 UNK         0.0600 
    223 H223       -6.2211  -27.3200  -54.4008 H         1 UNK         0.0600 
    224 H224       -5.1371  -27.4946  -55.7742 H         1 UNK         0.0600 
    225 H225       -2.7422  -25.3567  -53.3583 H         1 UNK         0.3000 
    226 H226       -0.9189  -25.2654  -55.6778 H         1 UNK         0.0600 
    227 H227       -0.2599  -26.6784  -53.8112 H         1 UNK         0.0600 
    228 H228        0.8378  -25.3107  -53.8842 H         1 UNK         0.0600 
    229 H229       -0.4305  -25.3539  -52.6678 H         1 UNK         0.0600 
    230 H230       -2.6270  -23.0420  -53.6755 H         1 UNK         0.3000 
    231 H231       -1.4009  -20.8108  -55.1207 H         1 UNK         0.0600 
    232 H232       -1.8920  -20.7436  -52.0878 H         1 UNK         0.0600 
    233 H233       -1.3967  -19.3871  -53.0909 H         1 UNK         0.0600 
    234 H234       -0.2987  -20.7398  -52.8437 H         1 UNK         0.0600 
    235 H235       -2.9940  -19.4236  -55.7858 H         1 UNK         0.3000 
    236 H236       -5.6281  -20.3835  -55.9559 H         1 UNK         0.0600 
    237 H237       -4.5512  -18.9653  -57.6808 H         1 UNK         0.0600 
    238 H238       -6.0439  -18.2173  -57.1380 H         1 UNK         0.0600 
    239 H239       -4.4995  -17.5981  -56.5664 H         1 UNK         0.0600 
    240 H240       -4.2173  -18.2645  -53.5524 H         1 UNK         0.3000 
    241 H241       -6.8016  -17.3643  -52.5090 H         1 UNK         0.0600 
    242 H242       -5.1568  -20.3714  -52.1826 H         1 UNK         0.3800 
    243 H243       -5.7818  -20.7536  -50.5898 H         1 UNK         0.3800 
    244 H244       -4.9635  -15.7717  -52.4466 H         1 UNK         0.0800 
    245 H245       -5.5431  -16.1189  -50.8518 H         1 UNK         0.0800 
    246 H246       -2.2525  -16.7645  -53.2860 H         1 UNK         0.0800 
    247 H247       -2.7155  -15.1990  -52.6543 H         1 UNK         0.0800 
@<TRIPOS>BOND
     1    1    2 1    
     2    1  127 1    
     3    1  128 1    
     4    1  129 1    
     5    2    3 2    
     6    2    4 am   BACKBONE|DICT|INTERRES
     7    4    5 1    
     8    4  130 1    
     9    5    6 1    
    10    5   65 1    
    11    5  131 1    
    12    6    7 1    
    13    6  132 1    
    14    6  133 1    
    15    7    8 1    
    16    8    9 1    
    17    8  134 1    
    18    8  135 1    
    19    9   10 ar   
    20    9   14 ar   
    21   10   11 ar   
    22   10  136 1    
    23   11   12 ar   
    24   11  126 1    
    25   12   13 ar   
    26   12  137 1    
    27   13   14 ar   
    28   13   15 1    
    29   14  138 1    
    30   15   16 1    
    31   15  139 1    
    32   15  140 1    
    33   16   17 1    
    34   17   18 1    
    35   17  141 1    
    36   17  142 1    
    37   18   19 1    
    38   18   67 1    
    39   18  143 1    
    40   19   20 am   BACKBONE|DICT|INTERRES
    41   19  144 1    
    42   20   21 2    
    43   20   22 1    
    44   22   23 1    
    45   22   24 1    
    46   22  145 1    
    47   23  146 1    
    48   23  147 1    
    49   23  148 1    
    50   24   25 am   BACKBONE|DICT|INTERRES
    51   24  149 1    
    52   25   26 2    
    53   25   27 1    
    54   27   28 1    
    55   27   29 1    
    56   27  150 1    
    57   28  151 1    
    58   28  152 1    
    59   28  153 1    
    60   29   30 am   BACKBONE|DICT|INTERRES
    61   29  154 1    
    62   30   31 2    
    63   30   32 1    
    64   32   33 1    
    65   32   34 1    
    66   32  155 1    
    67   33  156 1    
    68   33  157 1    
    69   33  158 1    
    70   34   35 am   BACKBONE|DICT|INTERRES
    71   34  159 1    
    72   35   36 2    
    73   35   37 1    
    74   37   38 1    
    75   37   39 1    
    76   37  160 1    
    77   38  161 1    
    78   38  162 1    
    79   38  163 1    
    80   39   40 am   BACKBONE|DICT|INTERRES
    81   39  164 1    
    82   40   41 2    
    83   40   42 1    
    84   42   43 1    
    85   42   44 1    
    86   42  165 1    
    87   43  166 1    
    88   43  167 1    
    89   43  168 1    
    90   44   45 am   BACKBONE|DICT|INTERRES
    91   44  169 1    
    92   45   46 2    
    93   45   47 1    
    94   47   48 1    
    95   47   49 1    
    96   47  170 1    
    97   48  171 1    
    98   48  172 1    
    99   48  173 1    
   100   49   50 am   BACKBONE|DICT|INTERRES
   101   49  174 1    
   102   50   51 2    
   103   50   52 1    
   104   52   53 1    
   105   52   54 1    
   106   52  175 1    
   107   53  176 1    
   108   53  177 1    
   109   53  178 1    
   110   54   55 am   BACKBONE|DICT|INTERRES
   111   54  179 1    
   112   55   56 2    
   113   55   57 1    
   114   57   58 1    
   115   57   59 1    
   116   57  180 1    
   117   58  181 1    
   118   58  182 1    
   119   58  183 1    
   120   59   60 am   BACKBONE|DICT|INTERRES
   121   59  184 1    
   122   60   61 2    
   123   60   62 1    
   124   62   63 1    
   125   62   64 1    
   126   62  185 1    
   127   63  186 1    
   128   63  187 1    
   129   63  188 1    
   130   64   65 am   BACKBONE|DICT|INTERRES
   131   64  189 1    
   132   65   66 2    
   133   67   68 2    
   134   67   69 am   BACKBONE|DICT|INTERRES
   135   69   70 1    
   136   69  190 1    
   137   70   71 1    
   138   70   72 1    
   139   70  191 1    
   140   71  192 1    
   141   71  193 1    
   142   71  194 1    
   143   72   73 2    
   144   72   74 am   BACKBONE|DICT|INTERRES
   145   74   75 1    
   146   74  195 1    
   147   75   76 1    
   148   75   77 1    
   149   75  196 1    
   150   76  197 1    
   151   76  198 1    
   152   76  199 1    
   153   77   78 2    
   154   77   79 am   BACKBONE|DICT|INTERRES
   155   79   80 1    
   156   79  200 1    
   157   80   81 1    
   158   80   82 1    
   159   80  201 1    
   160   81  202 1    
   161   81  203 1    
   162   81  204 1    
   163   82   83 2    
   164   82   84 am   BACKBONE|DICT|INTERRES
   165   84   85 1    
   166   84  205 1    
   167   85   86 1    
   168   85   87 1    
   169   85  206 1    
   170   86  207 1    
   171   86  208 1    
   172   86  209 1    
   173   87   88 2    
   174   87   89 am   BACKBONE|DICT|INTERRES
   175   89   90 1    
   176   89  210 1    
   177   90   91 1    
   178   90   92 1    
   179   90  211 1    
   180   91  212 1    
   181   91  213 1    
   182   91  214 1    
   183   92   93 2    
   184   92   94 am   BACKBONE|DICT|INTERRES
   185   94   95 1    
   186   94  215 1    
   187   95   96 1    
   188   95   97 1    
   189   95  216 1    
   190   96  217 1    
   191   96  218 1    
   192   96  219 1    
   193   97   98 2    
   194   97   99 am   BACKBONE|DICT|INTERRES
   195   99  100 1    
   196   99  220 1    
   197  100  101 1    
   198  100  102 1    
   199  100  221 1    
   200  101  222 1    
   201  101  223 1    
   202  101  224 1    
   203  102  103 2    
   204  102  104 am   BACKBONE|DICT|INTERRES
   205  104  105 1    
   206  104  225 1    
   207  105  106 1    
   208  105  107 1    
   209  105  226 1    
   210  106  227 1    
   211  106  228 1    
   212  106  229 1    
   213  107  108 2    
   214  107  109 am   BACKBONE|DICT|INTERRES
   215  109  110 1    
   216  109  230 1    
   217  110  111 1    
   218  110  112 1    
   219  110  231 1    
   220  111  232 1    
   221  111  233 1    
   222  111  234 1    
   223  112  113 2    
   224  112  114 am   BACKBONE|DICT|INTERRES
   225  114  115 1    
   226  114  235 1    
   227  115  116 1    
   228  115  117 1    
   229  115  236 1    
   230  116  237 1    
   231  116  238 1    
   232  116  239 1    
   233  117  118 2    
   234  117  119 am   BACKBONE|DICT|INTERRES
   235  119  120 1    
   236  119  240 1    
   237  120  121 1    
   238  120  124 1    
   239  120  241 1    
   240  121  122 am   BACKBONE|DICT|INTERRES
   241  121  123 2    
   242  122  242 1    
   243  122  243 1    
   244  124  125 1    
   245  124  244 1    
   246  124  245 1    
   247  125  126 1    
   248  126  246 1    
   249  126  247 1    
@<TRIPOS>SUBSTRUCTURE
     1 UNK         1 GROUP             0       ****    0 ROOT    
