@<TRIPOS>MOLECULE
3R540
247   249    1
SMALL
USER_CHARGES


@<TRIPOS>ATOM
      1 CA          3.8368  -14.7721  -47.0367 C.3       0 UNK        -0.1800 
      2 C           2.7978  -13.6647  -47.1337 C.2       0 UNK         0.5000 
      3 O           3.0522  -12.6442  -47.7738 O.2       0 UNK        -0.5000 
      4 N           1.6274  -13.8876  -46.5224 N.am      1 UNK        -0.5000 
      5 CA          0.4451  -13.0139  -46.5195 C.3       1 UNK         0.1400 
      6 C6         -0.0870  -12.6564  -47.9392 C.3       23 UNK        -0.0398 
      7 S7         -0.4909  -14.1401  -48.9276 S.3       23 UNK        -0.2404 
      8 C8          0.7553  -14.0412  -50.2480 C.3       23 UNK        -0.0205 
      9 C9          0.8423  -15.3425  -51.0276 C.ar      23 UNK        -0.0193 
     10 C10        -0.0628  -15.6022  -52.0613 C.ar      23 UNK        -0.1150 
     11 C11         0.0251  -16.7874  -52.7957 C.ar      23 UNK        -0.0193 
     12 C12         1.0298  -17.7088  -52.4954 C.ar      23 UNK        -0.1150 
     13 C13         1.9377  -17.4661  -51.4616 C.ar      23 UNK        -0.0193 
     14 C14         1.8376  -16.2800  -50.7278 C.ar      23 UNK        -0.1150 
     15 C15         3.0319  -18.4824  -51.1570 C.3       23 UNK        -0.0205 
     16 S16         2.7057  -19.4378  -49.6394 S.3       23 UNK        -0.2404 
     17 C17         1.0551  -20.1380  -49.9713 C.3       23 UNK        -0.0398 
     18 CA          0.8944  -21.6287  -49.5790 C.3       11 UNK         0.1400 
     19 N           1.1265  -21.8579  -48.1454 N.am      11 UNK        -0.5000 
     20 C           1.3271  -23.0541  -47.5735 C.2       10 UNK         0.5000 
     21 O           1.4559  -24.0994  -48.2108 O.2       10 UNK        -0.5000 
     22 CA          1.3151  -23.1039  -46.0307 C.3       10 UNK         0.1400 
     23 CB          2.7215  -22.8848  -45.4528 C.3       10 UNK        -0.1800 
     24 N           0.3740  -22.1464  -45.4387 N.am      10 UNK        -0.5000 
     25 C          -0.9598  -22.2312  -45.5563 C.2       9 UNK         0.5000 
     26 O          -1.5296  -23.1580  -46.1291 O.2       9 UNK        -0.5000 
     27 CA         -1.7992  -21.0624  -45.0082 C.3       9 UNK         0.1400 
     28 CB         -2.0854  -21.2357  -43.5101 C.3       9 UNK        -0.1800 
     29 N          -1.1705  -19.7631  -45.2467 N.am      9 UNK        -0.5000 
     30 C          -1.0003  -19.2169  -46.4577 C.2       8 UNK         0.5000 
     31 O          -1.4598  -19.7049  -47.4893 O.2       8 UNK        -0.5000 
     32 CA         -0.1537  -17.9336  -46.5426 C.3       8 UNK         0.1400 
     33 CB         -1.0317  -16.6962  -46.3434 C.3       8 UNK        -0.1800 
     34 N           0.9578  -17.9109  -45.5881 N.am      8 UNK        -0.5000 
     35 C           1.9713  -18.7888  -45.6046 C.2       7 UNK         0.5000 
     36 O           2.0838  -19.6770  -46.4448 O.2       7 UNK        -0.5000 
     37 CA          2.9821  -18.7169  -44.4492 C.3       7 UNK         0.1400 
     38 CB          4.0340  -17.6273  -44.6932 C.3       7 UNK        -0.1800 
     39 N           2.3125  -18.4888  -43.1704 N.am      7 UNK        -0.5000 
     40 C           1.5624  -19.4088  -42.5471 C.2       6 UNK         0.5000 
     41 O           1.4183  -20.5613  -42.9555 O.2       6 UNK        -0.5000 
     42 CA          0.8128  -18.9476  -41.2833 C.3       6 UNK         0.1400 
     43 CB          1.7111  -19.0739  -40.0441 C.3       6 UNK        -0.1800 
     44 N           0.3245  -17.5707  -41.3912 N.am      6 UNK        -0.5000 
     45 C          -0.6293  -17.1704  -42.2447 C.2       5 UNK         0.5000 
     46 O          -1.2284  -17.9340  -42.9998 O.2       5 UNK        -0.5000 
     47 CA         -0.9290  -15.6607  -42.2992 C.3       5 UNK         0.1400 
     48 CB         -2.0350  -15.2899  -41.3015 C.3       5 UNK        -0.1800 
     49 N           0.2510  -14.8337  -42.0420 N.am      5 UNK        -0.5000 
     50 C           1.3306  -14.7671  -42.8309 C.2       4 UNK         0.5000 
     51 O           1.4373  -15.3930  -43.8899 O.2       4 UNK        -0.5000 
     52 CA          2.4626  -13.8465  -42.3345 C.3       4 UNK         0.1400 
     53 CB          3.6893  -13.8360  -43.2605 C.3       4 UNK        -0.1800 
     54 N           1.9823  -12.4754  -42.1637 N.am      4 UNK        -0.5000 
     55 C           1.4234  -11.9885  -41.0466 C.2       3 UNK         0.5000 
     56 O           1.2324  -12.6687  -40.0376 O.2       3 UNK        -0.5000 
     57 CA          0.9855  -10.5097  -41.0542 C.3       3 UNK         0.1400 
     58 CB          2.0926   -9.6199  -40.4690 C.3       3 UNK        -0.1800 
     59 N           0.6348  -10.0190  -42.3875 N.am      3 UNK        -0.5000 
     60 C          -0.4571  -10.3892  -43.0681 C.2       2 UNK         0.5000 
     61 O          -1.3233  -11.1378  -42.6125 O.2       2 UNK        -0.5000 
     62 CA         -0.5997   -9.8795  -44.5171 C.3       2 UNK         0.1400 
     63 CB          0.3365   -8.7040  -44.8810 C.3       2 UNK        -0.1800 
     64 N          -0.4490  -10.9902  -45.4629 N.am      2 UNK        -0.5000 
     65 C           0.6271  -11.7799  -45.6068 C.2       1 UNK         0.5000 
     66 O           1.6867  -11.5944  -45.0014 O.2       1 UNK        -0.5000 
     67 C          -0.5028  -22.1058  -50.0449 C.2       11 UNK         0.5000 
     68 O          -0.7552  -22.1097  -51.2517 O.2       11 UNK        -0.5000 
     69 N          -1.4006  -22.4228  -49.0958 N.am      12 UNK        -0.5000 
     70 CA         -2.8276  -22.7209  -49.2703 C.3       12 UNK         0.1400 
     71 CB         -3.0129  -24.0191  -50.0781 C.3       12 UNK        -0.1800 
     72 C          -3.6321  -21.5289  -49.8400 C.2       12 UNK         0.5000 
     73 O          -4.7090  -21.7190  -50.4050 O.2       12 UNK        -0.5000 
     74 N          -3.0852  -20.3162  -49.6902 N.am      13 UNK        -0.5000 
     75 CA         -3.6206  -19.0655  -50.2149 C.3       13 UNK         0.1400 
     76 CB         -2.4466  -18.1272  -50.5360 C.3       13 UNK        -0.1800 
     77 C          -4.5936  -18.4007  -49.2296 C.2       13 UNK         0.5000 
     78 O          -5.5283  -17.7325  -49.6721 O.2       13 UNK        -0.5000 
     79 N          -4.3664  -18.5939  -47.9211 N.am      14 UNK        -0.5000 
     80 CA         -5.2488  -18.1121  -46.8572 C.3       14 UNK         0.1400 
     81 CB         -4.5180  -18.1443  -45.5036 C.3       14 UNK        -0.1800 
     82 C          -6.5535  -18.9250  -46.8138 C.2       14 UNK         0.5000 
     83 O          -7.6263  -18.3776  -47.0706 O.2       14 UNK        -0.5000 
     84 N          -6.4215  -20.2218  -46.5165 N.am      15 UNK        -0.5000 
     85 CA         -7.4848  -21.2170  -46.4419 C.3       15 UNK         0.1400 
     86 CB         -8.4694  -20.8912  -45.2988 C.3       15 UNK        -0.1800 
     87 C          -6.8392  -22.5880  -46.1985 C.2       15 UNK         0.5000 
     88 O          -5.7274  -22.6487  -45.6643 O.2       15 UNK        -0.5000 
     89 N          -7.5776  -23.6490  -46.5523 N.am      16 UNK        -0.5000 
     90 CA         -7.2656  -25.0651  -46.3269 C.3       16 UNK         0.1400 
     91 CB         -7.3411  -25.3829  -44.8156 C.3       16 UNK        -0.1800 
     92 C          -5.9441  -25.5288  -46.9835 C.2       16 UNK         0.5000 
     93 O          -5.4857  -24.9150  -47.9481 O.2       16 UNK        -0.5000 
     94 N          -5.3829  -26.6300  -46.4650 N.am      17 UNK        -0.5000 
     95 CA         -4.1413  -27.3102  -46.8509 C.3       17 UNK         0.1400 
     96 CB         -2.9160  -26.3833  -46.7217 C.3       17 UNK        -0.1800 
     97 C          -4.1897  -28.0107  -48.2230 C.2       17 UNK         0.5000 
     98 O          -3.9164  -29.2102  -48.2887 O.2       17 UNK        -0.5000 
     99 N          -4.5336  -27.2743  -49.2839 N.am      18 UNK        -0.5000 
    100 CA        -4.5694  -27.7277  -50.6747 C.3       18 UNK         0.1400 
    101 CB        -3.1337  -28.0012  -51.1851 C.3       18 UNK        -0.1800 
    102 C         -5.2997  -26.6749  -51.5308 C.2       18 UNK         0.5000 
    103 O         -6.0419  -25.8512  -50.9920 O.2       18 UNK        -0.5000 
    104 N         -5.0604  -26.6977  -52.8474 N.am      19 UNK        -0.5000 
    105 CA        -5.3256  -25.5735  -53.7446 C.3       19 UNK         0.1400 
    106 CB        -5.4835  -26.1002  -55.1792 C.3       19 UNK        -0.1800 
    107 C         -4.1523  -24.5798  -53.6551 C.2       19 UNK         0.5000 
    108 O         -3.0109  -25.0128  -53.4748 O.2       19 UNK        -0.5000 
    109 N         -4.4494  -23.2796  -53.7762 N.am      20 UNK        -0.5000 
    110 CA        -3.4879  -22.1835  -53.6314 C.3       20 UNK         0.1400 
    111 CB        -4.2240  -20.8415  -53.7698 C.3       20 UNK        -0.1800 
    112 C         -2.3267  -22.2544  -54.6376 C.2       20 UNK         0.5000 
    113 O         -2.5622  -22.4849  -55.8265 O.2       20 UNK        -0.5000 
    114 N         -1.1046  -21.9994  -54.1516 N.am      21 UNK        -0.5000 
    115 CA         0.1418  -22.0219  -54.9262 C.3       21 UNK         0.1400 
    116 CB         1.3250  -21.8064  -53.9694 C.3       21 UNK        -0.1800 
    117 C          0.1950  -21.0204  -56.1010 C.2       21 UNK         0.5000 
    118 O          0.9644  -21.2337  -57.0389 O.2       21 UNK        -0.5000 
    119 N         -0.6342  -19.9702  -56.0452 N.am      22 UNK        -0.5000 
    120 CA        -0.8660  -19.0205  -57.1468 C.3       22 UNK         0.1400 
    121 C         -1.7787  -19.5724  -58.2839 C.2       22 UNK         0.5000 
    122 N         -2.4237  -20.7248  -58.1397 N.am      22 UNK        -0.7600 
    123 O         -1.8978  -18.9417  -59.3309 O.2       22 UNK        -0.5000 
    124 C124       -1.3948  -17.6555  -56.6328 C.3       23 UNK        -0.0398 
    125 S125       -0.2017  -16.8146  -55.5392 S.3       23 UNK        -0.2404 
    126 C126       -0.9611  -17.0894  -53.9107 C.3       23 UNK        -0.0205 
    127 H127        4.4943  -14.6071  -46.1836 H         1 UNK         0.0600 
    128 H128        4.4476  -14.7997  -47.9392 H         1 UNK         0.0600 
    129 H129        3.3600  -15.7466  -46.9308 H         1 UNK         0.0600 
    130 H130        1.5439  -14.7013  -45.9253 H         1 UNK         0.3000 
    131 H131       -0.3330  -13.5946  -46.0238 H         1 UNK         0.0600 
    132 H132       -1.0052  -12.0720  -47.8727 H         1 UNK         0.0800 
    133 H133        0.6220  -12.0265  -48.4776 H         1 UNK         0.0800 
    134 H134        0.5036  -13.2197  -50.9203 H         1 UNK         0.0800 
    135 H135        1.7304  -13.8015  -49.8252 H         1 UNK         0.0800 
    136 H136       -0.8349  -14.8814  -52.2911 H         1 UNK         0.1150 
    137 H137        1.1035  -18.6158  -53.0764 H         1 UNK         0.1150 
    138 H138        2.5373  -16.0866  -49.9267 H         1 UNK         0.1150 
    139 H139        3.1575  -19.1743  -51.9915 H         1 UNK         0.0800 
    140 H140        3.9850  -17.9633  -51.0478 H         1 UNK         0.0800 
    141 H141        0.3208  -19.5179  -49.4564 H         1 UNK         0.0800 
    142 H142        0.8486  -20.0229  -51.0352 H         1 UNK         0.0800 
    143 H143        1.6314  -22.2086  -50.1382 H         1 UNK         0.0600 
    144 H144        1.1475  -21.0329  -47.5530 H         1 UNK         0.3000 
    145 H145        0.9907  -24.1052  -45.7394 H         1 UNK         0.0600 
    146 H146        2.7130  -22.9331  -44.3637 H         1 UNK         0.0600 
    147 H147        3.1373  -21.9206  -45.7416 H         1 UNK         0.0600 
    148 H148        3.4091  -23.6533  -45.8078 H         1 UNK         0.0600 
    149 H149        0.7730  -21.3647  -44.9333 H         1 UNK         0.3000 
    150 H150       -2.7557  -21.0764  -45.5347 H         1 UNK         0.0600 
    151 H151       -2.5997  -22.1785  -43.3197 H         1 UNK         0.0600 
    152 H152       -2.7243  -20.4350  -43.1369 H         1 UNK         0.0600 
    153 H153       -1.1697  -21.2357  -42.9197 H         1 UNK         0.0600 
    154 H154       -0.8571  -19.2474  -44.4305 H         1 UNK         0.3000 
    155 H155        0.2718  -17.8856  -47.5473 H         1 UNK         0.0600 
    156 H156       -1.8408  -16.6655  -47.0747 H         1 UNK         0.0600 
    157 H157       -0.4448  -15.7922  -46.4714 H         1 UNK         0.0600 
    158 H158       -1.4761  -16.6678  -45.3501 H         1 UNK         0.0600 
    159 H159        0.9396  -17.1981  -44.8683 H         1 UNK         0.3000 
    160 H160        3.5008  -19.6769  -44.3994 H         1 UNK         0.0600 
    161 H161        3.5817  -16.6392  -44.7451 H         1 UNK         0.0600 
    162 H162        4.5598  -17.7974  -45.6336 H         1 UNK         0.0600 
    163 H163        4.7809  -17.6137  -43.8995 H         1 UNK         0.0600 
    164 H164        2.3487  -17.5527  -42.7962 H         1 UNK         0.3000 
    165 H165       -0.0493  -19.6047  -41.1499 H         1 UNK         0.0600 
    166 H166        1.1661  -18.8200  -39.1348 H         1 UNK         0.0600 
    167 H167        2.0746  -20.0960  -39.9290 H         1 UNK         0.0600 
    168 H168        2.5822  -18.4207  -40.1078 H         1 UNK         0.0600 
    169 H169        0.7618  -16.8809  -40.7984 H         1 UNK         0.3000 
    170 H170       -1.2864  -15.4287  -43.3040 H         1 UNK         0.0600 
    171 H171       -2.9383  -15.8731  -41.4856 H         1 UNK         0.0600 
    172 H172       -1.7277  -15.4745  -40.2714 H         1 UNK         0.0600 
    173 H173       -2.3052  -14.2370  -41.3879 H         1 UNK         0.0600 
    174 H174        0.2435  -14.2702  -41.2004 H         1 UNK         0.3000 
    175 H175        2.7932  -14.2389  -41.3707 H         1 UNK         0.0600 
    176 H176        3.4408  -13.4693  -44.2546 H         1 UNK         0.0600 
    177 H177        4.4766  -13.1975  -42.8599 H         1 UNK         0.0600 
    178 H178        4.1103  -14.8352  -43.3668 H         1 UNK         0.0600 
    179 H179        2.0212  -11.8892  -42.9916 H         1 UNK         0.3000 
    180 H180        0.1050  -10.4231  -40.4139 H         1 UNK         0.0600 
    181 H181        1.7695   -8.5809  -40.4012 H         1 UNK         0.0600 
    182 H182        2.9982   -9.6520  -41.0762 H         1 UNK         0.0600 
    183 H183        2.3609   -9.9419  -39.4619 H         1 UNK         0.0600 
    184 H184        1.3091   -9.4233  -42.8459 H         1 UNK         0.3000 
    185 H185       -1.6258   -9.5220  -44.6149 H         1 UNK         0.0600 
    186 H186        0.1309   -8.3454  -45.8896 H         1 UNK         0.0600 
    187 H187        0.1856   -7.8608  -44.2056 H         1 UNK         0.0600 
    188 H188        1.3914   -8.9762  -44.8409 H         1 UNK         0.0600 
    189 H189       -1.2958  -11.2392  -45.9542 H         1 UNK         0.3000 
    190 H190       -1.0943  -22.3930  -48.1317 H         1 UNK         0.3000 
    191 H191       -3.2313  -22.8979  -48.2724 H         1 UNK         0.0600 
    192 H192       -4.0679  -24.2716  -50.1692 H         1 UNK         0.0600 
    193 H193       -2.5167  -24.8599  -49.5954 H         1 UNK         0.0600 
    194 H194       -2.6097  -23.9365  -51.0848 H         1 UNK         0.0600 
    195 H195       -2.2503  -20.2383  -49.1166 H         1 UNK         0.3000 
    196 H196       -4.1617  -19.2647  -51.1417 H         1 UNK         0.0600 
    197 H197       -2.7983  -17.1983  -50.9865 H         1 UNK         0.0600 
    198 H198       -1.7573  -18.5913  -51.2412 H         1 UNK         0.0600 
    199 H199       -1.8794  -17.8632  -49.6423 H         1 UNK         0.0600 
    200 H200       -3.5623  -19.1451  -47.6513 H         1 UNK         0.3000 
    201 H201       -5.5102  -17.0726  -47.0673 H         1 UNK         0.0600 
    202 H202       -4.1434  -19.1374  -45.2588 H         1 UNK         0.0600 
    203 H203       -5.1830  -17.8383  -44.6950 H         1 UNK         0.0600 
    204 H204       -3.6739  -17.4579  -45.4973 H         1 UNK         0.0600 
    205 H205       -5.5054  -20.6033  -46.3175 H         1 UNK         0.3000 
    206 H206       -8.0138  -21.2372  -47.3968 H         1 UNK         0.0600 
    207 H207       -9.0101  -19.9629  -45.4802 H         1 UNK         0.0600 
    208 H208       -9.2190  -21.6759  -45.1893 H         1 UNK         0.0600 
    209 H209       -7.9532  -20.7966  -44.3426 H         1 UNK         0.0600 
    210 H210       -8.4588  -23.4779  -47.0156 H         1 UNK         0.3000 
    211 H211       -8.0582  -25.6271  -46.8228 H         1 UNK         0.0600 
    212 H212       -6.4994  -24.9537  -44.2703 H         1 UNK         0.0600 
    213 H213       -7.3461  -26.4571  -44.6289 H         1 UNK         0.0600 
    214 H214       -8.2564  -24.9850  -44.3767 H         1 UNK         0.0600 
    215 H215       -5.8714  -27.0676  -45.6966 H         1 UNK         0.3000 
    216 H216       -4.0110  -28.1029  -46.1123 H         1 UNK         0.0600 
    217 H217       -2.8135  -26.0072  -45.7038 H         1 UNK         0.0600 
    218 H218       -2.9773  -25.5210  -47.3842 H         1 UNK         0.0600 
    219 H219       -1.9957  -26.9151  -46.9658 H         1 UNK         0.0600 
    220 H220       -4.8329  -26.3122  -49.1318 H         1 UNK         0.3000 
    221 H221       -5.1516  -28.6496  -50.7239 H         1 UNK         0.0600 
    222 H222       -3.1379  -28.4339  -52.1856 H         1 UNK         0.0600 
    223 H223       -2.5440  -27.0840  -51.2227 H         1 UNK         0.0600 
    224 H224       -2.6023  -28.7085  -50.5493 H         1 UNK         0.0600 
    225 H225       -4.4074  -27.3838  -53.1968 H         1 UNK         0.3000 
    226 H226       -6.2506  -25.0727  -53.4503 H         1 UNK         0.0600 
    227 H227       -6.3074  -26.8107  -55.2496 H         1 UNK         0.0600 
    228 H228       -5.6961  -25.2851  -55.8721 H         1 UNK         0.0600 
    229 H229       -4.5785  -26.5995  -55.5280 H         1 UNK         0.0600 
    230 H230       -5.4064  -23.0108  -53.9502 H         1 UNK         0.3000 
    231 H231       -3.0751  -22.2427  -52.6250 H         1 UNK         0.0600 
    232 H232       -3.5434  -20.0042  -53.6097 H         1 UNK         0.0600 
    233 H233       -5.0243  -20.7521  -53.0351 H         1 UNK         0.0600 
    234 H234       -4.6638  -20.7239  -54.7612 H         1 UNK         0.0600 
    235 H235       -0.9994  -21.8805  -53.1463 H         1 UNK         0.3000 
    236 H236        0.2350  -23.0202  -55.3584 H         1 UNK         0.0600 
    237 H237        1.2510  -20.8534  -53.4480 H         1 UNK         0.0600 
    238 H238        1.3705  -22.5940  -53.2170 H         1 UNK         0.0600 
    239 H239        2.2742  -21.8163  -54.5067 H         1 UNK         0.0600 
    240 H240       -1.2367  -19.8845  -55.2426 H         1 UNK         0.3000 
    241 H241        0.0985  -18.8304  -57.6219 H         1 UNK         0.0600 
    242 H242       -3.0016  -21.0586  -58.8944 H         1 UNK         0.3800 
    243 H243       -2.3512  -21.2785  -57.2907 H         1 UNK         0.3800 
    244 H244       -2.3518  -17.7779  -56.1230 H         1 UNK         0.0800 
    245 H245       -1.5847  -16.9802  -57.4690 H         1 UNK         0.0800 
    246 H246       -1.8542  -16.4697  -53.8166 H         1 UNK         0.0800 
    247 H247       -1.2911  -18.1251  -53.8234 H         1 UNK         0.0800 
@<TRIPOS>BOND
     1    1    2 1    
     2    1  127 1    
     3    1  128 1    
     4    1  129 1    
     5    2    3 2    
     6    2    4 am   BACKBONE|DICT|INTERRES
     7    4    5 1    
     8    4  130 1    
     9    5    6 1    
    10    5   65 1    
    11    5  131 1    
    12    6    7 1    
    13    6  132 1    
    14    6  133 1    
    15    7    8 1    
    16    8    9 1    
    17    8  134 1    
    18    8  135 1    
    19    9   10 ar   
    20    9   14 ar   
    21   10   11 ar   
    22   10  136 1    
    23   11   12 ar   
    24   11  126 1    
    25   12   13 ar   
    26   12  137 1    
    27   13   14 ar   
    28   13   15 1    
    29   14  138 1    
    30   15   16 1    
    31   15  139 1    
    32   15  140 1    
    33   16   17 1    
    34   17   18 1    
    35   17  141 1    
    36   17  142 1    
    37   18   19 1    
    38   18   67 1    
    39   18  143 1    
    40   19   20 am   BACKBONE|DICT|INTERRES
    41   19  144 1    
    42   20   21 2    
    43   20   22 1    
    44   22   23 1    
    45   22   24 1    
    46   22  145 1    
    47   23  146 1    
    48   23  147 1    
    49   23  148 1    
    50   24   25 am   BACKBONE|DICT|INTERRES
    51   24  149 1    
    52   25   26 2    
    53   25   27 1    
    54   27   28 1    
    55   27   29 1    
    56   27  150 1    
    57   28  151 1    
    58   28  152 1    
    59   28  153 1    
    60   29   30 am   BACKBONE|DICT|INTERRES
    61   29  154 1    
    62   30   31 2    
    63   30   32 1    
    64   32   33 1    
    65   32   34 1    
    66   32  155 1    
    67   33  156 1    
    68   33  157 1    
    69   33  158 1    
    70   34   35 am   BACKBONE|DICT|INTERRES
    71   34  159 1    
    72   35   36 2    
    73   35   37 1    
    74   37   38 1    
    75   37   39 1    
    76   37  160 1    
    77   38  161 1    
    78   38  162 1    
    79   38  163 1    
    80   39   40 am   BACKBONE|DICT|INTERRES
    81   39  164 1    
    82   40   41 2    
    83   40   42 1    
    84   42   43 1    
    85   42   44 1    
    86   42  165 1    
    87   43  166 1    
    88   43  167 1    
    89   43  168 1    
    90   44   45 am   BACKBONE|DICT|INTERRES
    91   44  169 1    
    92   45   46 2    
    93   45   47 1    
    94   47   48 1    
    95   47   49 1    
    96   47  170 1    
    97   48  171 1    
    98   48  172 1    
    99   48  173 1    
   100   49   50 am   BACKBONE|DICT|INTERRES
   101   49  174 1    
   102   50   51 2    
   103   50   52 1    
   104   52   53 1    
   105   52   54 1    
   106   52  175 1    
   107   53  176 1    
   108   53  177 1    
   109   53  178 1    
   110   54   55 am   BACKBONE|DICT|INTERRES
   111   54  179 1    
   112   55   56 2    
   113   55   57 1    
   114   57   58 1    
   115   57   59 1    
   116   57  180 1    
   117   58  181 1    
   118   58  182 1    
   119   58  183 1    
   120   59   60 am   BACKBONE|DICT|INTERRES
   121   59  184 1    
   122   60   61 2    
   123   60   62 1    
   124   62   63 1    
   125   62   64 1    
   126   62  185 1    
   127   63  186 1    
   128   63  187 1    
   129   63  188 1    
   130   64   65 am   BACKBONE|DICT|INTERRES
   131   64  189 1    
   132   65   66 2    
   133   67   68 2    
   134   67   69 am   BACKBONE|DICT|INTERRES
   135   69   70 1    
   136   69  190 1    
   137   70   71 1    
   138   70   72 1    
   139   70  191 1    
   140   71  192 1    
   141   71  193 1    
   142   71  194 1    
   143   72   73 2    
   144   72   74 am   BACKBONE|DICT|INTERRES
   145   74   75 1    
   146   74  195 1    
   147   75   76 1    
   148   75   77 1    
   149   75  196 1    
   150   76  197 1    
   151   76  198 1    
   152   76  199 1    
   153   77   78 2    
   154   77   79 am   BACKBONE|DICT|INTERRES
   155   79   80 1    
   156   79  200 1    
   157   80   81 1    
   158   80   82 1    
   159   80  201 1    
   160   81  202 1    
   161   81  203 1    
   162   81  204 1    
   163   82   83 2    
   164   82   84 am   BACKBONE|DICT|INTERRES
   165   84   85 1    
   166   84  205 1    
   167   85   86 1    
   168   85   87 1    
   169   85  206 1    
   170   86  207 1    
   171   86  208 1    
   172   86  209 1    
   173   87   88 2    
   174   87   89 am   BACKBONE|DICT|INTERRES
   175   89   90 1    
   176   89  210 1    
   177   90   91 1    
   178   90   92 1    
   179   90  211 1    
   180   91  212 1    
   181   91  213 1    
   182   91  214 1    
   183   92   93 2    
   184   92   94 am   BACKBONE|DICT|INTERRES
   185   94   95 1    
   186   94  215 1    
   187   95   96 1    
   188   95   97 1    
   189   95  216 1    
   190   96  217 1    
   191   96  218 1    
   192   96  219 1    
   193   97   98 2    
   194   97   99 am   BACKBONE|DICT|INTERRES
   195   99  100 1    
   196   99  220 1    
   197  100  101 1    
   198  100  102 1    
   199  100  221 1    
   200  101  222 1    
   201  101  223 1    
   202  101  224 1    
   203  102  103 2    
   204  102  104 am   BACKBONE|DICT|INTERRES
   205  104  105 1    
   206  104  225 1    
   207  105  106 1    
   208  105  107 1    
   209  105  226 1    
   210  106  227 1    
   211  106  228 1    
   212  106  229 1    
   213  107  108 2    
   214  107  109 am   BACKBONE|DICT|INTERRES
   215  109  110 1    
   216  109  230 1    
   217  110  111 1    
   218  110  112 1    
   219  110  231 1    
   220  111  232 1    
   221  111  233 1    
   222  111  234 1    
   223  112  113 2    
   224  112  114 am   BACKBONE|DICT|INTERRES
   225  114  115 1    
   226  114  235 1    
   227  115  116 1    
   228  115  117 1    
   229  115  236 1    
   230  116  237 1    
   231  116  238 1    
   232  116  239 1    
   233  117  118 2    
   234  117  119 am   BACKBONE|DICT|INTERRES
   235  119  120 1    
   236  119  240 1    
   237  120  121 1    
   238  120  124 1    
   239  120  241 1    
   240  121  122 am   BACKBONE|DICT|INTERRES
   241  121  123 2    
   242  122  242 1    
   243  122  243 1    
   244  124  125 1    
   245  124  244 1    
   246  124  245 1    
   247  125  126 1    
   248  126  246 1    
   249  126  247 1    
@<TRIPOS>SUBSTRUCTURE
     1 UNK         1 GROUP             0       ****    0 ROOT    
