@<TRIPOS>MOLECULE
3R540
247   249    1
SMALL
USER_CHARGES


@<TRIPOS>ATOM
      1 CA          1.0713  -11.8022  -52.1390 C.3       0 UNK        -0.1800 
      2 C           1.3175  -11.8040  -50.6366 C.2       0 UNK         0.5000 
      3 O           1.6254  -10.7580  -50.0639 O.2       0 UNK        -0.5000 
      4 N           1.1927  -12.9745  -50.0009 N.am      1 UNK        -0.5000 
      5 CA          1.3468  -13.1656  -48.5550 C.3       1 UNK         0.1400 
      6 C6          1.4697  -14.6627  -48.1634 C.3       23 UNK        -0.0398 
      7 S7          2.6956  -15.6173  -49.1210 S.3       23 UNK        -0.2404 
      8 C8          1.5702  -16.7306  -50.0169 C.3       23 UNK        -0.0205 
      9 C9          2.3023  -17.8694  -50.7035 C.ar      23 UNK        -0.0193 
     10 C10         2.4871  -17.8611  -52.0864 C.ar      23 UNK        -0.1150 
     11 C11         3.0436  -18.9696  -52.7303 C.ar      23 UNK        -0.0193 
     12 C12         3.4514  -20.0726  -51.9754 C.ar      23 UNK        -0.1150 
     13 C13         3.2898  -20.0911  -50.5864 C.ar      23 UNK        -0.0193 
     14 C14         2.7216  -18.9734  -49.9587 C.ar      23 UNK        -0.1150 
     15 C15         3.7174  -21.3513  -49.8290 C.3       23 UNK        -0.0205 
     16 S16         3.3553  -21.3799  -48.0389 S.3       23 UNK        -0.2404 
     17 C17         1.5297  -21.4591  -48.0137 C.3       23 UNK        -0.0398 
     18 CA          1.0071  -22.7477  -47.3374 C.3       11 UNK         0.1400 
     19 N           1.4679  -22.8556  -45.9556 N.am      11 UNK        -0.5000 
     20 C           1.7039  -23.9958  -45.2996 C.2       10 UNK         0.5000 
     21 O           1.5898  -25.1113  -45.8119 O.2       10 UNK        -0.5000 
     22 CA          2.1305  -23.8557  -43.8222 C.3       10 UNK         0.1400 
     23 CB          2.8113  -25.1209  -43.2594 C.3       10 UNK        -0.1800 
     24 N           2.9434  -22.6607  -43.5713 N.am      10 UNK        -0.5000 
     25 C           4.1604  -22.3701  -44.0573 C.2       9 UNK         0.5000 
     26 O           4.8195  -23.1382  -44.7591 O.2       9 UNK        -0.5000 
     27 CA          4.7506  -20.9856  -43.7071 C.3       9 UNK         0.1400 
     28 CB          4.8405  -20.0990  -44.9586 C.3       9 UNK        -0.1800 
     29 N           3.9907  -20.2658  -42.6834 N.am      9 UNK        -0.5000 
     30 C           4.0239  -20.5309  -41.3711 C.2       8 UNK         0.5000 
     31 O           4.7632  -21.3736  -40.8615 O.2       8 UNK        -0.5000 
     32 CA          3.0336  -19.7505  -40.4854 C.3       8 UNK         0.1400 
     33 CB          3.6359  -18.4052  -40.0534 C.3       8 UNK        -0.1800 
     34 N           1.7392  -19.5236  -41.1356 N.am      8 UNK        -0.5000 
     35 C           0.8834  -20.4943  -41.4884 C.2       7 UNK         0.5000 
     36 O           1.0814  -21.6898  -41.2732 O.2       7 UNK        -0.5000 
     37 CA         -0.3833  -20.0696  -42.2518 C.3       7 UNK         0.1400 
     38 CB         -1.4480  -19.5348  -41.2827 C.3       7 UNK        -0.1800 
     39 N          -0.1104  -19.0780  -43.2925 N.am      7 UNK        -0.5000 
     40 C           0.6456  -19.3046  -44.3771 C.2       6 UNK         0.5000 
     41 O           1.1784  -20.3846  -44.6253 O.2       6 UNK        -0.5000 
     42 CA          0.8974  -18.1112  -45.3162 C.3       6 UNK         0.1400 
     43 CB         -0.2970  -17.8810  -46.2546 C.3       6 UNK        -0.1800 
     44 N           1.1971  -16.8820  -44.5832 N.am      6 UNK        -0.5000 
     45 C           2.2524  -16.7212  -43.7716 C.2       5 UNK         0.5000 
     46 O           3.1276  -17.5705  -43.6056 O.2       5 UNK        -0.5000 
     47 CA          2.3031  -15.4158  -42.9618 C.3       5 UNK         0.1400 
     48 CB          2.8350  -14.2539  -43.8149 C.3       5 UNK        -0.1800 
     49 N           0.9928  -15.0721  -42.4077 N.am      5 UNK        -0.5000 
     50 C           0.3896  -15.7527  -41.4222 C.2       4 UNK         0.5000 
     51 O           0.8913  -16.7241  -40.8577 O.2       4 UNK        -0.5000 
     52 CA         -1.0242  -15.2920  -41.0218 C.3       4 UNK         0.1400 
     53 CB         -0.9499  -14.1439  -40.0045 C.3       4 UNK        -0.1800 
     54 N          -1.8282  -14.8709  -42.1694 N.am      4 UNK        -0.5000 
     55 C          -2.2572  -15.6939  -43.1365 C.2       3 UNK         0.5000 
     56 O          -2.0486  -16.9058  -43.1465 O.2       3 UNK        -0.5000 
     57 CA         -2.9845  -15.0382  -44.3255 C.3       3 UNK         0.1400 
     58 CB         -4.4806  -14.8713  -44.0238 C.3       3 UNK        -0.1800 
     59 N          -2.4078  -13.7446  -44.7125 N.am      3 UNK        -0.5000 
     60 C          -1.1475  -13.5918  -45.1383 C.2       2 UNK         0.5000 
     61 O          -0.3405  -14.5233  -45.2098 O.2       2 UNK        -0.5000 
     62 CA         -0.6882  -12.1672  -45.5052 C.3       2 UNK         0.1400 
     63 CB         -0.1535  -11.4429  -44.2602 C.3       2 UNK        -0.1800 
     64 N           0.3769  -12.2448  -46.5053 N.am      2 UNK        -0.5000 
     65 C           0.1516  -12.5660  -47.7846 C.2       1 UNK         0.5000 
     66 O          -0.9611  -12.5061  -48.3162 O.2       1 UNK        -0.5000 
     67 C          -0.5321  -22.7767  -47.3534 C.2       11 UNK         0.5000 
     68 O          -1.1678  -22.2174  -46.4553 O.2       11 UNK        -0.5000 
     69 N          -1.1088  -23.4017  -48.3894 N.am      12 UNK        -0.5000 
     70 CA         -2.5564  -23.5792  -48.5481 C.3       12 UNK         0.1400 
     71 CB         -2.8351  -24.5011  -49.7428 C.3       12 UNK        -0.1800 
     72 C          -3.3376  -22.2634  -48.7117 C.2       12 UNK         0.5000 
     73 O          -4.5062  -22.2162  -48.3285 O.2       12 UNK        -0.5000 
     74 N          -2.6795  -21.2213  -49.2431 N.am      13 UNK        -0.5000 
     75 CA         -3.2204  -19.8856  -49.5255 C.3       13 UNK         0.1400 
     76 CB         -2.0736  -18.9844  -50.0115 C.3       13 UNK        -0.1800 
     77 C          -3.9577  -19.2051  -48.3525 C.2       13 UNK         0.5000 
     78 O          -4.8423  -18.3833  -48.5906 O.2       13 UNK        -0.5000 
     79 N          -3.6092  -19.5774  -47.1126 N.am      14 UNK        -0.5000 
     80 CA         -4.2658  -19.1278  -45.8848 C.3       14 UNK         0.1400 
     81 CB         -3.4620  -19.6402  -44.6820 C.3       14 UNK        -0.1800 
     82 C          -5.7367  -19.5763  -45.7569 C.2       14 UNK         0.5000 
     83 O          -6.5124  -18.8872  -45.0934 O.2       14 UNK        -0.5000 
     84 N          -6.0885  -20.7149  -46.3708 N.am      15 UNK        -0.5000 
     85 CA         -7.4199  -21.3216  -46.3067 C.3       15 UNK         0.1400 
     86 CB         -7.3138  -22.6812  -45.5977 C.3       15 UNK        -0.1800 
     87 C          -8.0436  -21.4941  -47.7009 C.2       15 UNK         0.5000 
     88 O          -9.2505  -21.3018  -47.8513 O.2       15 UNK        -0.5000 
     89 N          -7.2220  -21.8509  -48.6962 N.am      16 UNK        -0.5000 
     90 CA         -7.6358  -22.1131  -50.0756 C.3       16 UNK         0.1400 
     91 CB         -6.6136  -23.0655  -50.7158 C.3       16 UNK        -0.1800 
     92 C          -7.7931  -20.8346  -50.9216 C.2       16 UNK         0.5000 
     93 O          -8.2895  -20.9191  -52.0458 O.2       16 UNK        -0.5000 
     94 N          -7.3682  -19.6808  -50.3842 N.am      17 UNK        -0.5000 
     95 CA         -7.3559  -18.3646  -51.0247 C.3       17 UNK         0.1400 
     96 CB         -8.7937  -17.8469  -51.2578 C.3       17 UNK        -0.1800 
     97 C          -6.4721  -18.3839  -52.2864 C.2       17 UNK         0.5000 
     98 O          -5.2554  -18.4964  -52.1524 O.2       17 UNK        -0.5000 
     99 N          -7.0804  -18.2924  -53.4746 N.am      18 UNK        -0.5000 
    100 CA        -6.3922  -18.3299  -54.7662 C.3       18 UNK         0.1400 
    101 CB        -7.2150  -17.5133  -55.7761 C.3       18 UNK        -0.1800 
    102 C         -6.1510  -19.7582  -55.2994 C.2       18 UNK         0.5000 
    103 O         -5.4050  -19.9101  -56.2684 O.2       18 UNK        -0.5000 
    104 N         -6.7946  -20.7715  -54.7028 N.am      19 UNK        -0.5000 
    105 CA        -6.6668  -22.1740  -55.1018 C.3       19 UNK         0.1400 
    106 CB        -7.9808  -22.9045  -54.7761 C.3       19 UNK        -0.1800 
    107 C         -5.4691  -22.8595  -54.4172 C.2       19 UNK         0.5000 
    108 O         -4.8925  -22.3164  -53.4719 O.2       19 UNK        -0.5000 
    109 N         -5.1392  -24.0670  -54.8975 N.am      20 UNK        -0.5000 
    110 CA        -4.0667  -24.9408  -54.4107 C.3       20 UNK         0.1400 
    111 CB        -4.4073  -25.4768  -53.0005 C.3       20 UNK        -0.1800 
    112 C         -2.6815  -24.2664  -54.5234 C.2       20 UNK         0.5000 
    113 O         -2.3496  -23.7551  -55.5958 O.2       20 UNK        -0.5000 
    114 N         -1.8944  -24.2792  -53.4398 N.am      21 UNK        -0.5000 
    115 CA        -0.5836  -23.6392  -53.3385 C.3       21 UNK         0.1400 
    116 CB         0.2008  -24.2657  -52.1709 C.3       21 UNK        -0.1800 
    117 C         -0.7149  -22.1089  -53.2066 C.2       21 UNK         0.5000 
    118 O         -0.5820  -21.5711  -52.1058 O.2       21 UNK        -0.5000 
    119 N         -0.9805  -21.4585  -54.3460 N.am      22 UNK        -0.5000 
    120 CA        -1.0211  -19.9999  -54.5598 C.3       22 UNK         0.1400 
    121 C         -2.2266  -19.2547  -53.9132 C.2       22 UNK         0.5000 
    122 N         -3.2162  -19.9296  -53.3510 N.am      22 UNK        -0.7600 
    123 O         -2.2781  -18.0279  -53.9420 O.2       22 UNK        -0.5000 
    124 C124        0.3151  -19.2930  -54.2022 C.3       23 UNK        -0.0398 
    125 S125        1.8006  -20.0255  -54.9781 S.3       23 UNK        -0.2404 
    126 C126        3.1274  -19.0047  -54.2493 C.3       23 UNK        -0.0205 
    127 H127        0.8253  -12.7972  -52.5110 H         1 UNK         0.0600 
    128 H128        1.9601  -11.4533  -52.6647 H         1 UNK         0.0600 
    129 H129        0.2452  -11.1342  -52.3827 H         1 UNK         0.0600 
    130 H130        0.9261  -13.7954  -50.5226 H         1 UNK         0.3000 
    131 H131        2.2577  -12.6503  -48.2427 H         1 UNK         0.0600 
    132 H132        1.7487  -14.7516  -47.1119 H         1 UNK         0.0800 
    133 H133        0.4971  -15.1516  -48.2443 H         1 UNK         0.0800 
    134 H134        0.9923  -16.1548  -50.7412 H         1 UNK         0.0800 
    135 H135        0.8468  -17.1604  -49.3227 H         1 UNK         0.0800 
    136 H136        2.1461  -17.0163  -52.6684 H         1 UNK         0.1150 
    137 H137        3.8660  -20.9352  -52.4785 H         1 UNK         0.1150 
    138 H138        2.5726  -18.9528  -48.8899 H         1 UNK         0.1150 
    139 H139        3.2502  -22.2226  -50.2906 H         1 UNK         0.0800 
    140 H140        4.7936  -21.4763  -49.9546 H         1 UNK         0.0800 
    141 H141        1.1516  -21.3854  -49.0353 H         1 UNK         0.0800 
    142 H142        1.1636  -20.5750  -47.4893 H         1 UNK         0.0800 
    143 H143        1.3779  -23.6039  -47.9054 H         1 UNK         0.0600 
    144 H144        1.5057  -21.9792  -45.4381 H         1 UNK         0.3000 
    145 H145        1.2066  -23.7081  -43.2615 H         1 UNK         0.0600 
    146 H146        3.0923  -24.9848  -42.2151 H         1 UNK         0.0600 
    147 H147        2.1389  -25.9783  -43.3043 H         1 UNK         0.0600 
    148 H148        3.7098  -25.3825  -43.8185 H         1 UNK         0.0600 
    149 H149        2.4879  -21.9493  -43.0141 H         1 UNK         0.3000 
    150 H150        5.7641  -21.1502  -43.3359 H         1 UNK         0.0600 
    151 H151        5.4239  -20.5823  -45.7431 H         1 UNK         0.0600 
    152 H152        5.3226  -19.1473  -44.7346 H         1 UNK         0.0600 
    153 H153        3.8528  -19.8841  -45.3675 H         1 UNK         0.0600 
    154 H154        3.3992  -19.5088  -43.0117 H         1 UNK         0.3000 
    155 H155        2.8546  -20.3456  -39.5876 H         1 UNK         0.0600 
    156 H156        4.5951  -18.5479  -39.5542 H         1 UNK         0.0600 
    157 H157        2.9798  -17.8865  -39.3542 H         1 UNK         0.0600 
    158 H158        3.8032  -17.7468  -40.9062 H         1 UNK         0.0600 
    159 H159        1.4800  -18.5557  -41.3026 H         1 UNK         0.3000 
    160 H160       -0.7890  -20.9574  -42.7416 H         1 UNK         0.0600 
    161 H161       -1.1190  -18.6227  -40.7851 H         1 UNK         0.0600 
    162 H162       -1.6749  -20.2683  -40.5082 H         1 UNK         0.0600 
    163 H163       -2.3799  -19.3137  -41.8020 H         1 UNK         0.0600 
    164 H164       -0.5636  -18.1751  -43.1877 H         1 UNK         0.3000 
    165 H165        1.7673  -18.3539  -45.9302 H         1 UNK         0.0600 
    166 H166       -0.0619  -17.1342  -47.0110 H         1 UNK         0.0600 
    167 H167       -0.5716  -18.7992  -46.7753 H         1 UNK         0.0600 
    168 H168       -1.1757  -17.5335  -45.7122 H         1 UNK         0.0600 
    169 H169        0.5409  -16.1122  -44.6873 H         1 UNK         0.3000 
    170 H170        2.9949  -15.5661  -42.1301 H         1 UNK         0.0600 
    171 H171        3.8306  -14.4801  -44.1988 H         1 UNK         0.0600 
    172 H172        2.1949  -14.0503  -44.6722 H         1 UNK         0.0600 
    173 H173        2.9139  -13.3384  -43.2285 H         1 UNK         0.0600 
    174 H174        0.4870  -14.3277  -42.8625 H         1 UNK         0.3000 
    175 H175       -1.5274  -16.1366  -40.5466 H         1 UNK         0.0600 
    176 H176       -0.3697  -14.4365  -39.1282 H         1 UNK         0.0600 
    177 H177       -0.4783  -13.2569  -40.4295 H         1 UNK         0.0600 
    178 H178       -1.9434  -13.8618  -39.6553 H         1 UNK         0.0600 
    179 H179       -2.0421  -13.8875  -42.2433 H         1 UNK         0.3000 
    180 H180       -2.8861  -15.7126  -45.1789 H         1 UNK         0.0600 
    181 H181       -4.9330  -15.8276  -43.7566 H         1 UNK         0.0600 
    182 H182       -4.6515  -14.1832  -43.1951 H         1 UNK         0.0600 
    183 H183       -5.0182  -14.4918  -44.8929 H         1 UNK         0.0600 
    184 H184       -3.0187  -12.9416  -44.6677 H         1 UNK         0.3000 
    185 H185       -1.5336  -11.6066  -45.9098 H         1 UNK         0.0600 
    186 H186       -0.9281  -11.3489  -43.4982 H         1 UNK         0.0600 
    187 H187        0.6868  -11.9731  -43.8107 H         1 UNK         0.0600 
    188 H188        0.1813  -10.4350  -44.5063 H         1 UNK         0.0600 
    189 H189        1.3129  -12.3390  -46.1402 H         1 UNK         0.3000 
    190 H190       -0.5246  -23.8350  -49.0889 H         1 UNK         0.3000 
    191 H191       -2.9276  -24.0698  -47.6458 H         1 UNK         0.0600 
    192 H192       -2.5777  -24.0169  -50.6840 H         1 UNK         0.0600 
    193 H193       -3.8938  -24.7599  -49.7903 H         1 UNK         0.0600 
    194 H194       -2.2763  -25.4343  -49.6709 H         1 UNK         0.0600 
    195 H195       -1.7327  -21.3810  -49.5554 H         1 UNK         0.3000 
    196 H196       -3.9400  -20.0007  -50.3377 H         1 UNK         0.0600 
    197 H197       -2.4432  -17.9947  -50.2834 H         1 UNK         0.0600 
    198 H198       -1.5910  -19.3979  -50.8963 H         1 UNK         0.0600 
    199 H199       -1.3095  -18.8540  -49.2446 H         1 UNK         0.0600 
    200 H200       -2.8885  -20.2788  -47.0090 H         1 UNK         0.3000 
    201 H201       -4.2469  -18.0360  -45.8730 H         1 UNK         0.0600 
    202 H202       -3.8918  -19.2840  -43.7451 H         1 UNK         0.0600 
    203 H203       -3.4395  -20.7301  -44.6444 H         1 UNK         0.0600 
    204 H204       -2.4339  -19.2885  -44.7187 H         1 UNK         0.0600 
    205 H205       -5.3917  -21.2053  -46.9227 H         1 UNK         0.3000 
    206 H206       -8.1018  -20.6942  -45.7291 H         1 UNK         0.0600 
    207 H207       -6.9440  -22.5643  -44.5789 H         1 UNK         0.0600 
    208 H208       -8.2877  -23.1686  -45.5364 H         1 UNK         0.0600 
    209 H209       -6.6383  -23.3578  -46.1231 H         1 UNK         0.0600 
    210 H210       -6.2340  -22.0016  -48.4997 H         1 UNK         0.3000 
    211 H211       -8.6044  -22.6170  -50.0626 H         1 UNK         0.0600 
    212 H212       -6.9399  -23.3840  -51.7053 H         1 UNK         0.0600 
    213 H213       -6.4779  -23.9657  -50.1163 H         1 UNK         0.0600 
    214 H214       -5.6394  -22.5892  -50.8317 H         1 UNK         0.0600 
    215 H215       -6.9371  -19.7212  -49.4718 H         1 UNK         0.3000 
    216 H216       -6.8731  -17.6820  -50.3241 H         1 UNK         0.0600 
    217 H217       -8.7832  -16.8462  -51.6916 H         1 UNK         0.0600 
    218 H218       -9.3369  -17.7807  -50.3151 H         1 UNK         0.0600 
    219 H219       -9.3707  -18.4906  -51.9220 H         1 UNK         0.0600 
    220 H220       -8.0883  -18.2374  -53.4983 H         1 UNK         0.3000 
    221 H221       -5.4142  -17.8537  -54.6659 H         1 UNK         0.0600 
    222 H222       -8.2063  -17.9422  -55.9278 H         1 UNK         0.0600 
    223 H223       -7.3414  -16.4836  -55.4410 H         1 UNK         0.0600 
    224 H224       -6.7204  -17.4779  -56.7477 H         1 UNK         0.0600 
    225 H225       -7.3336  -20.5935  -53.8623 H         1 UNK         0.3000 
    226 H226       -6.5123  -22.2269  -56.1816 H         1 UNK         0.0600 
    227 H227       -8.8332  -22.4065  -55.2384 H         1 UNK         0.0600 
    228 H228       -7.9664  -23.9292  -55.1485 H         1 UNK         0.0600 
    229 H229       -8.1649  -22.9522  -53.7035 H         1 UNK         0.0600 
    230 H230       -5.6488  -24.4185  -55.6956 H         1 UNK         0.3000 
    231 H231       -4.0372  -25.7962  -55.0868 H         1 UNK         0.0600 
    232 H232       -5.3782  -25.9725  -52.9993 H         1 UNK         0.0600 
    233 H233       -4.4493  -24.6798  -52.2583 H         1 UNK         0.0600 
    234 H234       -3.6762  -26.2130  -52.6647 H         1 UNK         0.0600 
    235 H235       -2.2524  -24.7030  -52.5978 H         1 UNK         0.3000 
    236 H236       -0.0221  -23.8465  -54.2523 H         1 UNK         0.0600 
    237 H237        0.3266  -25.3394  -52.3108 H         1 UNK         0.0600 
    238 H238        1.1978  -23.8291  -52.0977 H         1 UNK         0.0600 
    239 H239       -0.2928  -24.1074  -51.2137 H         1 UNK         0.0600 
    240 H240       -1.1768  -22.0231  -55.1639 H         1 UNK         0.3000 
    241 H241       -1.1693  -19.8791  -55.6332 H         1 UNK         0.0600 
    242 H242       -3.2664  -20.9388  -53.3645 H         1 UNK         0.3800 
    243 H243       -3.9724  -19.4018  -52.9182 H         1 UNK         0.3800 
    244 H244        0.2822  -18.2406  -54.4890 H         1 UNK         0.0800 
    245 H245        0.4346  -19.3110  -53.1190 H         1 UNK         0.0800 
    246 H246        4.0953  -19.4051  -54.5541 H         1 UNK         0.0800 
    247 H247        3.0697  -17.9956  -54.6602 H         1 UNK         0.0800 
@<TRIPOS>BOND
     1    1    2 1    
     2    1  127 1    
     3    1  128 1    
     4    1  129 1    
     5    2    3 2    
     6    2    4 am   BACKBONE|DICT|INTERRES
     7    4    5 1    
     8    4  130 1    
     9    5    6 1    
    10    5   65 1    
    11    5  131 1    
    12    6    7 1    
    13    6  132 1    
    14    6  133 1    
    15    7    8 1    
    16    8    9 1    
    17    8  134 1    
    18    8  135 1    
    19    9   10 ar   
    20    9   14 ar   
    21   10   11 ar   
    22   10  136 1    
    23   11   12 ar   
    24   11  126 1    
    25   12   13 ar   
    26   12  137 1    
    27   13   14 ar   
    28   13   15 1    
    29   14  138 1    
    30   15   16 1    
    31   15  139 1    
    32   15  140 1    
    33   16   17 1    
    34   17   18 1    
    35   17  141 1    
    36   17  142 1    
    37   18   19 1    
    38   18   67 1    
    39   18  143 1    
    40   19   20 am   BACKBONE|DICT|INTERRES
    41   19  144 1    
    42   20   21 2    
    43   20   22 1    
    44   22   23 1    
    45   22   24 1    
    46   22  145 1    
    47   23  146 1    
    48   23  147 1    
    49   23  148 1    
    50   24   25 am   BACKBONE|DICT|INTERRES
    51   24  149 1    
    52   25   26 2    
    53   25   27 1    
    54   27   28 1    
    55   27   29 1    
    56   27  150 1    
    57   28  151 1    
    58   28  152 1    
    59   28  153 1    
    60   29   30 am   BACKBONE|DICT|INTERRES
    61   29  154 1    
    62   30   31 2    
    63   30   32 1    
    64   32   33 1    
    65   32   34 1    
    66   32  155 1    
    67   33  156 1    
    68   33  157 1    
    69   33  158 1    
    70   34   35 am   BACKBONE|DICT|INTERRES
    71   34  159 1    
    72   35   36 2    
    73   35   37 1    
    74   37   38 1    
    75   37   39 1    
    76   37  160 1    
    77   38  161 1    
    78   38  162 1    
    79   38  163 1    
    80   39   40 am   BACKBONE|DICT|INTERRES
    81   39  164 1    
    82   40   41 2    
    83   40   42 1    
    84   42   43 1    
    85   42   44 1    
    86   42  165 1    
    87   43  166 1    
    88   43  167 1    
    89   43  168 1    
    90   44   45 am   BACKBONE|DICT|INTERRES
    91   44  169 1    
    92   45   46 2    
    93   45   47 1    
    94   47   48 1    
    95   47   49 1    
    96   47  170 1    
    97   48  171 1    
    98   48  172 1    
    99   48  173 1    
   100   49   50 am   BACKBONE|DICT|INTERRES
   101   49  174 1    
   102   50   51 2    
   103   50   52 1    
   104   52   53 1    
   105   52   54 1    
   106   52  175 1    
   107   53  176 1    
   108   53  177 1    
   109   53  178 1    
   110   54   55 am   BACKBONE|DICT|INTERRES
   111   54  179 1    
   112   55   56 2    
   113   55   57 1    
   114   57   58 1    
   115   57   59 1    
   116   57  180 1    
   117   58  181 1    
   118   58  182 1    
   119   58  183 1    
   120   59   60 am   BACKBONE|DICT|INTERRES
   121   59  184 1    
   122   60   61 2    
   123   60   62 1    
   124   62   63 1    
   125   62   64 1    
   126   62  185 1    
   127   63  186 1    
   128   63  187 1    
   129   63  188 1    
   130   64   65 am   BACKBONE|DICT|INTERRES
   131   64  189 1    
   132   65   66 2    
   133   67   68 2    
   134   67   69 am   BACKBONE|DICT|INTERRES
   135   69   70 1    
   136   69  190 1    
   137   70   71 1    
   138   70   72 1    
   139   70  191 1    
   140   71  192 1    
   141   71  193 1    
   142   71  194 1    
   143   72   73 2    
   144   72   74 am   BACKBONE|DICT|INTERRES
   145   74   75 1    
   146   74  195 1    
   147   75   76 1    
   148   75   77 1    
   149   75  196 1    
   150   76  197 1    
   151   76  198 1    
   152   76  199 1    
   153   77   78 2    
   154   77   79 am   BACKBONE|DICT|INTERRES
   155   79   80 1    
   156   79  200 1    
   157   80   81 1    
   158   80   82 1    
   159   80  201 1    
   160   81  202 1    
   161   81  203 1    
   162   81  204 1    
   163   82   83 2    
   164   82   84 am   BACKBONE|DICT|INTERRES
   165   84   85 1    
   166   84  205 1    
   167   85   86 1    
   168   85   87 1    
   169   85  206 1    
   170   86  207 1    
   171   86  208 1    
   172   86  209 1    
   173   87   88 2    
   174   87   89 am   BACKBONE|DICT|INTERRES
   175   89   90 1    
   176   89  210 1    
   177   90   91 1    
   178   90   92 1    
   179   90  211 1    
   180   91  212 1    
   181   91  213 1    
   182   91  214 1    
   183   92   93 2    
   184   92   94 am   BACKBONE|DICT|INTERRES
   185   94   95 1    
   186   94  215 1    
   187   95   96 1    
   188   95   97 1    
   189   95  216 1    
   190   96  217 1    
   191   96  218 1    
   192   96  219 1    
   193   97   98 2    
   194   97   99 am   BACKBONE|DICT|INTERRES
   195   99  100 1    
   196   99  220 1    
   197  100  101 1    
   198  100  102 1    
   199  100  221 1    
   200  101  222 1    
   201  101  223 1    
   202  101  224 1    
   203  102  103 2    
   204  102  104 am   BACKBONE|DICT|INTERRES
   205  104  105 1    
   206  104  225 1    
   207  105  106 1    
   208  105  107 1    
   209  105  226 1    
   210  106  227 1    
   211  106  228 1    
   212  106  229 1    
   213  107  108 2    
   214  107  109 am   BACKBONE|DICT|INTERRES
   215  109  110 1    
   216  109  230 1    
   217  110  111 1    
   218  110  112 1    
   219  110  231 1    
   220  111  232 1    
   221  111  233 1    
   222  111  234 1    
   223  112  113 2    
   224  112  114 am   BACKBONE|DICT|INTERRES
   225  114  115 1    
   226  114  235 1    
   227  115  116 1    
   228  115  117 1    
   229  115  236 1    
   230  116  237 1    
   231  116  238 1    
   232  116  239 1    
   233  117  118 2    
   234  117  119 am   BACKBONE|DICT|INTERRES
   235  119  120 1    
   236  119  240 1    
   237  120  121 1    
   238  120  124 1    
   239  120  241 1    
   240  121  122 am   BACKBONE|DICT|INTERRES
   241  121  123 2    
   242  122  242 1    
   243  122  243 1    
   244  124  125 1    
   245  124  244 1    
   246  124  245 1    
   247  125  126 1    
   248  126  246 1    
   249  126  247 1    
@<TRIPOS>SUBSTRUCTURE
     1 UNK         1 GROUP             0       ****    0 ROOT    
