@<TRIPOS>MOLECULE
3R540
247   249    1
SMALL
USER_CHARGES


@<TRIPOS>ATOM
      1 CA          6.3099  -10.9715  -47.2392 C.3       0 UNK        -0.1800 
      2 C           5.0748  -11.5288  -46.5484 C.2       0 UNK         0.5000 
      3 O           5.0285  -11.5650  -45.3191 O.2       0 UNK        -0.5000 
      4 N           4.0691  -11.9432  -47.3313 N.am      1 UNK        -0.5000 
      5 CA          2.8125  -12.5661  -46.8855 C.3       1 UNK         0.1400 
      6 C6          1.9030  -12.9315  -48.0845 C.3       23 UNK        -0.0398 
      7 S7          2.6427  -14.1609  -49.2155 S.3       23 UNK        -0.2404 
      8 C8          1.7415  -15.6476  -48.6858 C.3       23 UNK        -0.0205 
      9 C9          1.8965  -16.8143  -49.6462 C.ar      23 UNK        -0.0193 
     10 C10         1.2455  -16.7923  -50.8831 C.ar      23 UNK        -0.1150 
     11 C11         1.3131  -17.8927  -51.7430 C.ar      23 UNK        -0.0193 
     12 C12         2.0538  -19.0149  -51.3603 C.ar      23 UNK        -0.1150 
     13 C13         2.7149  -19.0465  -50.1290 C.ar      23 UNK        -0.0193 
     14 C14         2.6347  -17.9421  -49.2758 C.ar      23 UNK        -0.1150 
     15 C15         3.5134  -20.2768  -49.7247 C.3       23 UNK        -0.0205 
     16 S16         2.4357  -21.6829  -49.3072 S.3       23 UNK        -0.2404 
     17 C17         1.6905  -21.1107  -47.7437 C.3       23 UNK        -0.0398 
     18 CA          0.7384  -22.1621  -47.1251 C.3       11 UNK         0.1400 
     19 N           0.5278  -21.9413  -45.6930 N.am      11 UNK        -0.5000 
     20 C          -0.0930  -22.7982  -44.8701 C.2       10 UNK         0.5000 
     21 O          -0.5370  -23.8893  -45.2266 O.2       10 UNK        -0.5000 
     22 CA         -0.2925  -22.3424  -43.4137 C.3       10 UNK         0.1400 
     23 CB          1.0064  -22.4921  -42.6081 C.3       10 UNK        -0.1800 
     24 N          -0.7821  -20.9668  -43.3163 N.am      10 UNK        -0.5000 
     25 C          -1.9658  -20.5519  -43.7910 C.2       9 UNK         0.5000 
     26 O          -2.7848  -21.2949  -44.3325 O.2       9 UNK        -0.5000 
     27 CA         -2.2694  -19.0470  -43.6822 C.3       9 UNK         0.1400 
     28 CB         -2.7222  -18.6811  -42.2609 C.3       9 UNK        -0.1800 
     29 N          -1.1330  -18.2098  -44.0662 N.am      9 UNK        -0.5000 
     30 C          -0.5724  -18.1972  -45.2844 C.2       8 UNK         0.5000 
     31 O          -0.9667  -18.8749  -46.2322 O.2       8 UNK        -0.5000 
     32 CA          0.6801  -17.3236  -45.4565 C.3       8 UNK         0.1400 
     33 CB          0.3034  -15.8345  -45.5229 C.3       8 UNK        -0.1800 
     34 N           1.6580  -17.5413  -44.3919 N.am      8 UNK        -0.5000 
     35 C           2.2397  -18.7170  -44.1133 C.2       7 UNK         0.5000 
     36 O           2.0636  -19.7422  -44.7687 O.2       7 UNK        -0.5000 
     37 CA          3.1263  -18.7712  -42.8597 C.3       7 UNK         0.1400 
     38 CB          4.5438  -18.2722  -43.1725 C.3       7 UNK        -0.1800 
     39 N           2.5524  -17.9969  -41.7595 N.am      7 UNK        -0.5000 
     40 C           1.4420  -18.3460  -41.0934 C.2       6 UNK         0.5000 
     41 O           0.8092  -19.3797  -41.3111 O.2       6 UNK        -0.5000 
     42 CA          0.9317  -17.3480  -40.0383 C.3       6 UNK         0.1400 
     43 CB          1.7034  -17.5065  -38.7198 C.3       6 UNK        -0.1800 
     44 N           1.0257  -15.9603  -40.4953 N.am      6 UNK        -0.5000 
     45 C           0.2920  -15.4461  -41.4923 C.2       5 UNK         0.5000 
     46 O          -0.5730  -16.0800  -42.0967 O.2       5 UNK        -0.5000 
     47 CA          0.6038  -13.9966  -41.9107 C.3       5 UNK         0.1400 
     48 CB         -0.2259  -13.0013  -41.0873 C.3       5 UNK        -0.1800 
     49 N           2.0213  -13.6414  -41.8077 N.am      5 UNK        -0.5000 
     50 C           3.0147  -14.2203  -42.4946 C.2       4 UNK         0.5000 
     51 O           2.8490  -15.1889  -43.2373 O.2       4 UNK        -0.5000 
     52 CA          4.4166  -13.6040  -42.3198 C.3       4 UNK         0.1400 
     53 CB          5.4800  -14.2789  -43.2038 C.3       4 UNK        -0.1800 
     54 N           4.4030  -12.1756  -42.6249 N.am      4 UNK        -0.5000 
     55 C           4.0798  -11.1969  -41.7712 C.2       3 UNK         0.5000 
     56 O           3.7211  -11.3962  -40.6099 O.2       3 UNK        -0.5000 
     57 CA          4.1268   -9.7663  -42.3260 C.3       3 UNK         0.1400 
     58 CB          5.5771   -9.3086  -42.5513 C.3       3 UNK        -0.1800 
     59 N           3.3898   -9.6855  -43.5849 N.am      3 UNK        -0.5000 
     60 C           2.0865   -9.3909  -43.6818 C.2       2 UNK         0.5000 
     61 O           1.3765   -9.0994  -42.7187 O.2       2 UNK        -0.5000 
     62 CA          1.4665   -9.4214  -45.0924 C.3       2 UNK         0.1400 
     63 CB          1.5182   -8.0256  -45.7322 C.3       2 UNK        -0.1800 
     64 N           2.1177  -10.3796  -45.9868 N.am      2 UNK        -0.5000 
     65 C           2.0095  -11.7114  -45.8791 C.2       1 UNK         0.5000 
     66 O           1.3125  -12.2708  -45.0332 O.2       1 UNK        -0.5000 
     67 C          -0.5973  -22.2516  -47.8903 C.2       11 UNK         0.5000 
     68 O          -0.7770  -23.1775  -48.6801 O.2       11 UNK        -0.5000 
     69 N          -1.5283  -21.3296  -47.6038 N.am      12 UNK        -0.5000 
     70 CA         -2.8759  -21.3034  -48.1729 C.3       12 UNK         0.1400 
     71 CB         -3.6095  -20.0391  -47.7003 C.3       12 UNK        -0.1800 
     72 C          -3.6940  -22.5646  -47.8440 C.2       12 UNK         0.5000 
     73 O          -4.3681  -23.0956  -48.7278 O.2       12 UNK        -0.5000 
     74 N          -3.5937  -23.0398  -46.5951 N.am      13 UNK        -0.5000 
     75 CA         -4.2092  -24.2828  -46.1346 C.3       13 UNK         0.1400 
     76 CB         -4.1101  -24.3729  -44.6042 C.3       13 UNK        -0.1800 
     77 C          -3.5946  -25.5271  -46.8011 C.2       13 UNK         0.5000 
     78 O          -4.3387  -26.4006  -47.2472 O.2       13 UNK        -0.5000 
     79 N          -2.2568  -25.5760  -46.8777 N.am      14 UNK        -0.5000 
     80 CA         -1.4953  -26.6701  -47.4844 C.3       14 UNK         0.1400 
     81 CB         -0.0028  -26.4964  -47.1639 C.3       14 UNK        -0.1800 
     82 C          -1.7128  -26.7917  -49.0036 C.2       14 UNK         0.5000 
     83 O          -1.8693  -27.9044  -49.5080 O.2       14 UNK        -0.5000 
     84 N          -1.7336  -25.6488  -49.7013 N.am      15 UNK        -0.5000 
     85 CA         -1.9713  -25.5584  -51.1429 C.3       15 UNK         0.1400 
     86 CB         -1.4657  -24.1977  -51.6427 C.3       15 UNK        -0.1800 
     87 C          -3.4497  -25.7427  -51.5334 C.2       15 UNK         0.5000 
     88 O          -3.7270  -26.0049  -52.7038 O.2       15 UNK        -0.5000 
     89 N          -4.3590  -25.5840  -50.5594 N.am      16 UNK        -0.5000 
     90 CA         -5.8165  -25.5529  -50.6959 C.3       16 UNK         0.1400 
     91 CB         -6.3690  -26.9109  -51.1768 C.3       16 UNK        -0.1800 
     92 C          -6.2623  -24.3683  -51.5733 C.2       16 UNK         0.5000 
     93 O          -6.9555  -24.5553  -52.5778 O.2       16 UNK        -0.5000 
     94 N          -5.8440  -23.1593  -51.1715 N.am      17 UNK        -0.5000 
     95 CA         -6.0509  -21.8690  -51.8427 C.3       17 UNK         0.1400 
     96 CB         -5.0758  -20.8417  -51.2463 C.3       17 UNK        -0.1800 
     97 C          -7.5154  -21.3637  -51.8494 C.2       17 UNK         0.5000 
     98 O          -7.7746  -20.1793  -51.6291 O.2       17 UNK        -0.5000 
     99 N          -8.4417  -22.2822  -52.1189 N.am      18 UNK        -0.5000 
    100 CA        -9.8438  -22.0575  -52.4453 C.3       18 UNK         0.1400 
    101 CB       -10.7302  -22.5130  -51.2757 C.3       18 UNK        -0.1800 
    102 C        -10.1782  -22.8272  -53.7339 C.2       18 UNK         0.5000 
    103 O        -10.8782  -22.2928  -54.5947 O.2       18 UNK        -0.5000 
    104 N         -9.6378  -24.0498  -53.8643 N.am      19 UNK        -0.5000 
    105 CA        -9.6227  -24.8200  -55.1063 C.3       19 UNK         0.1400 
    106 CB        -9.4599  -26.3126  -54.7773 C.3       19 UNK        -0.1800 
    107 C         -8.4901  -24.3330  -56.0277 C.2       19 UNK         0.5000 
    108 O         -8.7186  -24.1226  -57.2197 O.2       19 UNK        -0.5000 
    109 N         -7.2985  -24.1351  -55.4479 N.am      20 UNK        -0.5000 
    110 CA        -6.1540  -23.4944  -56.0905 C.3       20 UNK         0.1400 
    111 CB        -4.8691  -23.9704  -55.3937 C.3       20 UNK        -0.1800 
    112 C         -6.2755  -21.9618  -56.0088 C.2       20 UNK         0.5000 
    113 O         -6.9891  -21.4431  -55.1473 O.2       20 UNK        -0.5000 
    114 N         -5.5510  -21.2574  -56.8871 N.am      21 UNK        -0.5000 
    115 CA        -5.4802  -19.7927  -56.8966 C.3       21 UNK         0.1400 
    116 CB        -4.8853  -19.3234  -58.2332 C.3       21 UNK        -0.1800 
    117 C         -4.6679  -19.2266  -55.7146 C.2       21 UNK         0.5000 
    118 O         -4.9982  -18.1556  -55.2051 O.2       21 UNK        -0.5000 
    119 N         -3.6302  -19.9611  -55.3014 N.am      22 UNK        -0.5000 
    120 CA        -2.7414  -19.6730  -54.1721 C.3       22 UNK         0.1400 
    121 C         -1.9490  -20.9532  -53.7832 C.2       22 UNK         0.5000 
    122 N         -1.2605  -20.9474  -52.6511 N.am      22 UNK        -0.7600 
    123 O         -1.9482  -21.9522  -54.5001 O.2       22 UNK        -0.5000 
    124 C124       -1.8261  -18.4416  -54.4311 C.3       23 UNK        -0.0398 
    125 S125       -1.2110  -17.6868  -52.8849 S.3       23 UNK        -0.2404 
    126 C126        0.5913  -17.8744  -53.0834 C.3       23 UNK        -0.0205 
    127 H127        6.4811   -9.9417  -46.9260 H         1 UNK         0.0600 
    128 H128        6.2095  -10.9862  -48.3247 H         1 UNK         0.0600 
    129 H129        7.1861  -11.5610  -46.9698 H         1 UNK         0.0600 
    130 H130        4.1819  -11.8885  -48.3338 H         1 UNK         0.3000 
    131 H131        3.0813  -13.4878  -46.3647 H         1 UNK         0.0600 
    132 H132        0.9390  -13.3064  -47.7351 H         1 UNK         0.0800 
    133 H133        1.6733  -12.0382  -48.6682 H         1 UNK         0.0800 
    134 H134        0.6782  -15.4252  -48.5889 H         1 UNK         0.0800 
    135 H135        2.1039  -15.9209  -47.6959 H         1 UNK         0.0800 
    136 H136        0.6676  -15.9243  -51.1687 H         1 UNK         0.1150 
    137 H137        2.1120  -19.8729  -52.0156 H         1 UNK         0.1150 
    138 H138        3.1333  -17.9679  -48.3170 H         1 UNK         0.1150 
    139 H139        4.1649  -20.5660  -50.5505 H         1 UNK         0.0800 
    140 H140        4.1698  -20.0576  -48.8811 H         1 UNK         0.0800 
    141 H141        1.1823  -20.1565  -47.8951 H         1 UNK         0.0800 
    142 H142        2.5154  -20.9111  -47.0593 H         1 UNK         0.0800 
    143 H143        1.2221  -23.1379  -47.2092 H         1 UNK         0.0600 
    144 H144        0.8982  -21.0737  -45.3112 H         1 UNK         0.3000 
    145 H145       -1.0449  -22.9939  -42.9642 H         1 UNK         0.0600 
    146 H146        0.8497  -22.2422  -41.5586 H         1 UNK         0.0600 
    147 H147        1.3736  -23.5183  -42.6473 H         1 UNK         0.0600 
    148 H148        1.7960  -21.8457  -42.9909 H         1 UNK         0.0600 
    149 H149       -0.1781  -20.2991  -42.8482 H         1 UNK         0.3000 
    150 H150       -3.0900  -18.8247  -44.3672 H         1 UNK         0.0600 
    151 H151       -3.5771  -19.2853  -41.9549 H         1 UNK         0.0600 
    152 H152       -3.0246  -17.6354  -42.2017 H         1 UNK         0.0600 
    153 H153       -1.9279  -18.8397  -41.5309 H         1 UNK         0.0600 
    154 H154       -0.7635  -17.5905  -43.3507 H         1 UNK         0.3000 
    155 H155        1.1534  -17.6083  -46.3975 H         1 UNK         0.0600 
    156 H156       -0.3388  -15.6337  -46.3806 H         1 UNK         0.0600 
    157 H157        1.1856  -15.2008  -45.6133 H         1 UNK         0.0600 
    158 H158       -0.2402  -15.5130  -44.6363 H         1 UNK         0.0600 
    159 H159        1.9167  -16.7307  -43.8354 H         1 UNK         0.3000 
    160 H160        3.1976  -19.8128  -42.5398 H         1 UNK         0.0600 
    161 H161        4.5334  -17.2629  -43.5821 H         1 UNK         0.0600 
    162 H162        5.0245  -18.9153  -43.9106 H         1 UNK         0.0600 
    163 H163        5.1723  -18.2716  -42.2819 H         1 UNK         0.0600 
    164 H164        2.9775  -17.1033  -41.5629 H         1 UNK         0.3000 
    165 H165       -0.1196  -17.5741  -39.8472 H         1 UNK         0.0600 
    166 H166        1.2973  -16.8558  -37.9452 H         1 UNK         0.0600 
    167 H167        1.6367  -18.5307  -38.3503 H         1 UNK         0.0600 
    168 H168        2.7612  -17.2683  -38.8383 H         1 UNK         0.0600 
    169 H169        1.7137  -15.3720  -40.0489 H         1 UNK         0.3000 
    170 H170        0.3167  -13.8890  -42.9581 H         1 UNK         0.0600 
    171 H171       -1.2911  -13.2240  -41.1631 H         1 UNK         0.0600 
    172 H172        0.0427  -13.0298  -40.0306 H         1 UNK         0.0600 
    173 H173       -0.0819  -11.9808  -41.4437 H         1 UNK         0.0600 
    174 H174        2.2548  -12.8472  -41.2240 H         1 UNK         0.3000 
    175 H175        4.7105  -13.7475  -41.2781 H         1 UNK         0.0600 
    176 H176        5.2075  -14.2467  -44.2597 H         1 UNK         0.0600 
    177 H177        6.4494  -13.7922  -43.0953 H         1 UNK         0.0600 
    178 H178        5.6133  -15.3234  -42.9245 H         1 UNK         0.0600 
    179 H179        4.6439  -11.9278  -43.5828 H         1 UNK         0.3000 
    180 H180        3.6772   -9.0998  -41.5867 H         1 UNK         0.0600 
    181 H181        6.0890   -9.9228  -43.2931 H         1 UNK         0.0600 
    182 H182        6.1513   -9.3645  -41.6257 H         1 UNK         0.0600 
    183 H183        5.6126   -8.2744  -42.8937 H         1 UNK         0.0600 
    184 H184        3.8839   -9.9855  -44.4159 H         1 UNK         0.3000 
    185 H185        0.4182   -9.7089  -44.9862 H         1 UNK         0.0600 
    186 H186        1.0182   -7.2887  -45.1022 H         1 UNK         0.0600 
    187 H187        2.5447   -7.6881  -45.8807 H         1 UNK         0.0600 
    188 H188        1.0174   -8.0164  -46.7005 H         1 UNK         0.0600 
    189 H189        2.7108  -10.0005  -46.7106 H         1 UNK         0.3000 
    190 H190       -1.2980  -20.5754  -46.9608 H         1 UNK         0.3000 
    191 H191       -2.7711  -21.2537  -49.2580 H         1 UNK         0.0600 
    192 H192       -3.6527  -19.9836  -46.6126 H         1 UNK         0.0600 
    193 H193       -4.6357  -20.0122  -48.0663 H         1 UNK         0.0600 
    194 H194       -3.1112  -19.1390  -48.0607 H         1 UNK         0.0600 
    195 H195       -3.0579  -22.5144  -45.9109 H         1 UNK         0.3000 
    196 H196       -5.2676  -24.2515  -46.4021 H         1 UNK         0.0600 
    197 H197       -4.5740  -25.2885  -44.2354 H         1 UNK         0.0600 
    198 H198       -4.6193  -23.5350  -44.1278 H         1 UNK         0.0600 
    199 H199       -3.0739  -24.3687  -44.2650 H         1 UNK         0.0600 
    200 H200       -1.7136  -24.8299  -46.4518 H         1 UNK         0.3000 
    201 H201       -1.8319  -27.6027  -47.0271 H         1 UNK         0.0600 
    202 H202        0.1723  -26.5040  -46.0880 H         1 UNK         0.0600 
    203 H203        0.3866  -25.5575  -47.5590 H         1 UNK         0.0600 
    204 H204        0.5876  -27.3057  -47.5953 H         1 UNK         0.0600 
    205 H205       -1.5351  -24.7727  -49.2209 H         1 UNK         0.3000 
    206 H206       -1.3958  -26.3412  -51.6413 H         1 UNK         0.0600 
    207 H207       -0.4097  -24.0578  -51.4108 H         1 UNK         0.0600 
    208 H208       -1.5774  -24.1136  -52.7244 H         1 UNK         0.0600 
    209 H209       -2.0229  -23.3766  -51.1891 H         1 UNK         0.0600 
    210 H210       -4.0096  -25.3444  -49.6410 H         1 UNK         0.3000 
    211 H211       -6.2150  -25.3700  -49.6968 H         1 UNK         0.0600 
    212 H212       -6.0582  -27.1441  -52.1955 H         1 UNK         0.0600 
    213 H213       -7.4594  -26.9115  -51.1636 H         1 UNK         0.0600 
    214 H214       -6.0349  -27.7220  -50.5299 H         1 UNK         0.0600 
    215 H215       -5.3013  -23.1203  -50.3104 H         1 UNK         0.3000 
    216 H216       -5.7695  -22.0031  -52.8871 H         1 UNK         0.0600 
    217 H217       -5.1442  -19.8844  -51.7638 H         1 UNK         0.0600 
    218 H218       -4.0443  -21.1835  -51.3301 H         1 UNK         0.0600 
    219 H219       -5.2911  -20.6620  -50.1942 H         1 UNK         0.0600 
    220 H220       -8.0786  -23.2102  -52.3145 H         1 UNK         0.3000 
    221 H221      -10.0205  -20.9965  -52.6341 H         1 UNK         0.0600 
    222 H222      -10.5872  -23.5697  -51.0470 H         1 UNK         0.0600 
    223 H223      -10.5099  -21.9430  -50.3730 H         1 UNK         0.0600 
    224 H224      -11.7858  -22.3644  -51.5061 H         1 UNK         0.0600 
    225 H225       -9.0752  -24.4254  -53.1141 H         1 UNK         0.3000 
    226 H226      -10.5727  -24.6867  -55.6283 H         1 UNK         0.0600 
    227 H227      -10.2875  -26.6725  -54.1660 H         1 UNK         0.0600 
    228 H228       -9.4432  -26.9125  -55.6880 H         1 UNK         0.0600 
    229 H229       -8.5336  -26.5103  -54.2359 H         1 UNK         0.0600 
    230 H230       -7.2041  -24.3120  -54.4524 H         1 UNK         0.3000 
    231 H231       -6.1145  -23.7908  -57.1407 H         1 UNK         0.0600 
    232 H232       -4.7799  -25.0564  -55.4293 H         1 UNK         0.0600 
    233 H233       -4.8387  -23.6723  -54.3454 H         1 UNK         0.0600 
    234 H234       -3.9821  -23.5573  -55.8750 H         1 UNK         0.0600 
    235 H235       -4.9904  -21.7441  -57.5718 H         1 UNK         0.3000 
    236 H236       -6.4957  -19.3974  -56.8208 H         1 UNK         0.0600 
    237 H237       -4.8396  -18.2345  -58.2786 H         1 UNK         0.0600 
    238 H238       -3.8723  -19.7006  -58.3792 H         1 UNK         0.0600 
    239 H239       -5.4932  -19.6571  -59.0744 H         1 UNK         0.0600 
    240 H240       -3.4400  -20.8479  -55.7498 H         1 UNK         0.3000 
    241 H241       -3.3941  -19.4499  -53.3273 H         1 UNK         0.0600 
    242 H242       -0.7372  -21.7677  -52.3935 H         1 UNK         0.3800 
    243 H243       -1.2142  -20.1194  -52.0770 H         1 UNK         0.3800 
    244 H244       -1.0028  -18.7028  -55.0976 H         1 UNK         0.0800 
    245 H245       -2.3786  -17.6578  -54.9493 H         1 UNK         0.0800 
    246 H246        0.9745  -17.0541  -53.6918 H         1 UNK         0.0800 
    247 H247        0.8046  -18.7934  -53.6315 H         1 UNK         0.0800 
@<TRIPOS>BOND
     1    1    2 1    
     2    1  127 1    
     3    1  128 1    
     4    1  129 1    
     5    2    3 2    
     6    2    4 am   BACKBONE|DICT|INTERRES
     7    4    5 1    
     8    4  130 1    
     9    5    6 1    
    10    5   65 1    
    11    5  131 1    
    12    6    7 1    
    13    6  132 1    
    14    6  133 1    
    15    7    8 1    
    16    8    9 1    
    17    8  134 1    
    18    8  135 1    
    19    9   10 ar   
    20    9   14 ar   
    21   10   11 ar   
    22   10  136 1    
    23   11   12 ar   
    24   11  126 1    
    25   12   13 ar   
    26   12  137 1    
    27   13   14 ar   
    28   13   15 1    
    29   14  138 1    
    30   15   16 1    
    31   15  139 1    
    32   15  140 1    
    33   16   17 1    
    34   17   18 1    
    35   17  141 1    
    36   17  142 1    
    37   18   19 1    
    38   18   67 1    
    39   18  143 1    
    40   19   20 am   BACKBONE|DICT|INTERRES
    41   19  144 1    
    42   20   21 2    
    43   20   22 1    
    44   22   23 1    
    45   22   24 1    
    46   22  145 1    
    47   23  146 1    
    48   23  147 1    
    49   23  148 1    
    50   24   25 am   BACKBONE|DICT|INTERRES
    51   24  149 1    
    52   25   26 2    
    53   25   27 1    
    54   27   28 1    
    55   27   29 1    
    56   27  150 1    
    57   28  151 1    
    58   28  152 1    
    59   28  153 1    
    60   29   30 am   BACKBONE|DICT|INTERRES
    61   29  154 1    
    62   30   31 2    
    63   30   32 1    
    64   32   33 1    
    65   32   34 1    
    66   32  155 1    
    67   33  156 1    
    68   33  157 1    
    69   33  158 1    
    70   34   35 am   BACKBONE|DICT|INTERRES
    71   34  159 1    
    72   35   36 2    
    73   35   37 1    
    74   37   38 1    
    75   37   39 1    
    76   37  160 1    
    77   38  161 1    
    78   38  162 1    
    79   38  163 1    
    80   39   40 am   BACKBONE|DICT|INTERRES
    81   39  164 1    
    82   40   41 2    
    83   40   42 1    
    84   42   43 1    
    85   42   44 1    
    86   42  165 1    
    87   43  166 1    
    88   43  167 1    
    89   43  168 1    
    90   44   45 am   BACKBONE|DICT|INTERRES
    91   44  169 1    
    92   45   46 2    
    93   45   47 1    
    94   47   48 1    
    95   47   49 1    
    96   47  170 1    
    97   48  171 1    
    98   48  172 1    
    99   48  173 1    
   100   49   50 am   BACKBONE|DICT|INTERRES
   101   49  174 1    
   102   50   51 2    
   103   50   52 1    
   104   52   53 1    
   105   52   54 1    
   106   52  175 1    
   107   53  176 1    
   108   53  177 1    
   109   53  178 1    
   110   54   55 am   BACKBONE|DICT|INTERRES
   111   54  179 1    
   112   55   56 2    
   113   55   57 1    
   114   57   58 1    
   115   57   59 1    
   116   57  180 1    
   117   58  181 1    
   118   58  182 1    
   119   58  183 1    
   120   59   60 am   BACKBONE|DICT|INTERRES
   121   59  184 1    
   122   60   61 2    
   123   60   62 1    
   124   62   63 1    
   125   62   64 1    
   126   62  185 1    
   127   63  186 1    
   128   63  187 1    
   129   63  188 1    
   130   64   65 am   BACKBONE|DICT|INTERRES
   131   64  189 1    
   132   65   66 2    
   133   67   68 2    
   134   67   69 am   BACKBONE|DICT|INTERRES
   135   69   70 1    
   136   69  190 1    
   137   70   71 1    
   138   70   72 1    
   139   70  191 1    
   140   71  192 1    
   141   71  193 1    
   142   71  194 1    
   143   72   73 2    
   144   72   74 am   BACKBONE|DICT|INTERRES
   145   74   75 1    
   146   74  195 1    
   147   75   76 1    
   148   75   77 1    
   149   75  196 1    
   150   76  197 1    
   151   76  198 1    
   152   76  199 1    
   153   77   78 2    
   154   77   79 am   BACKBONE|DICT|INTERRES
   155   79   80 1    
   156   79  200 1    
   157   80   81 1    
   158   80   82 1    
   159   80  201 1    
   160   81  202 1    
   161   81  203 1    
   162   81  204 1    
   163   82   83 2    
   164   82   84 am   BACKBONE|DICT|INTERRES
   165   84   85 1    
   166   84  205 1    
   167   85   86 1    
   168   85   87 1    
   169   85  206 1    
   170   86  207 1    
   171   86  208 1    
   172   86  209 1    
   173   87   88 2    
   174   87   89 am   BACKBONE|DICT|INTERRES
   175   89   90 1    
   176   89  210 1    
   177   90   91 1    
   178   90   92 1    
   179   90  211 1    
   180   91  212 1    
   181   91  213 1    
   182   91  214 1    
   183   92   93 2    
   184   92   94 am   BACKBONE|DICT|INTERRES
   185   94   95 1    
   186   94  215 1    
   187   95   96 1    
   188   95   97 1    
   189   95  216 1    
   190   96  217 1    
   191   96  218 1    
   192   96  219 1    
   193   97   98 2    
   194   97   99 am   BACKBONE|DICT|INTERRES
   195   99  100 1    
   196   99  220 1    
   197  100  101 1    
   198  100  102 1    
   199  100  221 1    
   200  101  222 1    
   201  101  223 1    
   202  101  224 1    
   203  102  103 2    
   204  102  104 am   BACKBONE|DICT|INTERRES
   205  104  105 1    
   206  104  225 1    
   207  105  106 1    
   208  105  107 1    
   209  105  226 1    
   210  106  227 1    
   211  106  228 1    
   212  106  229 1    
   213  107  108 2    
   214  107  109 am   BACKBONE|DICT|INTERRES
   215  109  110 1    
   216  109  230 1    
   217  110  111 1    
   218  110  112 1    
   219  110  231 1    
   220  111  232 1    
   221  111  233 1    
   222  111  234 1    
   223  112  113 2    
   224  112  114 am   BACKBONE|DICT|INTERRES
   225  114  115 1    
   226  114  235 1    
   227  115  116 1    
   228  115  117 1    
   229  115  236 1    
   230  116  237 1    
   231  116  238 1    
   232  116  239 1    
   233  117  118 2    
   234  117  119 am   BACKBONE|DICT|INTERRES
   235  119  120 1    
   236  119  240 1    
   237  120  121 1    
   238  120  124 1    
   239  120  241 1    
   240  121  122 am   BACKBONE|DICT|INTERRES
   241  121  123 2    
   242  122  242 1    
   243  122  243 1    
   244  124  125 1    
   245  124  244 1    
   246  124  245 1    
   247  125  126 1    
   248  126  246 1    
   249  126  247 1    
@<TRIPOS>SUBSTRUCTURE
     1 UNK         1 GROUP             0       ****    0 ROOT    
