@<TRIPOS>MOLECULE
3R540
247   249    1
SMALL
USER_CHARGES


@<TRIPOS>ATOM
      1 CA         -4.3199  -13.0024  -46.1894 C.3       0 UNK        -0.1800 
      2 C          -2.8847  -12.8624  -45.7053 C.2       0 UNK         0.5000 
      3 O          -2.6583  -12.4104  -44.5840 O.2       0 UNK        -0.5000 
      4 N          -1.9133  -13.2651  -46.5341 N.am      1 UNK        -0.5000 
      5 CA         -0.4728  -13.2145  -46.2488 C.3       1 UNK         0.1400 
      6 C6          0.3806  -13.5832  -47.4899 C.3       23 UNK        -0.0398 
      7 S7         -0.0633  -15.1909  -48.2374 S.3       23 UNK        -0.2404 
      8 C8          1.1404  -15.2913  -49.5968 C.3       23 UNK        -0.0205 
      9 C9          1.1003  -16.6663  -50.2441 C.ar      23 UNK        -0.0193 
     10 C10         0.4783  -16.8584  -51.4806 C.ar      23 UNK        -0.1150 
     11 C11         0.4301  -18.1318  -52.0552 C.ar      23 UNK        -0.0193 
     12 C12         0.9894  -19.2178  -51.3750 C.ar      23 UNK        -0.1150 
     13 C13         1.6119  -19.0435  -50.1356 C.ar      23 UNK        -0.0193 
     14 C14         1.6807  -17.7561  -49.5906 C.ar      23 UNK        -0.1150 
     15 C15         2.2072  -20.2620  -49.4275 C.3       23 UNK        -0.0205 
     16 S16         2.3136  -20.1412  -47.6061 S.3       23 UNK        -0.2404 
     17 C17         0.5563  -19.9836  -47.1325 C.3       23 UNK        -0.0398 
     18 CA         -0.0683  -21.3328  -46.7094 C.3       11 UNK         0.1400 
     19 N           0.6481  -21.9516  -45.5911 N.am      11 UNK        -0.5000 
     20 C           0.5918  -23.2564  -45.2882 C.2       10 UNK         0.5000 
     21 O          -0.0638  -24.0741  -45.9318 O.2       10 UNK        -0.5000 
     22 CA          1.3545  -23.7223  -44.0309 C.3       10 UNK         0.1400 
     23 CB          2.7755  -24.1692  -44.4043 C.3       10 UNK        -0.1800 
     24 N           1.4364  -22.7007  -42.9859 N.am      10 UNK        -0.5000 
     25 C           0.3902  -22.0955  -42.4055 C.2       9 UNK         0.5000 
     26 O          -0.7793  -22.4056  -42.6299 O.2       9 UNK        -0.5000 
     27 CA          0.6956  -20.9020  -41.4773 C.3       9 UNK         0.1400 
     28 CB          0.6128  -21.3322  -40.0058 C.3       9 UNK        -0.1800 
     29 N           2.0006  -20.2758  -41.7245 N.am      9 UNK        -0.5000 
     30 C           2.3703  -19.6889  -42.8715 C.2       8 UNK         0.5000 
     31 O           1.6408  -19.6067  -43.8633 O.2       8 UNK        -0.5000 
     32 CA          3.8297  -19.2040  -42.9390 C.3       8 UNK         0.1400 
     33 CB          4.7597  -20.3830  -43.2687 C.3       8 UNK        -0.1800 
     34 N           4.0147  -18.1716  -43.9556 N.am      8 UNK        -0.5000 
     35 C           3.6096  -16.9038  -43.8330 C.2       7 UNK         0.5000 
     36 O           3.0970  -16.4414  -42.8096 O.2       7 UNK        -0.5000 
     37 CA          3.8093  -16.0177  -45.0726 C.3       7 UNK         0.1400 
     38 CB          2.8151  -16.4076  -46.1745 C.3       7 UNK        -0.1800 
     39 N           3.5866  -14.6226  -44.7154 N.am      7 UNK        -0.5000 
     40 C           4.4910  -13.6385  -44.7703 C.2       6 UNK         0.5000 
     41 O           5.6127  -13.7560  -45.2648 O.2       6 UNK        -0.5000 
     42 CA          4.0728  -12.2986  -44.1361 C.3       6 UNK         0.1400 
     43 CB          3.4187  -11.3823  -45.1819 C.3       6 UNK        -0.1800 
     44 N           3.1338  -12.5105  -43.0358 N.am      6 UNK        -0.5000 
     45 C           3.4741  -12.8910  -41.7974 C.2       5 UNK         0.5000 
     46 O           4.6400  -12.9570  -41.4037 O.2       5 UNK        -0.5000 
     47 CA          2.3152  -13.2924  -40.8592 C.3       5 UNK         0.1400 
     48 CB          2.6411  -13.0775  -39.3666 C.3       5 UNK        -0.1800 
     49 N           1.0355  -12.6731  -41.2209 N.am      5 UNK        -0.5000 
     50 C           0.7078  -11.3722  -41.1852 C.2       4 UNK         0.5000 
     51 O           1.4582  -10.4850  -40.7774 O.2       4 UNK        -0.5000 
     52 CA         -0.6870  -10.9858  -41.7219 C.3       4 UNK         0.1400 
     53 CB         -0.5514  -10.2400  -43.0592 C.3       4 UNK        -0.1800 
     54 N          -1.5760  -12.1325  -41.9189 N.am      4 UNK        -0.5000 
     55 C          -2.1610  -12.8391  -40.9422 C.2       3 UNK         0.5000 
     56 O          -2.0811  -12.5545  -39.7471 O.2       3 UNK        -0.5000 
     57 CA         -2.9219  -14.1046  -41.3779 C.3       3 UNK         0.1400 
     58 CB         -4.3660  -13.7678  -41.7802 C.3       3 UNK        -0.1800 
     59 N          -2.2527  -14.7946  -42.4841 N.am      3 UNK        -0.5000 
     60 C          -1.1121  -15.4905  -42.3669 C.2       2 UNK         0.5000 
     61 O          -0.5178  -15.6504  -41.3016 O.2       2 UNK        -0.5000 
     62 CA         -0.5175  -16.0743  -43.6614 C.3       2 UNK         0.1400 
     63 CB         -1.1174  -17.4525  -43.9662 C.3       2 UNK        -0.1800 
     64 N          -0.7191  -15.1983  -44.8148 N.am      2 UNK        -0.5000 
     65 C          -0.0699  -14.0428  -45.0087 C.2       1 UNK         0.5000 
     66 O           0.7910  -13.6105  -44.2414 O.2       1 UNK        -0.5000 
     67 C          -1.5766  -21.1759  -46.4143 C.2       11 UNK         0.5000 
     68 O          -2.3683  -21.1609  -47.3561 O.2       11 UNK        -0.5000 
     69 N          -1.9577  -21.0905  -45.1298 N.am      12 UNK        -0.5000 
     70 CA         -3.3550  -21.1076  -44.6875 C.3       12 UNK         0.1400 
     71 CB         -3.4874  -20.3953  -43.3318 C.3       12 UNK        -0.1800 
     72 C          -3.9040  -22.5428  -44.5962 C.2       12 UNK         0.5000 
     73 O          -5.0878  -22.7559  -44.8574 O.2       12 UNK        -0.5000 
     74 N          -3.0366  -23.4984  -44.2316 N.am      13 UNK        -0.5000 
     75 CA         -3.3476  -24.9274  -44.1514 C.3       13 UNK         0.1400 
     76 CB         -2.2375  -25.6366  -43.3614 C.3       13 UNK        -0.1800 
     77 C          -3.5382  -25.5926  -45.5302 C.2       13 UNK         0.5000 
     78 O          -4.2100  -26.6222  -45.6136 O.2       13 UNK        -0.5000 
     79 N          -2.9448  -25.0046  -46.5784 N.am      14 UNK        -0.5000 
     80 CA         -3.0806  -25.4129  -47.9770 C.3       14 UNK         0.1400 
     81 CB         -2.1247  -24.5668  -48.8344 C.3       14 UNK        -0.1800 
     82 C          -4.5249  -25.2813  -48.5017 C.2       14 UNK         0.5000 
     83 O          -5.3022  -24.4692  -47.9932 O.2       14 UNK        -0.5000 
     84 N          -4.8477  -26.0757  -49.5303 N.am      15 UNK        -0.5000 
     85 CA         -6.1367  -26.0601  -50.2232 C.3       15 UNK         0.1400 
     86 CB         -6.1754  -27.2250  -51.2249 C.3       15 UNK        -0.1800 
     87 C          -6.3891  -24.7282  -50.9524 C.2       15 UNK         0.5000 
     88 O          -5.4422  -24.1108  -51.4455 O.2       15 UNK        -0.5000 
     89 N          -7.6656  -24.3359  -51.0536 N.am      16 UNK        -0.5000 
     90 CA         -8.1048  -23.0974  -51.7031 C.3       16 UNK         0.1400 
     91 CB         -9.6207  -22.9320  -51.5190 C.3       16 UNK        -0.1800 
     92 C          -7.7278  -23.0231  -53.1937 C.2       16 UNK         0.5000 
     93 O          -7.3312  -21.9589  -53.6649 O.2       16 UNK        -0.5000 
     94 N          -7.8100  -24.1634  -53.8937 N.am      17 UNK        -0.5000 
     95 CA         -7.4014  -24.3039  -55.2921 C.3       17 UNK         0.1400 
     96 CB         -7.8732  -25.6641  -55.8270 C.3       17 UNK        -0.1800 
     97 C          -5.8823  -24.1421  -55.4823 C.2       17 UNK         0.5000 
     98 O          -5.4554  -23.4994  -56.4411 O.2       17 UNK        -0.5000 
     99 N          -5.0966  -24.6953  -54.5472 N.am      18 UNK        -0.5000 
    100 CA        -3.6383  -24.5806  -54.5233 C.3       18 UNK         0.1400 
    101 CB        -3.0505  -25.5817  -53.5164 C.3       18 UNK        -0.1800 
    102 C         -3.1833  -23.1462  -54.2090 C.2       18 UNK         0.5000 
    103 O         -2.2715  -22.6436  -54.8649 O.2       18 UNK        -0.5000 
    104 N         -3.8569  -22.5002  -53.2476 N.am      19 UNK        -0.5000 
    105 CA        -3.6467  -21.1002  -52.8807 C.3       19 UNK         0.1400 
    106 CB        -4.4338  -20.7855  -51.6001 C.3       19 UNK        -0.1800 
    107 C         -4.0197  -20.1234  -54.0126 C.2       19 UNK         0.5000 
    108 O         -3.3064  -19.1427  -54.2215 O.2       19 UNK        -0.5000 
    109 N         -5.1100  -20.4153  -54.7367 N.am      20 UNK        -0.5000 
    110 CA        -5.5519  -19.6555  -55.9068 C.3       20 UNK         0.1400 
    111 CB        -6.9715  -20.0886  -56.3035 C.3       20 UNK        -0.1800 
    112 C         -4.5888  -19.7902  -57.0999 C.2       20 UNK         0.5000 
    113 O         -4.3110  -18.7917  -57.7657 O.2       20 UNK        -0.5000 
    114 N         -4.0926  -21.0120  -57.3437 N.am      21 UNK        -0.5000 
    115 CA        -3.1059  -21.3098  -58.3822 C.3       21 UNK         0.1400 
    116 CB        -2.9982  -22.8311  -58.5711 C.3       21 UNK        -0.1800 
    117 C         -1.7292  -20.6962  -58.0709 C.2       21 UNK         0.5000 
    118 O         -1.1419  -20.0479  -58.9381 O.2       21 UNK        -0.5000 
    119 N         -1.2561  -20.8997  -56.8341 N.am      22 UNK        -0.5000 
    120 CA         0.0180  -20.3965  -56.2981 C.3       22 UNK         0.1400 
    121 C          1.2916  -20.9805  -56.9901 C.2       22 UNK         0.5000 
    122 N          1.2182  -22.1565  -57.6027 N.am      22 UNK        -0.7600 
    123 O          2.3642  -20.3834  -56.9633 O.2       22 UNK        -0.5000 
    124 C124        0.0152  -18.8463  -56.1602 C.3       23 UNK        -0.0398 
    125 S125        1.0078  -18.2610  -54.7452 S.3       23 UNK        -0.2404 
    126 C126       -0.2236  -18.3420  -53.4101 C.3       23 UNK        -0.0205 
    127 H127       -4.8837  -13.6407  -45.5091 H         1 UNK         0.0600 
    128 H128       -4.3706  -13.4381  -47.1875 H         1 UNK         0.0600 
    129 H129       -4.8011  -12.0249  -46.2187 H         1 UNK         0.0600 
    130 H130       -2.1586  -13.6459  -47.4374 H         1 UNK         0.3000 
    131 H131       -0.2437  -12.1757  -46.0021 H         1 UNK         0.0600 
    132 H132        0.2565  -12.8134  -48.2527 H         1 UNK         0.0800 
    133 H133        1.4437  -13.5845  -47.2410 H         1 UNK         0.0800 
    134 H134        0.9251  -14.5121  -50.3296 H         1 UNK         0.0800 
    135 H135        2.1452  -15.0954  -49.2208 H         1 UNK         0.0800 
    136 H136        0.0347  -16.0188  -51.9971 H         1 UNK         0.1150 
    137 H137        0.9451  -20.2027  -51.8189 H         1 UNK         0.1150 
    138 H138        2.1668  -17.5946  -48.6420 H         1 UNK         0.1150 
    139 H139        1.6281  -21.1534  -49.6739 H         1 UNK         0.0800 
    140 H140        3.2110  -20.4283  -49.8199 H         1 UNK         0.0800 
    141 H141       -0.0052  -19.5437  -47.9582 H         1 UNK         0.0800 
    142 H142        0.5005  -19.2642  -46.3155 H         1 UNK         0.0800 
    143 H143        0.0094  -22.0059  -47.5664 H         1 UNK         0.0600 
    144 H144        1.1906  -21.3229  -45.0091 H         1 UNK         0.3000 
    145 H145        0.8225  -24.5793  -43.6151 H         1 UNK         0.0600 
    146 H146        3.3024  -24.5749  -43.5405 H         1 UNK         0.0600 
    147 H147        2.7515  -24.9506  -45.1652 H         1 UNK         0.0600 
    148 H148        3.3659  -23.3423  -44.8014 H         1 UNK         0.0600 
    149 H149        2.3612  -22.3834  -42.7387 H         1 UNK         0.3000 
    150 H150       -0.0738  -20.1486  -41.6582 H         1 UNK         0.0600 
    151 H151        1.3775  -22.0695  -39.7582 H         1 UNK         0.0600 
    152 H152       -0.3577  -21.7781  -39.7832 H         1 UNK         0.0600 
    153 H153        0.7372  -20.4799  -39.3376 H         1 UNK         0.0600 
    154 H154        2.6636  -20.3179  -40.9636 H         1 UNK         0.3000 
    155 H155        4.1095  -18.7933  -41.9664 H         1 UNK         0.0600 
    156 H156        4.5108  -20.8357  -44.2298 H         1 UNK         0.0600 
    157 H157        4.6925  -21.1641  -42.5105 H         1 UNK         0.0600 
    158 H158        5.8014  -20.0638  -43.3089 H         1 UNK         0.0600 
    159 H159        4.3799  -18.4841  -44.8431 H         1 UNK         0.3000 
    160 H160        4.8271  -16.1658  -45.4392 H         1 UNK         0.0600 
    161 H161        1.7813  -16.3321  -45.8377 H         1 UNK         0.0600 
    162 H162        2.9778  -17.4358  -46.4948 H         1 UNK         0.0600 
    163 H163        2.9333  -15.7705  -47.0498 H         1 UNK         0.0600 
    164 H164        2.7057  -14.4310  -44.2520 H         1 UNK         0.3000 
    165 H165        4.9694  -11.8050  -43.7556 H         1 UNK         0.0600 
    166 H166        4.1016  -11.1855  -46.0092 H         1 UNK         0.0600 
    167 H167        2.5148  -11.8261  -45.6001 H         1 UNK         0.0600 
    168 H168        3.1478  -10.4200  -44.7469 H         1 UNK         0.0600 
    169 H169        2.1525  -12.5580  -43.2901 H         1 UNK         0.3000 
    170 H170        2.1743  -14.3639  -41.0091 H         1 UNK         0.0600 
    171 H171        3.4970  -13.6817  -39.0637 H         1 UNK         0.0600 
    172 H172        2.8841  -12.0375  -39.1483 H         1 UNK         0.0600 
    173 H173        1.8015  -13.3673  -38.7347 H         1 UNK         0.0600 
    174 H174        0.3435  -13.3095  -41.5919 H         1 UNK         0.3000 
    175 H175       -1.1460  -10.3127  -40.9951 H         1 UNK         0.0600 
    176 H176       -1.5243   -9.9214  -43.4341 H         1 UNK         0.0600 
    177 H177        0.0636   -9.3458  -42.9504 H         1 UNK         0.0600 
    178 H178       -0.0879  -10.8666  -43.8219 H         1 UNK         0.0600 
    179 H179       -1.7712  -12.3905  -42.8827 H         1 UNK         0.3000 
    180 H180       -2.9589  -14.7827  -40.5226 H         1 UNK         0.0600 
    181 H181       -4.4030  -13.0898  -42.6333 H         1 UNK         0.0600 
    182 H182       -4.8961  -13.2866  -40.9574 H         1 UNK         0.0600 
    183 H183       -4.9223  -14.6677  -42.0425 H         1 UNK         0.0600 
    184 H184       -2.6497  -14.6662  -43.4030 H         1 UNK         0.3000 
    185 H185        0.5549  -16.2005  -43.5065 H         1 UNK         0.0600 
    186 H186       -0.9757  -18.1355  -43.1276 H         1 UNK         0.0600 
    187 H187       -2.1863  -17.3866  -44.1702 H         1 UNK         0.0600 
    188 H188       -0.6382  -17.9042  -44.8333 H         1 UNK         0.0600 
    189 H189       -1.4022  -15.4859  -45.5003 H         1 UNK         0.3000 
    190 H190       -1.2551  -21.1541  -44.4055 H         1 UNK         0.3000 
    191 H191       -3.9664  -20.5627  -45.4101 H         1 UNK         0.0600 
    192 H192       -3.1835  -19.3532  -43.4008 H         1 UNK         0.0600 
    193 H193       -4.5230  -20.4036  -42.9897 H         1 UNK         0.0600 
    194 H194       -2.8866  -20.8705  -42.5569 H         1 UNK         0.0600 
    195 H195       -2.1059  -23.2184  -43.9435 H         1 UNK         0.3000 
    196 H196       -4.2827  -25.0388  -43.5987 H         1 UNK         0.0600 
    197 H197       -2.4893  -26.6842  -43.1922 H         1 UNK         0.0600 
    198 H198       -2.0866  -25.1753  -42.3850 H         1 UNK         0.0600 
    199 H199       -1.2886  -25.6122  -43.8966 H         1 UNK         0.0600 
    200 H200       -2.3741  -24.1902  -46.4011 H         1 UNK         0.3000 
    201 H201       -2.7807  -26.4604  -48.0468 H         1 UNK         0.0600 
    202 H202       -2.1602  -24.8717  -49.8811 H         1 UNK         0.0600 
    203 H203       -2.3834  -23.5081  -48.7953 H         1 UNK         0.0600 
    204 H204       -1.0924  -24.6730  -48.5002 H         1 UNK         0.0600 
    205 H205       -4.1448  -26.6916  -49.9110 H         1 UNK         0.3000 
    206 H206       -6.9223  -26.2080  -49.4794 H         1 UNK         0.0600 
    207 H207       -6.0441  -28.1828  -50.7211 H         1 UNK         0.0600 
    208 H208       -7.1328  -27.2639  -51.7462 H         1 UNK         0.0600 
    209 H209       -5.3939  -27.1340  -51.9804 H         1 UNK         0.0600 
    210 H210       -8.3881  -24.9030  -50.6336 H         1 UNK         0.3000 
    211 H211       -7.6083  -22.2662  -51.1980 H         1 UNK         0.0600 
    212 H212      -10.1748  -23.7547  -51.9725 H         1 UNK         0.0600 
    213 H213       -9.9708  -22.0070  -51.9793 H         1 UNK         0.0600 
    214 H214       -9.8874  -22.8885  -50.4629 H         1 UNK         0.0600 
    215 H215       -8.1474  -24.9925  -53.4278 H         1 UNK         0.3000 
    216 H216       -7.8947  -23.5200  -55.8708 H         1 UNK         0.0600 
    217 H217       -7.5942  -25.7890  -56.8742 H         1 UNK         0.0600 
    218 H218       -8.9579  -25.7561  -55.7679 H         1 UNK         0.0600 
    219 H219       -7.4346  -26.4926  -55.2692 H         1 UNK         0.0600 
    220 H220       -5.5291  -25.1524  -53.7590 H         1 UNK         0.3000 
    221 H221       -3.2620  -24.8399  -55.5153 H         1 UNK         0.0600 
    222 H222       -3.3762  -25.3759  -52.4968 H         1 UNK         0.0600 
    223 H223       -3.3400  -26.6036  -53.7615 H         1 UNK         0.0600 
    224 H224       -1.9606  -25.5427  -53.5234 H         1 UNK         0.0600 
    225 H225       -4.5584  -23.0121  -52.7182 H         1 UNK         0.3000 
    226 H226       -2.5842  -20.9687  -52.6659 H         1 UNK         0.0600 
    227 H227       -4.2650  -19.7563  -51.2811 H         1 UNK         0.0600 
    228 H228       -5.5065  -20.9141  -51.7459 H         1 UNK         0.0600 
    229 H229       -4.1281  -21.4356  -50.7796 H         1 UNK         0.0600 
    230 H230       -5.6960  -21.1941  -54.4527 H         1 UNK         0.3000 
    231 H231       -5.5883  -18.6003  -55.6278 H         1 UNK         0.0600 
    232 H232       -7.0156  -21.1499  -56.5490 H         1 UNK         0.0600 
    233 H233       -7.3205  -19.5342  -57.1754 H         1 UNK         0.0600 
    234 H234       -7.6797  -19.9020  -55.4961 H         1 UNK         0.0600 
    235 H235       -4.4198  -21.7955  -56.7880 H         1 UNK         0.3000 
    236 H236       -3.4601  -20.8782  -59.3207 H         1 UNK         0.0600 
    237 H237       -3.9528  -23.2561  -58.8820 H         1 UNK         0.0600 
    238 H238       -2.2659  -23.0794  -59.3402 H         1 UNK         0.0600 
    239 H239       -2.6952  -23.3329  -57.6515 H         1 UNK         0.0600 
    240 H240       -1.7912  -21.4798  -56.1909 H         1 UNK         0.3000 
    241 H241        0.0505  -20.8122  -55.2907 H         1 UNK         0.0600 
    242 H242        0.3510  -22.6686  -57.6261 H         1 UNK         0.3800 
    243 H243        2.0395  -22.5376  -58.0458 H         1 UNK         0.3800 
    244 H244       -1.0032  -18.4781  -56.0238 H         1 UNK         0.0800 
    245 H245        0.3775  -18.3740  -57.0747 H         1 UNK         0.0800 
    246 H246       -0.7188  -19.3136  -53.4290 H         1 UNK         0.0800 
    247 H247       -1.0003  -17.5948  -53.5813 H         1 UNK         0.0800 
@<TRIPOS>BOND
     1    1    2 1    
     2    1  127 1    
     3    1  128 1    
     4    1  129 1    
     5    2    3 2    
     6    2    4 am   BACKBONE|DICT|INTERRES
     7    4    5 1    
     8    4  130 1    
     9    5    6 1    
    10    5   65 1    
    11    5  131 1    
    12    6    7 1    
    13    6  132 1    
    14    6  133 1    
    15    7    8 1    
    16    8    9 1    
    17    8  134 1    
    18    8  135 1    
    19    9   10 ar   
    20    9   14 ar   
    21   10   11 ar   
    22   10  136 1    
    23   11   12 ar   
    24   11  126 1    
    25   12   13 ar   
    26   12  137 1    
    27   13   14 ar   
    28   13   15 1    
    29   14  138 1    
    30   15   16 1    
    31   15  139 1    
    32   15  140 1    
    33   16   17 1    
    34   17   18 1    
    35   17  141 1    
    36   17  142 1    
    37   18   19 1    
    38   18   67 1    
    39   18  143 1    
    40   19   20 am   BACKBONE|DICT|INTERRES
    41   19  144 1    
    42   20   21 2    
    43   20   22 1    
    44   22   23 1    
    45   22   24 1    
    46   22  145 1    
    47   23  146 1    
    48   23  147 1    
    49   23  148 1    
    50   24   25 am   BACKBONE|DICT|INTERRES
    51   24  149 1    
    52   25   26 2    
    53   25   27 1    
    54   27   28 1    
    55   27   29 1    
    56   27  150 1    
    57   28  151 1    
    58   28  152 1    
    59   28  153 1    
    60   29   30 am   BACKBONE|DICT|INTERRES
    61   29  154 1    
    62   30   31 2    
    63   30   32 1    
    64   32   33 1    
    65   32   34 1    
    66   32  155 1    
    67   33  156 1    
    68   33  157 1    
    69   33  158 1    
    70   34   35 am   BACKBONE|DICT|INTERRES
    71   34  159 1    
    72   35   36 2    
    73   35   37 1    
    74   37   38 1    
    75   37   39 1    
    76   37  160 1    
    77   38  161 1    
    78   38  162 1    
    79   38  163 1    
    80   39   40 am   BACKBONE|DICT|INTERRES
    81   39  164 1    
    82   40   41 2    
    83   40   42 1    
    84   42   43 1    
    85   42   44 1    
    86   42  165 1    
    87   43  166 1    
    88   43  167 1    
    89   43  168 1    
    90   44   45 am   BACKBONE|DICT|INTERRES
    91   44  169 1    
    92   45   46 2    
    93   45   47 1    
    94   47   48 1    
    95   47   49 1    
    96   47  170 1    
    97   48  171 1    
    98   48  172 1    
    99   48  173 1    
   100   49   50 am   BACKBONE|DICT|INTERRES
   101   49  174 1    
   102   50   51 2    
   103   50   52 1    
   104   52   53 1    
   105   52   54 1    
   106   52  175 1    
   107   53  176 1    
   108   53  177 1    
   109   53  178 1    
   110   54   55 am   BACKBONE|DICT|INTERRES
   111   54  179 1    
   112   55   56 2    
   113   55   57 1    
   114   57   58 1    
   115   57   59 1    
   116   57  180 1    
   117   58  181 1    
   118   58  182 1    
   119   58  183 1    
   120   59   60 am   BACKBONE|DICT|INTERRES
   121   59  184 1    
   122   60   61 2    
   123   60   62 1    
   124   62   63 1    
   125   62   64 1    
   126   62  185 1    
   127   63  186 1    
   128   63  187 1    
   129   63  188 1    
   130   64   65 am   BACKBONE|DICT|INTERRES
   131   64  189 1    
   132   65   66 2    
   133   67   68 2    
   134   67   69 am   BACKBONE|DICT|INTERRES
   135   69   70 1    
   136   69  190 1    
   137   70   71 1    
   138   70   72 1    
   139   70  191 1    
   140   71  192 1    
   141   71  193 1    
   142   71  194 1    
   143   72   73 2    
   144   72   74 am   BACKBONE|DICT|INTERRES
   145   74   75 1    
   146   74  195 1    
   147   75   76 1    
   148   75   77 1    
   149   75  196 1    
   150   76  197 1    
   151   76  198 1    
   152   76  199 1    
   153   77   78 2    
   154   77   79 am   BACKBONE|DICT|INTERRES
   155   79   80 1    
   156   79  200 1    
   157   80   81 1    
   158   80   82 1    
   159   80  201 1    
   160   81  202 1    
   161   81  203 1    
   162   81  204 1    
   163   82   83 2    
   164   82   84 am   BACKBONE|DICT|INTERRES
   165   84   85 1    
   166   84  205 1    
   167   85   86 1    
   168   85   87 1    
   169   85  206 1    
   170   86  207 1    
   171   86  208 1    
   172   86  209 1    
   173   87   88 2    
   174   87   89 am   BACKBONE|DICT|INTERRES
   175   89   90 1    
   176   89  210 1    
   177   90   91 1    
   178   90   92 1    
   179   90  211 1    
   180   91  212 1    
   181   91  213 1    
   182   91  214 1    
   183   92   93 2    
   184   92   94 am   BACKBONE|DICT|INTERRES
   185   94   95 1    
   186   94  215 1    
   187   95   96 1    
   188   95   97 1    
   189   95  216 1    
   190   96  217 1    
   191   96  218 1    
   192   96  219 1    
   193   97   98 2    
   194   97   99 am   BACKBONE|DICT|INTERRES
   195   99  100 1    
   196   99  220 1    
   197  100  101 1    
   198  100  102 1    
   199  100  221 1    
   200  101  222 1    
   201  101  223 1    
   202  101  224 1    
   203  102  103 2    
   204  102  104 am   BACKBONE|DICT|INTERRES
   205  104  105 1    
   206  104  225 1    
   207  105  106 1    
   208  105  107 1    
   209  105  226 1    
   210  106  227 1    
   211  106  228 1    
   212  106  229 1    
   213  107  108 2    
   214  107  109 am   BACKBONE|DICT|INTERRES
   215  109  110 1    
   216  109  230 1    
   217  110  111 1    
   218  110  112 1    
   219  110  231 1    
   220  111  232 1    
   221  111  233 1    
   222  111  234 1    
   223  112  113 2    
   224  112  114 am   BACKBONE|DICT|INTERRES
   225  114  115 1    
   226  114  235 1    
   227  115  116 1    
   228  115  117 1    
   229  115  236 1    
   230  116  237 1    
   231  116  238 1    
   232  116  239 1    
   233  117  118 2    
   234  117  119 am   BACKBONE|DICT|INTERRES
   235  119  120 1    
   236  119  240 1    
   237  120  121 1    
   238  120  124 1    
   239  120  241 1    
   240  121  122 am   BACKBONE|DICT|INTERRES
   241  121  123 2    
   242  122  242 1    
   243  122  243 1    
   244  124  125 1    
   245  124  244 1    
   246  124  245 1    
   247  125  126 1    
   248  126  246 1    
   249  126  247 1    
@<TRIPOS>SUBSTRUCTURE
     1 UNK         1 GROUP             0       ****    0 ROOT    
