@<TRIPOS>MOLECULE
3R540
247   249    1
SMALL
USER_CHARGES


@<TRIPOS>ATOM
      1 CA          4.2709  -17.4605  -47.3150 C.3       0 UNK        -0.1800 
      2 C           3.0748  -16.7113  -47.8831 C.2       0 UNK         0.5000 
      3 O           3.0935  -16.3371  -49.0547 O.2       0 UNK        -0.5000 
      4 N           2.0470  -16.4772  -47.0536 N.am      1 UNK        -0.5000 
      5 CA          0.7837  -15.8016  -47.4010 C.3       1 UNK         0.1400 
      6 C6         -0.0696  -16.5913  -48.4304 C.3       23 UNK        -0.0398 
      7 S7         -0.7621  -18.1291  -47.7284 S.3       23 UNK        -0.2404 
      8 C8         -2.5380  -17.7327  -47.7594 C.3       23 UNK        -0.0205 
      9 C9         -3.3981  -18.9110  -47.3302 C.ar      23 UNK        -0.0193 
     10 C10        -3.9901  -19.7408  -48.2878 C.ar      23 UNK        -0.1150 
     11 C11        -4.8249  -20.7921  -47.8961 C.ar      23 UNK        -0.0193 
     12 C12        -5.0439  -21.0247  -46.5353 C.ar      23 UNK        -0.1150 
     13 C13        -4.4403  -20.2164  -45.5666 C.ar      23 UNK        -0.0193 
     14 C14        -3.6306  -19.1517  -45.9734 C.ar      23 UNK        -0.1150 
     15 C15        -4.6730  -20.4854  -44.0847 C.3       23 UNK        -0.0205 
     16 S16        -4.1478  -22.1602  -43.5862 S.3       23 UNK        -0.2404 
     17 C17        -2.3350  -21.9819  -43.4296 C.3       23 UNK        -0.0398 
     18 CA         -1.5615  -22.0090  -44.7702 C.3       11 UNK         0.1400 
     19 N          -0.1304  -21.7615  -44.5861 N.am      11 UNK        -0.5000 
     20 C           0.7460  -21.6099  -45.5905 C.2       10 UNK         0.5000 
     21 O           0.4139  -21.6092  -46.7779 O.2       10 UNK        -0.5000 
     22 CA          2.2327  -21.4432  -45.2246 C.3       10 UNK         0.1400 
     23 CB          2.9416  -20.4848  -46.1941 C.3       10 UNK        -0.1800 
     24 N           2.4158  -20.9601  -43.8555 N.am      10 UNK        -0.5000 
     25 C           2.7398  -21.7237  -42.8046 C.2       9 UNK         0.5000 
     26 O           2.9128  -22.9410  -42.8681 O.2       9 UNK        -0.5000 
     27 CA          2.8667  -21.0104  -41.4452 C.3       9 UNK         0.1400 
     28 CB          4.2271  -20.3072  -41.3262 C.3       9 UNK        -0.1800 
     29 N           1.7990  -20.0404  -41.1987 N.am      9 UNK        -0.5000 
     30 C           0.4986  -20.3427  -41.0746 C.2       8 UNK         0.5000 
     31 O           0.0464  -21.4829  -41.1765 O.2       8 UNK        -0.5000 
     32 CA         -0.4587  -19.1653  -40.8282 C.3       8 UNK         0.1400 
     33 CB         -0.4380  -18.7281  -39.3547 C.3       8 UNK        -0.1800 
     34 N          -0.1125  -18.0361  -41.6900 N.am      8 UNK        -0.5000 
     35 C          -0.5253  -17.9235  -42.9592 C.2       7 UNK         0.5000 
     36 O          -1.3246  -18.6960  -43.4821 O.2       7 UNK        -0.5000 
     37 CA          0.0459  -16.7696  -43.8011 C.3       7 UNK         0.1400 
     38 CB         -0.9295  -15.5823  -43.8193 C.3       7 UNK        -0.1800 
     39 N           1.3613  -16.2992  -43.3646 N.am      7 UNK        -0.5000 
     40 C           2.4957  -17.0055  -43.4296 C.2       6 UNK         0.5000 
     41 O           2.5707  -18.1172  -43.9471 O.2       6 UNK        -0.5000 
     42 CA          3.7414  -16.3860  -42.7661 C.3       6 UNK         0.1400 
     43 CB          4.5099  -15.5015  -43.7602 C.3       6 UNK        -0.1800 
     44 N           3.4400  -15.6217  -41.5490 N.am      6 UNK        -0.5000 
     45 C           2.8405  -16.1253  -40.4595 C.2       5 UNK         0.5000 
     46 O           2.4562  -17.2926  -40.3885 O.2       5 UNK        -0.5000 
     47 CA          2.6069  -15.1921  -39.2538 C.3       5 UNK         0.1400 
     48 CB          3.3560  -15.7244  -38.0221 C.3       5 UNK        -0.1800 
     49 N           3.0318  -13.8087  -39.4893 N.am      5 UNK        -0.5000 
     50 C           2.3396  -12.8068  -40.0501 C.2       4 UNK         0.5000 
     51 O           2.8378  -11.6862  -40.1649 O.2       4 UNK        -0.5000 
     52 CA          0.8894  -13.0298  -40.5464 C.3       4 UNK         0.1400 
     53 CB         -0.1228  -12.6598  -39.4518 C.3       4 UNK        -0.1800 
     54 N           0.6250  -12.2170  -41.7362 N.am      4 UNK        -0.5000 
     55 C           1.1679  -12.4766  -42.9302 C.2       3 UNK         0.5000 
     56 O           1.7845  -13.5185  -43.1702 O.2       3 UNK        -0.5000 
     57 CA          1.0281  -11.4061  -44.0249 C.3       3 UNK         0.1400 
     58 CB          1.7733  -10.1168  -43.6192 C.3       3 UNK        -0.1800 
     59 N           1.5960  -11.9677  -45.2470 N.am      3 UNK        -0.5000 
     60 C           1.6261  -11.4323  -46.4720 C.2       2 UNK         0.5000 
     61 O           1.1198  -10.3496  -46.7677 O.2       2 UNK        -0.5000 
     62 CA          2.3421  -12.2647  -47.5531 C.3       2 UNK         0.1400 
     63 CB          3.8581  -12.0178  -47.5096 C.3       2 UNK        -0.1800 
     64 N           2.0860  -13.6989  -47.4025 N.am      2 UNK        -0.5000 
     65 C           0.9430  -14.3025  -47.7575 C.2       1 UNK         0.5000 
     66 O           0.0140  -13.7040  -48.3018 O.2       1 UNK        -0.5000 
     67 C          -1.7821  -23.3157  -45.5603 C.2       11 UNK         0.5000 
     68 O          -1.2862  -24.3680  -45.1512 O.2       11 UNK        -0.5000 
     69 N          -2.4807  -23.1929  -46.6969 N.am      12 UNK        -0.5000 
     70 CA         -2.7303  -24.2334  -47.6969 C.3       12 UNK         0.1400 
     71 CB         -3.5671  -25.3877  -47.1073 C.3       12 UNK        -0.1800 
     72 C          -1.4577  -24.7130  -48.4304 C.2       12 UNK         0.5000 
     73 O          -1.4560  -25.8205  -48.9703 O.2       12 UNK        -0.5000 
     74 N          -0.4129  -23.8728  -48.4697 N.am      13 UNK        -0.5000 
     75 CA          0.8675  -24.1709  -49.1132 C.3       13 UNK         0.1400 
     76 CB          1.8675  -24.6376  -48.0396 C.3       13 UNK        -0.1800 
     77 C           1.4276  -22.9903  -49.9314 C.2       13 UNK         0.5000 
     78 O           2.5306  -23.1179  -50.4660 O.2       13 UNK        -0.5000 
     79 N           0.6937  -21.8739  -50.0374 N.am      14 UNK        -0.5000 
     80 CA          1.1194  -20.6748  -50.7566 C.3       14 UNK         0.1400 
     81 CB          2.0179  -19.8176  -49.8449 C.3       14 UNK        -0.1800 
     82 C          -0.0897  -19.8738  -51.2627 C.2       14 UNK         0.5000 
     83 O          -1.2179  -20.1002  -50.8147 O.2       14 UNK        -0.5000 
     84 N           0.1923  -18.9457  -52.1907 N.am      15 UNK        -0.5000 
     85 CA         -0.7156  -17.9727  -52.8064 C.3       15 UNK         0.1400 
     86 CB         -1.0069  -16.8236  -51.8182 C.3       15 UNK        -0.1800 
     87 C          -1.9834  -18.6290  -53.3848 C.2       15 UNK         0.5000 
     88 O          -1.8847  -19.3739  -54.3625 O.2       15 UNK        -0.5000 
     89 N          -3.1388  -18.3720  -52.7549 N.am      16 UNK        -0.5000 
     90 CA         -4.4571  -18.8936  -53.1160 C.3       16 UNK         0.1400 
     91 CB         -5.5006  -18.3687  -52.1193 C.3       16 UNK        -0.1800 
     92 C          -4.5250  -20.4271  -53.1931 C.2       16 UNK         0.5000 
     93 O          -5.3044  -20.9464  -53.9915 O.2       16 UNK        -0.5000 
     94 N          -3.6930  -21.1232  -52.4037 N.am      17 UNK        -0.5000 
     95 CA         -3.5697  -22.5818  -52.4064 C.3       17 UNK         0.1400 
     96 CB         -2.6247  -23.0087  -51.2765 C.3       17 UNK        -0.1800 
     97 C          -3.0585  -23.1433  -53.7452 C.2       17 UNK         0.5000 
     98 O          -3.4619  -24.2384  -54.1343 O.2       17 UNK        -0.5000 
     99 N          -2.1916  -22.3811  -54.4224 N.am      18 UNK        -0.5000 
    100 CA        -1.6545  -22.7157  -55.7372 C.3       18 UNK         0.1400 
    101 CB        -0.1983  -22.2311  -55.8220 C.3       18 UNK        -0.1800 
    102 C         -2.5011  -22.0857  -56.8536 C.2       18 UNK         0.5000 
    103 O         -2.7563  -22.7400  -57.8649 O.2       18 UNK        -0.5000 
    104 N         -2.9089  -20.8244  -56.6572 N.am      19 UNK        -0.5000 
    105 CA        -3.5858  -20.0134  -57.6672 C.3       19 UNK         0.1400 
    106 CB        -3.4916  -18.5333  -57.2666 C.3       19 UNK        -0.1800 
    107 C         -5.0519  -20.4072  -57.9215 C.2       19 UNK         0.5000 
    108 O         -5.5104  -20.2775  -59.0578 O.2       19 UNK        -0.5000 
    109 N         -5.7698  -20.8446  -56.8779 N.am      20 UNK        -0.5000 
    110 CA        -7.2204  -21.0542  -56.9231 C.3       20 UNK         0.1400 
    111 CB        -7.9201  -19.7458  -56.5052 C.3       20 UNK        -0.1800 
    112 C         -7.6907  -22.2429  -56.0656 C.2       20 UNK         0.5000 
    113 O         -8.8894  -22.3482  -55.7996 O.2       20 UNK        -0.5000 
    114 N         -6.7593  -23.0944  -55.6062 N.am      21 UNK        -0.5000 
    115 CA        -6.9835  -24.2246  -54.6884 C.3       21 UNK         0.1400 
    116 CB        -7.7603  -25.3517  -55.3999 C.3       21 UNK        -0.1800 
    117 C         -7.6333  -23.8061  -53.3468 C.2       21 UNK         0.5000 
    118 O         -8.3768  -24.5824  -52.7449 O.2       21 UNK        -0.5000 
    119 N         -7.3524  -22.5678  -52.9216 N.am      22 UNK        -0.5000 
    120 CA        -7.9694  -21.8530  -51.7951 C.3       22 UNK         0.1400 
    121 C         -9.4657  -21.4581  -52.0068 C.2       22 UNK         0.5000 
    122 N        -10.0182  -21.5410  -53.2120 N.am      22 UNK        -0.7600 
    123 O        -10.1392  -21.0387  -51.0699 O.2       22 UNK        -0.5000 
    124 C124       -7.6956  -22.5351  -50.4233 C.3       23 UNK        -0.0398 
    125 S125       -7.2499  -21.3271  -49.1272 S.3       23 UNK        -0.2404 
    126 C126       -5.4801  -21.6878  -48.9357 C.3       23 UNK        -0.0205 
    127 H127        4.4369  -18.3793  -47.8776 H         1 UNK         0.0600 
    128 H128        4.1260  -17.7249  -46.2681 H         1 UNK         0.0600 
    129 H129        5.1685  -16.8469  -47.3893 H         1 UNK         0.0600 
    130 H130        2.0959  -16.8394  -46.1117 H         1 UNK         0.3000 
    131 H131        0.2023  -15.7616  -46.4842 H         1 UNK         0.0600 
    132 H132        0.5256  -16.8524  -49.3048 H         1 UNK         0.0800 
    133 H133       -0.8960  -15.9873  -48.8063 H         1 UNK         0.0800 
    134 H134       -2.7276  -16.8801  -47.1055 H         1 UNK         0.0800 
    135 H135       -2.8216  -17.4199  -48.7653 H         1 UNK         0.0800 
    136 H136       -3.8065  -19.5601  -49.3376 H         1 UNK         0.1150 
    137 H137       -5.6833  -21.8409  -46.2286 H         1 UNK         0.1150 
    138 H138       -3.1730  -18.5095  -45.2350 H         1 UNK         0.1150 
    139 H139       -4.1634  -19.7453  -43.4653 H         1 UNK         0.0800 
    140 H140       -5.7384  -20.3778  -43.8774 H         1 UNK         0.0800 
    141 H141       -1.9751  -22.7784  -42.7762 H         1 UNK         0.0800 
    142 H142       -2.1328  -21.0535  -42.8985 H         1 UNK         0.0800 
    143 H143       -1.9183  -21.1775  -45.3766 H         1 UNK         0.0600 
    144 H144        0.2145  -21.7694  -43.6366 H         1 UNK         0.3000 
    145 H145        2.6979  -22.4242  -45.3358 H         1 UNK         0.0600 
    146 H146        3.9672  -20.2884  -45.8820 H         1 UNK         0.0600 
    147 H147        2.4172  -19.5313  -46.2631 H         1 UNK         0.0600 
    148 H148        2.9832  -20.9090  -47.1974 H         1 UNK         0.0600 
    149 H149        2.3210  -19.9549  -43.7273 H         1 UNK         0.3000 
    150 H150        2.8082  -21.7705  -40.6635 H         1 UNK         0.0600 
    151 H151        5.0449  -21.0210  -41.4315 H         1 UNK         0.0600 
    152 H152        4.3393  -19.8225  -40.3561 H         1 UNK         0.0600 
    153 H153        4.3545  -19.5479  -42.0975 H         1 UNK         0.0600 
    154 H154        2.0839  -19.0753  -41.0619 H         1 UNK         0.3000 
    155 H155       -1.4734  -19.4988  -41.0561 H         1 UNK         0.0600 
    156 H156       -0.7600  -19.5437  -38.7063 H         1 UNK         0.0600 
    157 H157       -1.1144  -17.8907  -39.1833 H         1 UNK         0.0600 
    158 H158        0.5568  -18.4275  -39.0267 H         1 UNK         0.0600 
    159 H159        0.5976  -17.4045  -41.3440 H         1 UNK         0.3000 
    160 H160        0.1460  -17.1640  -44.8120 H         1 UNK         0.0600 
    161 H161       -1.0754  -15.1698  -42.8202 H         1 UNK         0.0600 
    162 H162       -1.9068  -15.8857  -44.1972 H         1 UNK         0.0600 
    163 H163       -0.5687  -14.7777  -44.4597 H         1 UNK         0.0600 
    164 H164        1.4199  -15.3454  -43.0173 H         1 UNK         0.3000 
    165 H165        4.3975  -17.2079  -42.4757 H         1 UNK         0.0600 
    166 H166        5.4140  -15.0946  -43.3073 H         1 UNK         0.0600 
    167 H167        4.8199  -16.0752  -44.6335 H         1 UNK         0.0600 
    168 H168        3.9091  -14.6651  -44.1156 H         1 UNK         0.0600 
    169 H169        3.7022  -14.6466  -41.5512 H         1 UNK         0.3000 
    170 H170        1.5418  -15.2183  -39.0196 H         1 UNK         0.0600 
    171 H171        4.4342  -15.7488  -38.1849 H         1 UNK         0.0600 
    172 H172        3.1627  -15.1060  -37.1453 H         1 UNK         0.0600 
    173 H173        3.0387  -16.7388  -37.7757 H         1 UNK         0.0600 
    174 H174        3.9715  -13.6024  -39.1831 H         1 UNK         0.3000 
    175 H175        0.7365  -14.0741  -40.8205 H         1 UNK         0.0600 
    176 H176       -0.0338  -11.6130  -39.1585 H         1 UNK         0.0600 
    177 H177       -1.1461  -12.8284  -39.7880 H         1 UNK         0.0600 
    178 H178        0.0282  -13.2641  -38.5566 H         1 UNK         0.0600 
    179 H179        0.1602  -11.3336  -41.5857 H         1 UNK         0.3000 
    180 H180       -0.0317  -11.1992  -44.1830 H         1 UNK         0.0600 
    181 H181        1.6693   -9.3353  -44.3712 H         1 UNK         0.0600 
    182 H182        2.8386  -10.3011  -43.4741 H         1 UNK         0.0600 
    183 H183        1.3827   -9.7082  -42.6867 H         1 UNK         0.0600 
    184 H184        2.0137  -12.8773  -45.0934 H         1 UNK         0.3000 
    185 H185        1.9736  -11.9399  -48.5286 H         1 UNK         0.0600 
    186 H186        4.0840  -10.9582  -47.6370 H         1 UNK         0.0600 
    187 H187        4.2933  -12.3344  -46.5608 H         1 UNK         0.0600 
    188 H188        4.3676  -12.5565  -48.3089 H         1 UNK         0.0600 
    189 H189        2.8125  -14.2559  -46.9785 H         1 UNK         0.3000 
    190 H190       -2.8348  -22.2753  -46.9325 H         1 UNK         0.3000 
    191 H191       -3.3420  -23.7640  -48.4636 H         1 UNK         0.0600 
    192 H192       -2.9968  -25.9796  -46.3912 H         1 UNK         0.0600 
    193 H193       -3.9061  -26.0653  -47.8916 H         1 UNK         0.0600 
    194 H194       -4.4556  -25.0109  -46.6004 H         1 UNK         0.0600 
    195 H195       -0.4459  -23.0031  -47.9454 H         1 UNK         0.3000 
    196 H196        0.7401  -24.9832  -49.8314 H         1 UNK         0.0600 
    197 H197        1.4844  -25.4981  -47.4908 H         1 UNK         0.0600 
    198 H198        2.0773  -23.8475  -47.3192 H         1 UNK         0.0600 
    199 H199        2.8168  -24.9357  -48.4861 H         1 UNK         0.0600 
    200 H200       -0.2243  -21.8146  -49.6187 H         1 UNK         0.3000 
    201 H201        1.6904  -20.9721  -51.6389 H         1 UNK         0.0600 
    202 H202        2.9470  -20.3359  -49.6092 H         1 UNK         0.0600 
    203 H203        1.5217  -19.5830  -48.9033 H         1 UNK         0.0600 
    204 H204        2.2895  -18.8731  -50.3175 H         1 UNK         0.0600 
    205 H205        1.1489  -18.8820  -52.5087 H         1 UNK         0.3000 
    206 H206       -0.1845  -17.5463  -53.6586 H         1 UNK         0.0600 
    207 H207       -0.0856  -16.3124  -51.5399 H         1 UNK         0.0600 
    208 H208       -1.6614  -16.0726  -52.2628 H         1 UNK         0.0600 
    209 H209       -1.4790  -17.1836  -50.9041 H         1 UNK         0.0600 
    210 H210       -3.1053  -17.7718  -51.9445 H         1 UNK         0.3000 
    211 H211       -4.7052  -18.5048  -54.1043 H         1 UNK         0.0600 
    212 H212       -5.5036  -17.2791  -52.0864 H         1 UNK         0.0600 
    213 H213       -5.3162  -18.7354  -51.1088 H         1 UNK         0.0600 
    214 H214       -6.5051  -18.6838  -52.4045 H         1 UNK         0.0600 
    215 H215       -3.0439  -20.6162  -51.8112 H         1 UNK         0.3000 
    216 H216       -4.5578  -23.0025  -52.2112 H         1 UNK         0.0600 
    217 H217       -2.6815  -24.0855  -51.1148 H         1 UNK         0.0600 
    218 H218       -2.8707  -22.5138  -50.3388 H         1 UNK         0.0600 
    219 H219       -1.5871  -22.7691  -51.5101 H         1 UNK         0.0600 
    220 H220       -1.9559  -21.4662  -54.0572 H         1 UNK         0.3000 
    221 H221       -1.6564  -23.7986  -55.8798 H         1 UNK         0.0600 
    222 H222       -0.1204  -21.1519  -55.6838 H         1 UNK         0.0600 
    223 H223        0.4193  -22.7100  -55.0620 H         1 UNK         0.0600 
    224 H224        0.2366  -22.4707  -56.7931 H         1 UNK         0.0600 
    225 H225       -2.6203  -20.3438  -55.8096 H         1 UNK         0.3000 
    226 H226       -3.0482  -20.1356  -58.6101 H         1 UNK         0.0600 
    227 H227       -2.4536  -18.2209  -57.1504 H         1 UNK         0.0600 
    228 H228       -3.9408  -17.8929  -58.0267 H         1 UNK         0.0600 
    229 H229       -4.0068  -18.3370  -56.3269 H         1 UNK         0.0600 
    230 H230       -5.3410  -20.8999  -55.9590 H         1 UNK         0.3000 
    231 H231       -7.5278  -21.2969  -57.9422 H         1 UNK         0.0600 
    232 H232       -9.0050  -19.8337  -56.5742 H         1 UNK         0.0600 
    233 H233       -7.6257  -18.9163  -57.1483 H         1 UNK         0.0600 
    234 H234       -7.6752  -19.4757  -55.4770 H         1 UNK         0.0600 
    235 H235       -5.7985  -22.9271  -55.8675 H         1 UNK         0.3000 
    236 H236       -6.0007  -24.6192  -54.4348 H         1 UNK         0.0600 
    237 H237       -8.7849  -25.0568  -55.6282 H         1 UNK         0.0600 
    238 H238       -7.2761  -25.6342  -56.3347 H         1 UNK         0.0600 
    239 H239       -7.8088  -26.2468  -54.7787 H         1 UNK         0.0600 
    240 H240       -6.7108  -22.0112  -53.4813 H         1 UNK         0.3000 
    241 H241       -7.4466  -20.8967  -51.7998 H         1 UNK         0.0600 
    242 H242      -10.9822  -21.2718  -53.3263 H         1 UNK         0.3800 
    243 H243       -9.5015  -21.8836  -54.0162 H         1 UNK         0.3800 
    244 H244       -6.8844  -23.2588  -50.5113 H         1 UNK         0.0800 
    245 H245       -8.5569  -23.1164  -50.0897 H         1 UNK         0.0800 
    246 H246       -4.9917  -21.5707  -49.9026 H         1 UNK         0.0800 
    247 H247       -5.3652  -22.7313  -48.6431 H         1 UNK         0.0800 
@<TRIPOS>BOND
     1    1    2 1    
     2    1  127 1    
     3    1  128 1    
     4    1  129 1    
     5    2    3 2    
     6    2    4 am   BACKBONE|DICT|INTERRES
     7    4    5 1    
     8    4  130 1    
     9    5    6 1    
    10    5   65 1    
    11    5  131 1    
    12    6    7 1    
    13    6  132 1    
    14    6  133 1    
    15    7    8 1    
    16    8    9 1    
    17    8  134 1    
    18    8  135 1    
    19    9   10 ar   
    20    9   14 ar   
    21   10   11 ar   
    22   10  136 1    
    23   11   12 ar   
    24   11  126 1    
    25   12   13 ar   
    26   12  137 1    
    27   13   14 ar   
    28   13   15 1    
    29   14  138 1    
    30   15   16 1    
    31   15  139 1    
    32   15  140 1    
    33   16   17 1    
    34   17   18 1    
    35   17  141 1    
    36   17  142 1    
    37   18   19 1    
    38   18   67 1    
    39   18  143 1    
    40   19   20 am   BACKBONE|DICT|INTERRES
    41   19  144 1    
    42   20   21 2    
    43   20   22 1    
    44   22   23 1    
    45   22   24 1    
    46   22  145 1    
    47   23  146 1    
    48   23  147 1    
    49   23  148 1    
    50   24   25 am   BACKBONE|DICT|INTERRES
    51   24  149 1    
    52   25   26 2    
    53   25   27 1    
    54   27   28 1    
    55   27   29 1    
    56   27  150 1    
    57   28  151 1    
    58   28  152 1    
    59   28  153 1    
    60   29   30 am   BACKBONE|DICT|INTERRES
    61   29  154 1    
    62   30   31 2    
    63   30   32 1    
    64   32   33 1    
    65   32   34 1    
    66   32  155 1    
    67   33  156 1    
    68   33  157 1    
    69   33  158 1    
    70   34   35 am   BACKBONE|DICT|INTERRES
    71   34  159 1    
    72   35   36 2    
    73   35   37 1    
    74   37   38 1    
    75   37   39 1    
    76   37  160 1    
    77   38  161 1    
    78   38  162 1    
    79   38  163 1    
    80   39   40 am   BACKBONE|DICT|INTERRES
    81   39  164 1    
    82   40   41 2    
    83   40   42 1    
    84   42   43 1    
    85   42   44 1    
    86   42  165 1    
    87   43  166 1    
    88   43  167 1    
    89   43  168 1    
    90   44   45 am   BACKBONE|DICT|INTERRES
    91   44  169 1    
    92   45   46 2    
    93   45   47 1    
    94   47   48 1    
    95   47   49 1    
    96   47  170 1    
    97   48  171 1    
    98   48  172 1    
    99   48  173 1    
   100   49   50 am   BACKBONE|DICT|INTERRES
   101   49  174 1    
   102   50   51 2    
   103   50   52 1    
   104   52   53 1    
   105   52   54 1    
   106   52  175 1    
   107   53  176 1    
   108   53  177 1    
   109   53  178 1    
   110   54   55 am   BACKBONE|DICT|INTERRES
   111   54  179 1    
   112   55   56 2    
   113   55   57 1    
   114   57   58 1    
   115   57   59 1    
   116   57  180 1    
   117   58  181 1    
   118   58  182 1    
   119   58  183 1    
   120   59   60 am   BACKBONE|DICT|INTERRES
   121   59  184 1    
   122   60   61 2    
   123   60   62 1    
   124   62   63 1    
   125   62   64 1    
   126   62  185 1    
   127   63  186 1    
   128   63  187 1    
   129   63  188 1    
   130   64   65 am   BACKBONE|DICT|INTERRES
   131   64  189 1    
   132   65   66 2    
   133   67   68 2    
   134   67   69 am   BACKBONE|DICT|INTERRES
   135   69   70 1    
   136   69  190 1    
   137   70   71 1    
   138   70   72 1    
   139   70  191 1    
   140   71  192 1    
   141   71  193 1    
   142   71  194 1    
   143   72   73 2    
   144   72   74 am   BACKBONE|DICT|INTERRES
   145   74   75 1    
   146   74  195 1    
   147   75   76 1    
   148   75   77 1    
   149   75  196 1    
   150   76  197 1    
   151   76  198 1    
   152   76  199 1    
   153   77   78 2    
   154   77   79 am   BACKBONE|DICT|INTERRES
   155   79   80 1    
   156   79  200 1    
   157   80   81 1    
   158   80   82 1    
   159   80  201 1    
   160   81  202 1    
   161   81  203 1    
   162   81  204 1    
   163   82   83 2    
   164   82   84 am   BACKBONE|DICT|INTERRES
   165   84   85 1    
   166   84  205 1    
   167   85   86 1    
   168   85   87 1    
   169   85  206 1    
   170   86  207 1    
   171   86  208 1    
   172   86  209 1    
   173   87   88 2    
   174   87   89 am   BACKBONE|DICT|INTERRES
   175   89   90 1    
   176   89  210 1    
   177   90   91 1    
   178   90   92 1    
   179   90  211 1    
   180   91  212 1    
   181   91  213 1    
   182   91  214 1    
   183   92   93 2    
   184   92   94 am   BACKBONE|DICT|INTERRES
   185   94   95 1    
   186   94  215 1    
   187   95   96 1    
   188   95   97 1    
   189   95  216 1    
   190   96  217 1    
   191   96  218 1    
   192   96  219 1    
   193   97   98 2    
   194   97   99 am   BACKBONE|DICT|INTERRES
   195   99  100 1    
   196   99  220 1    
   197  100  101 1    
   198  100  102 1    
   199  100  221 1    
   200  101  222 1    
   201  101  223 1    
   202  101  224 1    
   203  102  103 2    
   204  102  104 am   BACKBONE|DICT|INTERRES
   205  104  105 1    
   206  104  225 1    
   207  105  106 1    
   208  105  107 1    
   209  105  226 1    
   210  106  227 1    
   211  106  228 1    
   212  106  229 1    
   213  107  108 2    
   214  107  109 am   BACKBONE|DICT|INTERRES
   215  109  110 1    
   216  109  230 1    
   217  110  111 1    
   218  110  112 1    
   219  110  231 1    
   220  111  232 1    
   221  111  233 1    
   222  111  234 1    
   223  112  113 2    
   224  112  114 am   BACKBONE|DICT|INTERRES
   225  114  115 1    
   226  114  235 1    
   227  115  116 1    
   228  115  117 1    
   229  115  236 1    
   230  116  237 1    
   231  116  238 1    
   232  116  239 1    
   233  117  118 2    
   234  117  119 am   BACKBONE|DICT|INTERRES
   235  119  120 1    
   236  119  240 1    
   237  120  121 1    
   238  120  124 1    
   239  120  241 1    
   240  121  122 am   BACKBONE|DICT|INTERRES
   241  121  123 2    
   242  122  242 1    
   243  122  243 1    
   244  124  125 1    
   245  124  244 1    
   246  124  245 1    
   247  125  126 1    
   248  126  246 1    
   249  126  247 1    
@<TRIPOS>SUBSTRUCTURE
     1 UNK         1 GROUP             0       ****    0 ROOT    
