@<TRIPOS>MOLECULE
3R540
247   249    1
SMALL
USER_CHARGES


@<TRIPOS>ATOM
      1 CA          3.1713  -13.3183  -49.9141 C.3       0 UNK        -0.1800 
      2 C           1.8985  -13.7535  -49.2018 C.2       0 UNK         0.5000 
      3 O           1.9776  -14.4229  -48.1709 O.2       0 UNK        -0.5000 
      4 N           0.7357  -13.3774  -49.7536 N.am      1 UNK        -0.5000 
      5 CA         -0.6131  -13.6813  -49.2598 C.3       1 UNK         0.1400 
      6 C6         -1.7118  -13.1231  -50.2026 C.3       23 UNK        -0.0398 
      7 S7         -1.6546  -13.8228  -51.8902 S.3       23 UNK        -0.2404 
      8 C8         -3.4065  -14.2587  -52.1826 C.3       23 UNK        -0.0205 
      9 C9         -3.7384  -15.7134  -51.8597 C.ar      23 UNK        -0.0193 
     10 C10        -4.4786  -16.4754  -52.7687 C.ar      23 UNK        -0.1150 
     11 C11        -4.7741  -17.8184  -52.5097 C.ar      23 UNK        -0.0193 
     12 C12        -4.3291  -18.3992  -51.3182 C.ar      23 UNK        -0.1150 
     13 C13        -3.6099  -17.6427  -50.3890 C.ar      23 UNK        -0.0193 
     14 C14        -3.3313  -16.3012  -50.6596 C.ar      23 UNK        -0.1150 
     15 C15        -3.1123  -18.2609  -49.0948 C.3       23 UNK        -0.0205 
     16 S16        -1.3106  -18.4827  -49.1616 S.3       23 UNK        -0.2404 
     17 C17        -0.9339  -18.9362  -47.4429 C.3       23 UNK        -0.0398 
     18 CA         -0.7105  -20.4568  -47.2578 C.3       11 UNK         0.1400 
     19 N           0.2320  -20.7374  -46.1748 N.am      11 UNK        -0.5000 
     20 C           0.7787  -21.9315  -45.9136 C.2       10 UNK         0.5000 
     21 O           0.5687  -22.9419  -46.5838 O.2       10 UNK        -0.5000 
     22 CA          1.6844  -22.0167  -44.6706 C.3       10 UNK         0.1400 
     23 CB          3.0984  -21.5069  -44.9861 C.3       10 UNK        -0.1800 
     24 N           1.1429  -21.2832  -43.5246 N.am      10 UNK        -0.5000 
     25 C          -0.0020  -21.5985  -42.9015 C.2       9 UNK         0.5000 
     26 O          -0.7091  -22.5566  -43.2130 O.2       9 UNK        -0.5000 
     27 CA         -0.4593  -20.6602  -41.7711 C.3       9 UNK         0.1400 
     28 CB          0.3389  -20.9245  -40.4858 C.3       9 UNK        -0.1800 
     29 N          -0.3535  -19.2473  -42.1334 N.am      9 UNK        -0.5000 
     30 C          -1.0249  -18.6647  -43.1370 C.2       8 UNK         0.5000 
     31 O          -1.8371  -19.2500  -43.8528 O.2       8 UNK        -0.5000 
     32 CA         -0.6848  -17.1940  -43.4339 C.3       8 UNK         0.1400 
     33 CB         -1.3703  -16.2587  -42.4266 C.3       8 UNK        -0.1800 
     34 N           0.7575  -16.9383  -43.4503 N.am      8 UNK        -0.5000 
     35 C           1.6276  -17.5463  -44.2710 C.2       7 UNK         0.5000 
     36 O           1.3039  -18.3742  -45.1174 O.2       7 UNK        -0.5000 
     37 CA          3.1135  -17.2121  -44.0932 C.3       7 UNK         0.1400 
     38 CB          3.4539  -15.8978  -44.8042 C.3       7 UNK        -0.1800 
     39 N           3.4766  -17.1348  -42.6806 N.am      7 UNK        -0.5000 
     40 C           3.5504  -18.2018  -41.8720 C.2       6 UNK         0.5000 
     41 O           3.3660  -19.3612  -42.2463 O.2       6 UNK        -0.5000 
     42 CA          3.8309  -17.9154  -40.3860 C.3       6 UNK         0.1400 
     43 CB          5.3287  -17.6700  -40.1502 C.3       6 UNK        -0.1800 
     44 N           3.0645  -16.7743  -39.8821 N.am      6 UNK        -0.5000 
     45 C           1.7282  -16.7484  -39.7841 C.2       5 UNK         0.5000 
     46 O           1.0013  -17.6927  -40.0911 O.2       5 UNK        -0.5000 
     47 CA          1.0911  -15.4374  -39.2909 C.3       5 UNK         0.1400 
     48 CB          1.0019  -15.4297  -37.7576 C.3       5 UNK        -0.1800 
     49 N           1.7743  -14.2209  -39.7410 N.am      5 UNK        -0.5000 
     50 C           1.9615  -13.8600  -41.0179 C.2       4 UNK         0.5000 
     51 O           1.6698  -14.5773  -41.9795 O.2       4 UNK        -0.5000 
     52 CA          2.5411  -12.4476  -41.2301 C.3       4 UNK         0.1400 
     53 CB          3.9713  -12.3101  -40.6661 C.3       4 UNK        -0.1800 
     54 N           2.4345  -12.0167  -42.6285 N.am      4 UNK        -0.5000 
     55 C           3.2071  -12.3353  -43.6752 C.2       3 UNK         0.5000 
     56 O           4.2783  -12.9383  -43.5951 O.2       3 UNK        -0.5000 
     57 CA          2.6458  -11.9339  -45.0577 C.3       3 UNK         0.1400 
     58 CB          3.7053  -12.0041  -46.1710 C.3       3 UNK        -0.1800 
     59 N           1.5089  -12.7743  -45.4422 N.am      3 UNK        -0.5000 
     60 C           0.2825  -12.7231  -44.9027 C.2       2 UNK         0.5000 
     61 O          -0.0512  -11.8919  -44.0549 O.2       2 UNK        -0.5000 
     62 CA         -0.7271  -13.7826  -45.3943 C.3       2 UNK         0.1400 
     63 CB         -2.1804  -13.4864  -44.9704 C.3       2 UNK        -0.1800 
     64 N          -0.6488  -14.0393  -46.8355 N.am      2 UNK        -0.5000 
     65 C          -0.8165  -13.1495  -47.8244 C.2       1 UNK         0.5000 
     66 O          -1.0917  -11.9608  -47.6491 O.2       1 UNK        -0.5000 
     67 C          -2.0429  -21.2070  -47.0657 C.2       11 UNK         0.5000 
     68 O          -2.5589  -21.7754  -48.0254 O.2       11 UNK        -0.5000 
     69 N          -2.5597  -21.2295  -45.8284 N.am      12 UNK        -0.5000 
     70 CA         -3.7565  -21.9802  -45.4492 C.3       12 UNK         0.1400 
     71 CB         -4.1819  -21.5958  -44.0249 C.3       12 UNK        -0.1800 
     72 C          -3.5602  -23.5012  -45.5731 C.2       12 UNK         0.5000 
     73 O          -4.4390  -24.1834  -46.1003 O.2       12 UNK        -0.5000 
     74 N          -2.3982  -23.9992  -45.1269 N.am      13 UNK        -0.5000 
     75 CA         -2.0053  -25.4074  -45.2159 C.3       13 UNK         0.1400 
     76 CB         -0.7122  -25.6275  -44.4168 C.3       13 UNK        -0.1800 
     77 C          -1.8410  -25.9188  -46.6607 C.2       13 UNK         0.5000 
     78 O          -2.0129  -27.1158  -46.8967 O.2       13 UNK        -0.5000 
     79 N          -1.5305  -25.0170  -47.6019 N.am      14 UNK        -0.5000 
     80 CA         -1.4411  -25.2931  -49.0322 C.3       14 UNK         0.1400 
     81 CB         -0.6638  -24.1620  -49.7267 C.3       14 UNK        -0.1800 
     82 C          -2.8419  -25.5017  -49.6398 C.2       14 UNK         0.5000 
     83 O          -3.4665  -24.5471  -50.1056 O.2       14 UNK        -0.5000 
     84 N          -3.3070  -26.7581  -49.5960 N.am      15 UNK        -0.5000 
     85 CA         -4.5271  -27.2832  -50.2189 C.3       15 UNK         0.1400 
     86 CB         -4.3559  -27.3253  -51.7517 C.3       15 UNK        -0.1800 
     87 C          -5.8264  -26.5777  -49.7717 C.2       15 UNK         0.5000 
     88 O          -6.7357  -26.3987  -50.5829 O.2       15 UNK        -0.5000 
     89 N          -5.8902  -26.2086  -48.4826 N.am      16 UNK        -0.5000 
     90 CA         -6.9877  -25.4865  -47.8272 C.3       16 UNK         0.1400 
     91 CB         -8.2769  -26.3357  -47.7986 C.3       16 UNK        -0.1800 
     92 C          -7.1893  -24.0833  -48.4359 C.2       16 UNK         0.5000 
     93 O          -8.2799  -23.7572  -48.9086 O.2       16 UNK        -0.5000 
     94 N          -6.1077  -23.2920  -48.4130 N.am      17 UNK        -0.5000 
     95 CA         -5.9837  -21.9367  -48.9566 C.3       17 UNK         0.1400 
     96 CB         -6.8867  -20.9445  -48.1936 C.3       17 UNK        -0.1800 
     97 C          -6.1743  -21.8895  -50.4856 C.2       17 UNK         0.5000 
     98 O          -6.9445  -21.0730  -50.9934 O.2       17 UNK        -0.5000 
     99 N          -5.4465  -22.7595  -51.1918 N.am      18 UNK        -0.5000 
    100 CA        -5.3793  -22.8232  -52.6478 C.3       18 UNK         0.1400 
    101 CB        -6.2846  -23.9544  -53.1643 C.3       18 UNK        -0.1800 
    102 C         -3.9027  -22.9892  -53.0316 C.2       18 UNK         0.5000 
    103 O         -3.4981  -24.0286  -53.5572 O.2       18 UNK        -0.5000 
    104 N         -3.1115  -21.9626  -52.6972 N.am      19 UNK        -0.5000 
    105 CA        -1.6589  -21.8970  -52.8346 C.3       19 UNK         0.1400 
    106 CB        -1.1436  -20.7526  -51.9473 C.3       19 UNK        -0.1800 
    107 C         -1.1908  -21.7733  -54.2993 C.2       19 UNK         0.5000 
    108 O         -0.6440  -20.7405  -54.6947 O.2       19 UNK        -0.5000 
    109 N         -1.4103  -22.8483  -55.0677 N.am      20 UNK        -0.5000 
    110 CA        -1.0062  -23.0673  -56.4569 C.3       20 UNK         0.1400 
    111 CB         0.5232  -23.2727  -56.5404 C.3       20 UNK        -0.1800 
    112 C         -1.5406  -21.9679  -57.3951 C.2       20 UNK         0.5000 
    113 O         -2.7249  -21.9862  -57.7336 O.2       20 UNK        -0.5000 
    114 N         -0.6650  -21.0361  -57.7919 N.am      21 UNK        -0.5000 
    115 CA        -0.9821  -19.8938  -58.6456 C.3       21 UNK         0.1400 
    116 CB         0.3302  -19.2752  -59.1521 C.3       21 UNK        -0.1800 
    117 C         -1.8497  -18.8240  -57.9542 C.2       21 UNK         0.5000 
    118 O         -2.5257  -18.0722  -58.6581 O.2       21 UNK        -0.5000 
    119 N         -1.8181  -18.7633  -56.6122 N.am      22 UNK        -0.5000 
    120 CA        -2.5713  -17.8022  -55.7814 C.3       22 UNK         0.1400 
    121 C         -2.1847  -16.3053  -56.0140 C.2       22 UNK         0.5000 
    122 N         -0.9762  -16.0078  -56.4771 N.am      22 UNK        -0.7600 
    123 O         -2.9684  -15.3963  -55.7547 O.2       22 UNK        -0.5000 
    124 C124       -4.1058  -18.0694  -55.8309 C.3       23 UNK        -0.0398 
    125 S125       -4.5815  -19.4666  -54.7567 S.3       23 UNK        -0.2404 
    126 C126       -5.6021  -18.6315  -53.4970 C.3       23 UNK        -0.0205 
    127 H127        2.9583  -12.6870  -50.7771 H         1 UNK         0.0600 
    128 H128        3.7228  -14.1926  -50.2596 H         1 UNK         0.0600 
    129 H129        3.8128  -12.7586  -49.2340 H         1 UNK         0.0600 
    130 H130        0.7585  -12.8289  -50.6011 H         1 UNK         0.3000 
    131 H131       -0.7100  -14.7687  -49.2366 H         1 UNK         0.0600 
    132 H132       -2.6977  -13.3087  -49.7732 H         1 UNK         0.0800 
    133 H133       -1.6261  -12.0385  -50.2912 H         1 UNK         0.0800 
    134 H134       -4.0673  -13.5999  -51.6183 H         1 UNK         0.0800 
    135 H135       -3.6151  -14.0600  -53.2352 H         1 UNK         0.0800 
    136 H136       -4.8267  -16.0145  -53.6811 H         1 UNK         0.1150 
    137 H137       -4.5521  -19.4351  -51.1099 H         1 UNK         0.1150 
    138 H138       -2.7734  -15.7261  -49.9375 H         1 UNK         0.1150 
    139 H139       -3.3771  -17.6110  -48.2595 H         1 UNK         0.0800 
    140 H140       -3.5930  -19.2232  -48.9124 H         1 UNK         0.0800 
    141 H141       -1.6823  -18.5403  -46.7537 H         1 UNK         0.0800 
    142 H142       -0.0153  -18.3969  -47.2185 H         1 UNK         0.0800 
    143 H143       -0.2486  -20.8492  -48.1668 H         1 UNK         0.0600 
    144 H144        0.5112  -19.9415  -45.6047 H         1 UNK         0.3000 
    145 H145        1.7595  -23.0686  -44.3875 H         1 UNK         0.0600 
    146 H146        3.7614  -21.6296  -44.1295 H         1 UNK         0.0600 
    147 H147        3.5356  -22.0594  -45.8187 H         1 UNK         0.0600 
    148 H148        3.0965  -20.4510  -45.2572 H         1 UNK         0.0600 
    149 H149        1.6735  -20.4827  -43.2024 H         1 UNK         0.3000 
    150 H150       -1.5109  -20.8736  -41.5687 H         1 UNK         0.0600 
    151 H151        0.2768  -21.9738  -40.1946 H         1 UNK         0.0600 
    152 H152       -0.0470  -20.3330  -39.6554 H         1 UNK         0.0600 
    153 H153        1.3941  -20.6772  -40.6085 H         1 UNK         0.0600 
    154 H154        0.2697  -18.6794  -41.5652 H         1 UNK         0.3000 
    155 H155       -1.0686  -16.9635  -44.4295 H         1 UNK         0.0600 
    156 H156       -1.1109  -16.5140  -41.4000 H         1 UNK         0.0600 
    157 H157       -1.0924  -15.2178  -42.5896 H         1 UNK         0.0600 
    158 H158       -2.4553  -16.3255  -42.5137 H         1 UNK         0.0600 
    159 H159        1.1095  -16.2420  -42.7988 H         1 UNK         0.3000 
    160 H160        3.7001  -18.0088  -44.5558 H         1 UNK         0.0600 
    161 H161        2.8442  -15.0797  -44.4261 H         1 UNK         0.0600 
    162 H162        3.2681  -15.9730  -45.8765 H         1 UNK         0.0600 
    163 H163        4.5020  -15.6297  -44.6708 H         1 UNK         0.0600 
    164 H164        3.5789  -16.2106  -42.2863 H         1 UNK         0.3000 
    165 H165        3.5356  -18.7992  -39.8163 H         1 UNK         0.0600 
    166 H166        5.5455  -17.5475  -39.0889 H         1 UNK         0.0600 
    167 H167        5.9225  -18.5127  -40.5069 H         1 UNK         0.0600 
    168 H168        5.6794  -16.7775  -40.6700 H         1 UNK         0.0600 
    169 H169        3.5838  -15.9515  -39.6141 H         1 UNK         0.3000 
    170 H170        0.0745  -15.4009  -39.6855 H         1 UNK         0.0600 
    171 H171        1.9903  -15.4199  -37.2964 H         1 UNK         0.0600 
    172 H172        0.4540  -14.5586  -37.3978 H         1 UNK         0.0600 
    173 H173        0.4778  -16.3140  -37.3921 H         1 UNK         0.0600 
    174 H174        2.0462  -13.5751  -39.0139 H         1 UNK         0.3000 
    175 H175        1.9009  -11.7618  -40.6732 H         1 UNK         0.0600 
    176 H176        4.4038  -11.3409  -40.9145 H         1 UNK         0.0600 
    177 H177        4.6380  -13.0847  -41.0459 H         1 UNK         0.0600 
    178 H178        3.9728  -12.3929  -39.5789 H         1 UNK         0.0600 
    179 H179        1.5321  -11.6174  -42.8688 H         1 UNK         0.3000 
    180 H180        2.3077  -10.8978  -44.9888 H         1 UNK         0.0600 
    181 H181        4.0395  -13.0277  -46.3468 H         1 UNK         0.0600 
    182 H182        4.5827  -11.4086  -45.9159 H         1 UNK         0.0600 
    183 H183        3.3109  -11.6137  -47.1089 H         1 UNK         0.0600 
    184 H184        1.6907  -13.4706  -46.1553 H         1 UNK         0.3000 
    185 H185       -0.4259  -14.7100  -44.9102 H         1 UNK         0.0600 
    186 H186       -2.2646  -13.4033  -43.8863 H         1 UNK         0.0600 
    187 H187       -2.5443  -12.5517  -45.3977 H         1 UNK         0.0600 
    188 H188       -2.8525  -14.2845  -45.2856 H         1 UNK         0.0600 
    189 H189       -0.3480  -14.9692  -47.0932 H         1 UNK         0.3000 
    190 H190       -2.1086  -20.6930  -45.0920 H         1 UNK         0.3000 
    191 H191       -4.5599  -21.6936  -46.1297 H         1 UNK         0.0600 
    192 H192       -4.4061  -20.5312  -43.9558 H         1 UNK         0.0600 
    193 H193       -5.0797  -22.1378  -43.7252 H         1 UNK         0.0600 
    194 H194       -3.4023  -21.8201  -43.2963 H         1 UNK         0.0600 
    195 H195       -1.7437  -23.3763  -44.6617 H         1 UNK         0.3000 
    196 H196       -2.7956  -26.0002  -44.7512 H         1 UNK         0.0600 
    197 H197       -0.4060  -26.6740  -44.4464 H         1 UNK         0.0600 
    198 H198       -0.8455  -25.3583  -43.3689 H         1 UNK         0.0600 
    199 H199        0.1108  -25.0327  -44.8136 H         1 UNK         0.0600 
    200 H200       -1.3913  -24.0553  -47.3201 H         1 UNK         0.3000 
    201 H201       -0.8661  -26.2113  -49.1701 H         1 UNK         0.0600 
    202 H202        0.3192  -24.0233  -49.2764 H         1 UNK         0.0600 
    203 H203       -1.1903  -23.2097  -49.6765 H         1 UNK         0.0600 
    204 H204       -0.5091  -24.3951  -50.7802 H         1 UNK         0.0600 
    205 H205       -2.7519  -27.4375  -49.0909 H         1 UNK         0.3000 
    206 H206       -4.6230  -28.3142  -49.8759 H         1 UNK         0.0600 
    207 H207       -3.4857  -27.9183  -52.0324 H         1 UNK         0.0600 
    208 H208       -5.2219  -27.7758  -52.2380 H         1 UNK         0.0600 
    209 H209       -4.2240  -26.3275  -52.1691 H         1 UNK         0.0600 
    210 H210       -5.0757  -26.3744  -47.9078 H         1 UNK         0.3000 
    211 H211       -6.6866  -25.3355  -46.7902 H         1 UNK         0.0600 
    212 H212       -8.6828  -26.5026  -48.7966 H         1 UNK         0.0600 
    213 H213       -9.0523  -25.8413  -47.2124 H         1 UNK         0.0600 
    214 H214       -8.0971  -27.3093  -47.3428 H         1 UNK         0.0600 
    215 H215       -5.2678  -23.6702  -47.9894 H         1 UNK         0.3000 
    216 H216       -4.9548  -21.6306  -48.7792 H         1 UNK         0.0600 
    217 H217       -6.6901  -19.9197  -48.5108 H         1 UNK         0.0600 
    218 H218       -6.7086  -20.9910  -47.1196 H         1 UNK         0.0600 
    219 H219       -7.9450  -21.1412  -48.3663 H         1 UNK         0.0600 
    220 H220       -4.8059  -23.3855  -50.7033 H         1 UNK         0.3000 
    221 H221       -5.7210  -21.8854  -53.0895 H         1 UNK         0.0600 
    222 H222       -5.9954  -24.9214  -52.7554 H         1 UNK         0.0600 
    223 H223       -7.3254  -23.7781  -52.8923 H         1 UNK         0.0600 
    224 H224       -6.2373  -24.0269  -54.2513 H         1 UNK         0.0600 
    225 H225       -3.5444  -21.1470  -52.2925 H         1 UNK         0.3000 
    226 H226       -1.2414  -22.8269  -52.4454 H         1 UNK         0.0600 
    227 H227       -1.4076  -20.9226  -50.9033 H         1 UNK         0.0600 
    228 H228       -0.0570  -20.6735  -51.9966 H         1 UNK         0.0600 
    229 H229       -1.5594  -19.7892  -52.2466 H         1 UNK         0.0600 
    230 H230       -1.9769  -23.5848  -54.6550 H         1 UNK         0.3000 
    231 H231       -1.4797  -23.9974  -56.7747 H         1 UNK         0.0600 
    232 H232        1.0802  -22.4167  -56.1582 H         1 UNK         0.0600 
    233 H233        0.8412  -23.4461  -57.5693 H         1 UNK         0.0600 
    234 H234        0.8277  -24.1444  -55.9611 H         1 UNK         0.0600 
    235 H235        0.2780  -21.0861  -57.4348 H         1 UNK         0.3000 
    236 H236       -1.5413  -20.2603  -59.5091 H         1 UNK         0.0600 
    237 H237        0.9168  -20.0008  -59.7159 H         1 UNK         0.0600 
    238 H238        0.1346  -18.4319  -59.8158 H         1 UNK         0.0600 
    239 H239        0.9468  -18.9099  -58.3299 H         1 UNK         0.0600 
    240 H240       -1.2575  -19.4387  -56.1013 H         1 UNK         0.3000 
    241 H241       -2.2423  -17.9833  -54.7571 H         1 UNK         0.0600 
    242 H242       -0.3127  -16.7360  -56.6866 H         1 UNK         0.3800 
    243 H243       -0.7253  -15.0422  -56.6196 H         1 UNK         0.3800 
    244 H244       -4.6867  -17.1966  -55.5403 H         1 UNK         0.0800 
    245 H245       -4.4357  -18.2889  -56.8461 H         1 UNK         0.0800 
    246 H246       -6.3419  -17.9949  -53.9846 H         1 UNK         0.0800 
    247 H247       -6.1747  -19.3866  -52.9578 H         1 UNK         0.0800 
@<TRIPOS>BOND
     1    1    2 1    
     2    1  127 1    
     3    1  128 1    
     4    1  129 1    
     5    2    3 2    
     6    2    4 am   BACKBONE|DICT|INTERRES
     7    4    5 1    
     8    4  130 1    
     9    5    6 1    
    10    5   65 1    
    11    5  131 1    
    12    6    7 1    
    13    6  132 1    
    14    6  133 1    
    15    7    8 1    
    16    8    9 1    
    17    8  134 1    
    18    8  135 1    
    19    9   10 ar   
    20    9   14 ar   
    21   10   11 ar   
    22   10  136 1    
    23   11   12 ar   
    24   11  126 1    
    25   12   13 ar   
    26   12  137 1    
    27   13   14 ar   
    28   13   15 1    
    29   14  138 1    
    30   15   16 1    
    31   15  139 1    
    32   15  140 1    
    33   16   17 1    
    34   17   18 1    
    35   17  141 1    
    36   17  142 1    
    37   18   19 1    
    38   18   67 1    
    39   18  143 1    
    40   19   20 am   BACKBONE|DICT|INTERRES
    41   19  144 1    
    42   20   21 2    
    43   20   22 1    
    44   22   23 1    
    45   22   24 1    
    46   22  145 1    
    47   23  146 1    
    48   23  147 1    
    49   23  148 1    
    50   24   25 am   BACKBONE|DICT|INTERRES
    51   24  149 1    
    52   25   26 2    
    53   25   27 1    
    54   27   28 1    
    55   27   29 1    
    56   27  150 1    
    57   28  151 1    
    58   28  152 1    
    59   28  153 1    
    60   29   30 am   BACKBONE|DICT|INTERRES
    61   29  154 1    
    62   30   31 2    
    63   30   32 1    
    64   32   33 1    
    65   32   34 1    
    66   32  155 1    
    67   33  156 1    
    68   33  157 1    
    69   33  158 1    
    70   34   35 am   BACKBONE|DICT|INTERRES
    71   34  159 1    
    72   35   36 2    
    73   35   37 1    
    74   37   38 1    
    75   37   39 1    
    76   37  160 1    
    77   38  161 1    
    78   38  162 1    
    79   38  163 1    
    80   39   40 am   BACKBONE|DICT|INTERRES
    81   39  164 1    
    82   40   41 2    
    83   40   42 1    
    84   42   43 1    
    85   42   44 1    
    86   42  165 1    
    87   43  166 1    
    88   43  167 1    
    89   43  168 1    
    90   44   45 am   BACKBONE|DICT|INTERRES
    91   44  169 1    
    92   45   46 2    
    93   45   47 1    
    94   47   48 1    
    95   47   49 1    
    96   47  170 1    
    97   48  171 1    
    98   48  172 1    
    99   48  173 1    
   100   49   50 am   BACKBONE|DICT|INTERRES
   101   49  174 1    
   102   50   51 2    
   103   50   52 1    
   104   52   53 1    
   105   52   54 1    
   106   52  175 1    
   107   53  176 1    
   108   53  177 1    
   109   53  178 1    
   110   54   55 am   BACKBONE|DICT|INTERRES
   111   54  179 1    
   112   55   56 2    
   113   55   57 1    
   114   57   58 1    
   115   57   59 1    
   116   57  180 1    
   117   58  181 1    
   118   58  182 1    
   119   58  183 1    
   120   59   60 am   BACKBONE|DICT|INTERRES
   121   59  184 1    
   122   60   61 2    
   123   60   62 1    
   124   62   63 1    
   125   62   64 1    
   126   62  185 1    
   127   63  186 1    
   128   63  187 1    
   129   63  188 1    
   130   64   65 am   BACKBONE|DICT|INTERRES
   131   64  189 1    
   132   65   66 2    
   133   67   68 2    
   134   67   69 am   BACKBONE|DICT|INTERRES
   135   69   70 1    
   136   69  190 1    
   137   70   71 1    
   138   70   72 1    
   139   70  191 1    
   140   71  192 1    
   141   71  193 1    
   142   71  194 1    
   143   72   73 2    
   144   72   74 am   BACKBONE|DICT|INTERRES
   145   74   75 1    
   146   74  195 1    
   147   75   76 1    
   148   75   77 1    
   149   75  196 1    
   150   76  197 1    
   151   76  198 1    
   152   76  199 1    
   153   77   78 2    
   154   77   79 am   BACKBONE|DICT|INTERRES
   155   79   80 1    
   156   79  200 1    
   157   80   81 1    
   158   80   82 1    
   159   80  201 1    
   160   81  202 1    
   161   81  203 1    
   162   81  204 1    
   163   82   83 2    
   164   82   84 am   BACKBONE|DICT|INTERRES
   165   84   85 1    
   166   84  205 1    
   167   85   86 1    
   168   85   87 1    
   169   85  206 1    
   170   86  207 1    
   171   86  208 1    
   172   86  209 1    
   173   87   88 2    
   174   87   89 am   BACKBONE|DICT|INTERRES
   175   89   90 1    
   176   89  210 1    
   177   90   91 1    
   178   90   92 1    
   179   90  211 1    
   180   91  212 1    
   181   91  213 1    
   182   91  214 1    
   183   92   93 2    
   184   92   94 am   BACKBONE|DICT|INTERRES
   185   94   95 1    
   186   94  215 1    
   187   95   96 1    
   188   95   97 1    
   189   95  216 1    
   190   96  217 1    
   191   96  218 1    
   192   96  219 1    
   193   97   98 2    
   194   97   99 am   BACKBONE|DICT|INTERRES
   195   99  100 1    
   196   99  220 1    
   197  100  101 1    
   198  100  102 1    
   199  100  221 1    
   200  101  222 1    
   201  101  223 1    
   202  101  224 1    
   203  102  103 2    
   204  102  104 am   BACKBONE|DICT|INTERRES
   205  104  105 1    
   206  104  225 1    
   207  105  106 1    
   208  105  107 1    
   209  105  226 1    
   210  106  227 1    
   211  106  228 1    
   212  106  229 1    
   213  107  108 2    
   214  107  109 am   BACKBONE|DICT|INTERRES
   215  109  110 1    
   216  109  230 1    
   217  110  111 1    
   218  110  112 1    
   219  110  231 1    
   220  111  232 1    
   221  111  233 1    
   222  111  234 1    
   223  112  113 2    
   224  112  114 am   BACKBONE|DICT|INTERRES
   225  114  115 1    
   226  114  235 1    
   227  115  116 1    
   228  115  117 1    
   229  115  236 1    
   230  116  237 1    
   231  116  238 1    
   232  116  239 1    
   233  117  118 2    
   234  117  119 am   BACKBONE|DICT|INTERRES
   235  119  120 1    
   236  119  240 1    
   237  120  121 1    
   238  120  124 1    
   239  120  241 1    
   240  121  122 am   BACKBONE|DICT|INTERRES
   241  121  123 2    
   242  122  242 1    
   243  122  243 1    
   244  124  125 1    
   245  124  244 1    
   246  124  245 1    
   247  125  126 1    
   248  126  246 1    
   249  126  247 1    
@<TRIPOS>SUBSTRUCTURE
     1 UNK         1 GROUP             0       ****    0 ROOT    
