@<TRIPOS>MOLECULE
3R540
247   249    1
SMALL
USER_CHARGES


@<TRIPOS>ATOM
      1 CA          8.0112  -15.3929  -44.5654 C.3       0 UNK        -0.1800 
      2 C           6.5265  -15.0648  -44.5063 C.2       0 UNK         0.5000 
      3 O           5.9344  -15.0931  -43.4279 O.2       0 UNK        -0.5000 
      4 N           5.9161  -14.7755  -45.6611 N.am      1 UNK        -0.5000 
      5 CA          4.5206  -14.3498  -45.7748 C.3       1 UNK         0.1400 
      6 C6          3.9689  -14.6259  -47.1939 C.3       23 UNK        -0.0398 
      7 S7          2.1812  -14.2977  -47.3429 S.3       23 UNK        -0.2404 
      8 C8          1.9370  -14.4897  -49.1324 C.3       23 UNK        -0.0205 
      9 C9          1.2435  -15.7987  -49.4717 C.ar      23 UNK        -0.0193 
     10 C10        -0.1429  -15.8274  -49.6473 C.ar      23 UNK        -0.1150 
     11 C11        -0.7868  -17.0067  -50.0334 C.ar      23 UNK        -0.0193 
     12 C12        -0.0305  -18.1631  -50.2400 C.ar      23 UNK        -0.1150 
     13 C13         1.3527  -18.1576  -50.0312 C.ar      23 UNK        -0.0193 
     14 C14         1.9849  -16.9703  -49.6491 C.ar      23 UNK        -0.1150 
     15 C15         2.1667  -19.4272  -50.2391 C.3       23 UNK        -0.0205 
     16 S16         2.2427  -20.4441  -48.7294 S.3       23 UNK        -0.2404 
     17 C17         0.5144  -21.0067  -48.6087 C.3       23 UNK        -0.0398 
     18 CA          0.3426  -22.3136  -47.8031 C.3       11 UNK         0.1400 
     19 N           0.7724  -22.1921  -46.4084 N.am      11 UNK        -0.5000 
     20 C           0.8668  -23.2186  -45.5508 C.2       10 UNK         0.5000 
     21 O           0.7081  -24.3957  -45.8733 O.2       10 UNK        -0.5000 
     22 CA          1.1264  -22.8695  -44.0751 C.3       10 UNK         0.1400 
     23 CB          2.6303  -22.7396  -43.7889 C.3       10 UNK        -0.1800 
     24 N           0.4347  -21.6412  -43.6823 N.am      10 UNK        -0.5000 
     25 C          -0.8928  -21.5443  -43.5187 C.2       9 UNK         0.5000 
     26 O          -1.6634  -22.5000  -43.6151 O.2       9 UNK        -0.5000 
     27 CA         -1.4561  -20.1377  -43.2392 C.3       9 UNK         0.1400 
     28 CB         -1.4249  -19.8301  -41.7352 C.3       9 UNK        -0.1800 
     29 N          -0.7385  -19.0903  -43.9694 N.am      9 UNK        -0.5000 
     30 C          -0.7950  -18.9356  -45.3021 C.2       8 UNK         0.5000 
     31 O          -1.4887  -19.6386  -46.0319 O.2       8 UNK        -0.5000 
     32 CA          0.1022  -17.8547  -45.9386 C.3       8 UNK         0.1400 
     33 CB         -0.6805  -16.5401  -46.0396 C.3       8 UNK        -0.1800 
     34 N           1.3582  -17.6394  -45.2125 N.am      8 UNK        -0.5000 
     35 C           2.2585  -18.6050  -44.9644 C.2       7 UNK         0.5000 
     36 O           2.1540  -19.7508  -45.3998 O.2       7 UNK        -0.5000 
     37 CA          3.4286  -18.2833  -44.0128 C.3       7 UNK         0.1400 
     38 CB          4.7242  -18.0941  -44.8110 C.3       7 UNK        -0.1800 
     39 N           3.2034  -17.1342  -43.1255 N.am      7 UNK        -0.5000 
     40 C           2.2028  -17.0493  -42.2347 C.2       6 UNK         0.5000 
     41 O           1.3597  -17.9348  -42.0790 O.2       6 UNK        -0.5000 
     42 CA          2.0608  -15.7535  -41.4127 C.3       6 UNK         0.1400 
     43 CB          3.3043  -14.8377  -41.4273 C.3       6 UNK        -0.1800 
     44 N           0.8567  -15.0224  -41.8216 N.am      6 UNK        -0.5000 
     45 C           0.6119  -14.5061  -43.0331 C.2       5 UNK         0.5000 
     46 O           1.4268  -14.5236  -43.9619 O.2       5 UNK        -0.5000 
     47 CA         -0.7730  -13.8749  -43.2481 C.3       5 UNK         0.1400 
     48 CB         -1.0598  -12.7257  -42.2615 C.3       5 UNK        -0.1800 
     49 N          -0.8454  -13.3826  -44.6183 N.am      5 UNK        -0.5000 
     50 C          -1.9569  -13.1392  -45.3186 C.2       4 UNK         0.5000 
     51 O          -3.0926  -13.3255  -44.8787 O.2       4 UNK        -0.5000 
     52 CA         -1.7503  -12.5652  -46.7321 C.3       4 UNK         0.1400 
     53 CB         -3.0241  -11.9162  -47.3117 C.3       4 UNK        -0.1800 
     54 N          -0.6479  -11.6050  -46.7091 N.am      4 UNK        -0.5000 
     55 C           0.0620  -11.1867  -47.7593 C.2       3 UNK         0.5000 
     56 O          -0.1610  -11.5402  -48.9172 O.2       3 UNK        -0.5000 
     57 CA          1.2289  -10.2175  -47.4789 C.3       3 UNK         0.1400 
     58 CB          0.7218   -8.7735  -47.3018 C.3       3 UNK        -0.1800 
     59 N           2.1166  -10.6164  -46.3755 N.am      3 UNK        -0.5000 
     60 C           1.8641  -10.6896  -45.0605 C.2       2 UNK         0.5000 
     61 O           0.7671  -10.4446  -44.5563 O.2       2 UNK        -0.5000 
     62 CA          3.0325  -11.1779  -44.1854 C.3       2 UNK         0.1400 
     63 CB          2.7125  -11.1738  -42.6803 C.3       2 UNK        -0.1800 
     64 N           3.3899  -12.5349  -44.5864 N.am      2 UNK        -0.5000 
     65 C           4.4074  -12.8616  -45.3875 C.2       1 UNK         0.5000 
     66 O           5.2088  -12.0450  -45.8488 O.2       1 UNK        -0.5000 
     67 C          -1.1177  -22.7993  -47.8920 C.2       11 UNK         0.5000 
     68 O          -1.3938  -23.7535  -48.6185 O.2       11 UNK        -0.5000 
     69 N          -2.0244  -22.1591  -47.1392 N.am      12 UNK        -0.5000 
     70 CA         -3.4587  -22.4563  -47.0950 C.3       12 UNK         0.1400 
     71 CB         -4.1655  -21.4477  -46.1791 C.3       12 UNK        -0.1800 
     72 C          -3.7910  -23.8995  -46.6750 C.2       12 UNK         0.5000 
     73 O          -4.7640  -24.4619  -47.1769 O.2       12 UNK        -0.5000 
     74 N          -2.9450  -24.4998  -45.8259 N.am      13 UNK        -0.5000 
     75 CA         -3.0078  -25.9131  -45.4401 C.3       13 UNK         0.1400 
     76 CB         -2.0133  -26.1665  -44.2974 C.3       13 UNK        -0.1800 
     77 C          -2.7571  -26.8907  -46.6111 C.2       13 UNK         0.5000 
     78 O          -3.2025  -28.0364  -46.5440 O.2       13 UNK        -0.5000 
     79 N          -2.0861  -26.4168  -47.6695 N.am      14 UNK        -0.5000 
     80 CA         -1.8640  -27.1117  -48.9385 C.3       14 UNK         0.1400 
     81 CB         -0.3620  -27.0561  -49.2699 C.3       14 UNK        -0.1800 
     82 C          -2.7238  -26.4904  -50.0615 C.2       14 UNK         0.5000 
     83 O          -2.3355  -26.5327  -51.2312 O.2       14 UNK        -0.5000 
     84 N          -3.8585  -25.8763  -49.6872 N.am      15 UNK        -0.5000 
     85 CA         -4.8366  -25.1904  -50.5416 C.3       15 UNK         0.1400 
     86 CB         -5.5420  -26.1922  -51.4783 C.3       15 UNK        -0.1800 
     87 C          -4.2637  -23.9827  -51.3121 C.2       15 UNK         0.5000 
     88 O          -4.8524  -23.5651  -52.3112 O.2       15 UNK        -0.5000 
     89 N          -3.1302  -23.4411  -50.8433 N.am      16 UNK        -0.5000 
     90 CA         -2.3104  -22.4073  -51.4809 C.3       16 UNK         0.1400 
     91 CB         -3.0455  -21.0528  -51.4984 C.3       16 UNK        -0.1800 
     92 C          -1.7569  -22.8497  -52.8514 C.2       16 UNK         0.5000 
     93 O          -1.6086  -22.0232  -53.7503 O.2       16 UNK        -0.5000 
     94 N          -1.4702  -24.1571  -52.9757 N.am      17 UNK        -0.5000 
     95 CA         -1.0823  -24.8650  -54.2000 C.3       17 UNK         0.1400 
     96 CB          0.2805  -24.3721  -54.7311 C.3       17 UNK        -0.1800 
     97 C          -2.2101  -24.8261  -55.2520 C.2       17 UNK         0.5000 
     98 O          -1.9656  -24.5208  -56.4206 O.2       17 UNK        -0.5000 
     99 N          -3.4313  -25.1309  -54.7864 N.am      18 UNK        -0.5000 
    100 CA        -4.7024  -25.0956  -55.5149 C.3       18 UNK         0.1400 
    101 CB        -4.7216  -26.1339  -56.6566 C.3       18 UNK        -0.1800 
    102 C         -5.0714  -23.6690  -55.9718 C.2       18 UNK         0.5000 
    103 O         -5.3651  -23.4437  -57.1475 O.2       18 UNK        -0.5000 
    104 N         -5.0598  -22.7345  -55.0146 N.am      19 UNK        -0.5000 
    105 CA        -5.4499  -21.3355  -55.1846 C.3       19 UNK         0.1400 
    106 CB        -4.2006  -20.4401  -55.2537 C.3       19 UNK        -0.1800 
    107 C         -6.4293  -20.9373  -54.0670 C.2       19 UNK         0.5000 
    108 O         -6.2675  -19.8937  -53.4312 O.2       19 UNK        -0.5000 
    109 N         -7.4265  -21.8070  -53.8428 N.am      20 UNK        -0.5000 
    110 CA        -8.5939  -21.6357  -52.9674 C.3       20 UNK         0.1400 
    111 CB        -9.5152  -20.5335  -53.5316 C.3       20 UNK        -0.1800 
    112 C         -8.2727  -21.4140  -51.4729 C.2       20 UNK         0.5000 
    113 O         -9.1258  -20.9044  -50.7454 O.2       20 UNK        -0.5000 
    114 N         -7.0663  -21.8114  -51.0387 N.am      21 UNK        -0.5000 
    115 CA        -6.5153  -21.6128  -49.6927 C.3       21 UNK         0.1400 
    116 CB        -7.3034  -22.4297  -48.6464 C.3       21 UNK        -0.1800 
    117 C         -6.3564  -20.1217  -49.3214 C.2       21 UNK         0.5000 
    118 O         -6.6251  -19.7405  -48.1812 O.2       21 UNK        -0.5000 
    119 N         -5.9072  -19.3244  -50.3017 N.am      22 UNK        -0.5000 
    120 CA        -5.7280  -17.8626  -50.2569 C.3       22 UNK         0.1400 
    121 C         -7.0670  -17.0693  -50.3303 C.2       22 UNK         0.5000 
    122 N         -7.0048  -15.7672  -50.5789 N.am      22 UNK        -0.7600 
    123 O         -8.1634  -17.6008  -50.1754 O.2       22 UNK        -0.5000 
    124 C124       -4.8278  -17.3558  -49.0892 C.3       23 UNK        -0.0398 
    125 S125       -3.1530  -18.0818  -49.0542 S.3       23 UNK        -0.2404 
    126 C126       -2.2919  -17.0202  -50.2581 C.3       23 UNK        -0.0205 
    127 H127        8.3983  -15.3404  -45.5832 H         1 UNK         0.0600 
    128 H128        8.1871  -16.3995  -44.1858 H         1 UNK         0.0600 
    129 H129        8.5745  -14.6916  -43.9499 H         1 UNK         0.0600 
    130 H130        6.4607  -14.7320  -46.5106 H         1 UNK         0.3000 
    131 H131        3.9266  -14.9368  -45.0711 H         1 UNK         0.0600 
    132 H132        4.5061  -14.0302  -47.9342 H         1 UNK         0.0800 
    133 H133        4.1357  -15.6707  -47.4594 H         1 UNK         0.0800 
    134 H134        1.3405  -13.6524  -49.4949 H         1 UNK         0.0800 
    135 H135        2.8885  -14.4240  -49.6615 H         1 UNK         0.0800 
    136 H136       -0.7164  -14.9225  -49.5023 H         1 UNK         0.1150 
    137 H137       -0.5272  -19.0697  -50.5535 H         1 UNK         0.1150 
    138 H138        3.0556  -16.9541  -49.5032 H         1 UNK         0.1150 
    139 H139        1.7524  -20.0130  -51.0609 H         1 UNK         0.0800 
    140 H140        3.1840  -19.1693  -50.5371 H         1 UNK         0.0800 
    141 H141        0.1459  -21.1518  -49.6239 H         1 UNK         0.0800 
    142 H142       -0.0819  -20.2017  -48.1794 H         1 UNK         0.0800 
    143 H143        0.9653  -23.0792  -48.2711 H         1 UNK         0.0600 
    144 H144        1.0065  -21.2604  -46.0804 H         1 UNK         0.3000 
    145 H145        0.7386  -23.6891  -43.4661 H         1 UNK         0.0600 
    146 H146        3.1471  -23.6744  -44.0095 H         1 UNK         0.0600 
    147 H147        3.0968  -21.9615  -44.3926 H         1 UNK         0.0600 
    148 H148        2.8140  -22.5067  -42.7400 H         1 UNK         0.0600 
    149 H149        0.9905  -20.7984  -43.6500 H         1 UNK         0.3000 
    150 H150       -2.4983  -20.1234  -43.5640 H         1 UNK         0.0600 
    151 H151       -1.8443  -18.8464  -41.5239 H         1 UNK         0.0600 
    152 H152       -0.4092  -19.8540  -41.3390 H         1 UNK         0.0600 
    153 H153       -2.0109  -20.5612  -41.1768 H         1 UNK         0.0600 
    154 H154       -0.1059  -18.5114  -43.4273 H         1 UNK         0.3000 
    155 H155        0.3593  -18.1772  -46.9494 H         1 UNK         0.0600 
    156 H156       -1.5671  -16.6643  -46.6627 H         1 UNK         0.0600 
    157 H157       -0.0833  -15.7502  -46.4883 H         1 UNK         0.0600 
    158 H158       -1.0149  -16.2007  -45.0603 H         1 UNK         0.0600 
    159 H159        1.5114  -16.7178  -44.8243 H         1 UNK         0.3000 
    160 H160        3.5605  -19.1570  -43.3712 H         1 UNK         0.0600 
    161 H161        4.9564  -18.9890  -45.3899 H         1 UNK         0.0600 
    162 H162        5.5728  -17.9070  -44.1533 H         1 UNK         0.0600 
    163 H163        4.6427  -17.2685  -45.5158 H         1 UNK         0.0600 
    164 H164        3.8599  -16.3677  -43.1949 H         1 UNK         0.3000 
    165 H165        1.8999  -16.0665  -40.3801 H         1 UNK         0.0600 
    166 H166        3.1648  -13.9849  -40.7630 H         1 UNK         0.0600 
    167 H167        4.1891  -15.3728  -41.0807 H         1 UNK         0.0600 
    168 H168        3.5259  -14.4439  -42.4179 H         1 UNK         0.0600 
    169 H169        0.1222  -14.9887  -41.1288 H         1 UNK         0.3000 
    170 H170       -1.5155  -14.6634  -43.1111 H         1 UNK         0.0600 
    171 H171       -2.0751  -12.3487  -42.3846 H         1 UNK         0.0600 
    172 H172       -0.9657  -13.0483  -41.2244 H         1 UNK         0.0600 
    173 H173       -0.3809  -11.8868  -42.4110 H         1 UNK         0.0600 
    174 H174        0.0571  -13.2936  -45.0683 H         1 UNK         0.3000 
    175 H175       -1.4656  -13.4045  -47.3702 H         1 UNK         0.0600 
    176 H176       -3.3489  -11.0684  -46.7078 H         1 UNK         0.0600 
    177 H177       -2.8651  -11.5607  -48.3296 H         1 UNK         0.0600 
    178 H178       -3.8470  -12.6310  -47.3491 H         1 UNK         0.0600 
    179 H179       -0.3832  -11.2466  -45.7932 H         1 UNK         0.3000 
    180 H180        1.8575  -10.2299  -48.3708 H         1 UNK         0.0600 
    181 H181        1.5511   -8.0766  -47.1815 H         1 UNK         0.0600 
    182 H182        0.0690   -8.6715  -46.4346 H         1 UNK         0.0600 
    183 H183        0.1522   -8.4531  -48.1750 H         1 UNK         0.0600 
    184 H184        3.0435  -10.8947  -46.6687 H         1 UNK         0.3000 
    185 H185        3.8676  -10.4931  -44.3464 H         1 UNK         0.0600 
    186 H186        1.9255  -11.8833  -42.4306 H         1 UNK         0.0600 
    187 H187        3.5924  -11.4411  -42.0951 H         1 UNK         0.0600 
    188 H188        2.3887  -10.1866  -42.3485 H         1 UNK         0.0600 
    189 H189        2.7339  -13.2649  -44.3160 H         1 UNK         0.3000 
    190 H190       -1.7302  -21.3401  -46.6093 H         1 UNK         0.3000 
    191 H191       -3.8426  -22.3194  -48.1063 H         1 UNK         0.0600 
    192 H192       -3.7618  -21.4748  -45.1674 H         1 UNK         0.0600 
    193 H193       -5.2335  -21.6538  -46.1090 H         1 UNK         0.0600 
    194 H194       -4.0591  -20.4309  -46.5584 H         1 UNK         0.0600 
    195 H195       -2.1877  -23.9541  -45.4349 H         1 UNK         0.3000 
    196 H196       -4.0140  -26.1080  -45.0636 H         1 UNK         0.0600 
    197 H197       -2.0909  -27.1915  -43.9331 H         1 UNK         0.0600 
    198 H198       -2.2047  -25.5050  -43.4520 H         1 UNK         0.0600 
    199 H199       -0.9834  -26.0111  -44.6183 H         1 UNK         0.0600 
    200 H200       -1.7755  -25.4505  -47.6548 H         1 UNK         0.3000 
    201 H201       -2.1563  -28.1601  -48.8565 H         1 UNK         0.0600 
    202 H202        0.2340  -27.4854  -48.4645 H         1 UNK         0.0600 
    203 H203       -0.0225  -26.0315  -49.4266 H         1 UNK         0.0600 
    204 H204       -0.1362  -27.6209  -50.1752 H         1 UNK         0.0600 
    205 H205       -4.0671  -25.8387  -48.6963 H         1 UNK         0.3000 
    206 H206       -5.5907  -24.7836  -49.8680 H         1 UNK         0.0600 
    207 H207       -6.3663  -25.7185  -52.0128 H         1 UNK         0.0600 
    208 H208       -4.8610  -26.6015  -52.2247 H         1 UNK         0.0600 
    209 H209       -5.9620  -27.0263  -50.9161 H         1 UNK         0.0600 
    210 H210       -2.7105  -23.8493  -50.0128 H         1 UNK         0.3000 
    211 H211       -1.4302  -22.2846  -50.8534 H         1 UNK         0.0600 
    212 H212       -3.9599  -21.0904  -52.0880 H         1 UNK         0.0600 
    213 H213       -2.4173  -20.2646  -51.9145 H         1 UNK         0.0600 
    214 H214       -3.3130  -20.7484  -50.4872 H         1 UNK         0.0600 
    215 H215       -1.6486  -24.7595  -52.1794 H         1 UNK         0.3000 
    216 H216       -0.9625  -25.9127  -53.9201 H         1 UNK         0.0600 
    217 H217        0.6219  -24.9954  -55.5582 H         1 UNK         0.0600 
    218 H218        1.0445  -24.4155  -53.9551 H         1 UNK         0.0600 
    219 H219        0.2316  -23.3465  -55.0975 H         1 UNK         0.0600 
    220 H220       -3.5083  -25.3351  -53.8005 H         1 UNK         0.3000 
    221 H221       -5.4699  -25.3907  -54.7976 H         1 UNK         0.0600 
    222 H222       -4.0120  -25.8875  -57.4468 H         1 UNK         0.0600 
    223 H223       -4.4795  -27.1302  -56.2869 H         1 UNK         0.0600 
    224 H224       -5.7101  -26.1894  -57.1139 H         1 UNK         0.0600 
    225 H225       -4.8471  -23.0187  -54.0596 H         1 UNK         0.3000 
    226 H226       -5.9982  -21.2121  -56.1206 H         1 UNK         0.0600 
    227 H227       -3.5198  -20.7732  -56.0372 H         1 UNK         0.0600 
    228 H228       -4.4729  -19.4075  -55.4744 H         1 UNK         0.0600 
    229 H229       -3.6511  -20.4383  -54.3142 H         1 UNK         0.0600 
    230 H230       -7.4246  -22.6559  -54.3905 H         1 UNK         0.3000 
    231 H231       -9.1432  -22.5770  -53.0136 H         1 UNK         0.0600 
    232 H232       -9.0558  -19.5474  -53.4541 H         1 UNK         0.0600 
    233 H233       -9.7502  -20.7132  -54.5806 H         1 UNK         0.0600 
    234 H234      -10.4626  -20.4958  -52.9927 H         1 UNK         0.0600 
    235 H235       -6.4413  -22.2337  -51.7155 H         1 UNK         0.3000 
    236 H236       -5.5035  -22.0114  -49.7171 H         1 UNK         0.0600 
    237 H237       -8.3029  -22.0263  -48.4837 H         1 UNK         0.0600 
    238 H238       -7.4090  -23.4704  -48.9510 H         1 UNK         0.0600 
    239 H239       -6.7940  -22.4272  -47.6836 H         1 UNK         0.0600 
    240 H240       -5.8056  -19.7277  -51.2246 H         1 UNK         0.3000 
    241 H241       -5.2113  -17.6314  -51.1892 H         1 UNK         0.0600 
    242 H242       -7.8646  -15.2429  -50.6316 H         1 UNK         0.3800 
    243 H243       -6.1300  -15.2924  -50.7369 H         1 UNK         0.3800 
    244 H244       -4.7214  -16.2711  -49.1248 H         1 UNK         0.0800 
    245 H245       -5.2990  -17.5584  -48.1272 H         1 UNK         0.0800 
    246 H246       -2.6842  -16.0041  -50.2024 H         1 UNK         0.0800 
    247 H247       -2.5052  -17.3781  -51.2663 H         1 UNK         0.0800 
@<TRIPOS>BOND
     1    1    2 1    
     2    1  127 1    
     3    1  128 1    
     4    1  129 1    
     5    2    3 2    
     6    2    4 am   BACKBONE|DICT|INTERRES
     7    4    5 1    
     8    4  130 1    
     9    5    6 1    
    10    5   65 1    
    11    5  131 1    
    12    6    7 1    
    13    6  132 1    
    14    6  133 1    
    15    7    8 1    
    16    8    9 1    
    17    8  134 1    
    18    8  135 1    
    19    9   10 ar   
    20    9   14 ar   
    21   10   11 ar   
    22   10  136 1    
    23   11   12 ar   
    24   11  126 1    
    25   12   13 ar   
    26   12  137 1    
    27   13   14 ar   
    28   13   15 1    
    29   14  138 1    
    30   15   16 1    
    31   15  139 1    
    32   15  140 1    
    33   16   17 1    
    34   17   18 1    
    35   17  141 1    
    36   17  142 1    
    37   18   19 1    
    38   18   67 1    
    39   18  143 1    
    40   19   20 am   BACKBONE|DICT|INTERRES
    41   19  144 1    
    42   20   21 2    
    43   20   22 1    
    44   22   23 1    
    45   22   24 1    
    46   22  145 1    
    47   23  146 1    
    48   23  147 1    
    49   23  148 1    
    50   24   25 am   BACKBONE|DICT|INTERRES
    51   24  149 1    
    52   25   26 2    
    53   25   27 1    
    54   27   28 1    
    55   27   29 1    
    56   27  150 1    
    57   28  151 1    
    58   28  152 1    
    59   28  153 1    
    60   29   30 am   BACKBONE|DICT|INTERRES
    61   29  154 1    
    62   30   31 2    
    63   30   32 1    
    64   32   33 1    
    65   32   34 1    
    66   32  155 1    
    67   33  156 1    
    68   33  157 1    
    69   33  158 1    
    70   34   35 am   BACKBONE|DICT|INTERRES
    71   34  159 1    
    72   35   36 2    
    73   35   37 1    
    74   37   38 1    
    75   37   39 1    
    76   37  160 1    
    77   38  161 1    
    78   38  162 1    
    79   38  163 1    
    80   39   40 am   BACKBONE|DICT|INTERRES
    81   39  164 1    
    82   40   41 2    
    83   40   42 1    
    84   42   43 1    
    85   42   44 1    
    86   42  165 1    
    87   43  166 1    
    88   43  167 1    
    89   43  168 1    
    90   44   45 am   BACKBONE|DICT|INTERRES
    91   44  169 1    
    92   45   46 2    
    93   45   47 1    
    94   47   48 1    
    95   47   49 1    
    96   47  170 1    
    97   48  171 1    
    98   48  172 1    
    99   48  173 1    
   100   49   50 am   BACKBONE|DICT|INTERRES
   101   49  174 1    
   102   50   51 2    
   103   50   52 1    
   104   52   53 1    
   105   52   54 1    
   106   52  175 1    
   107   53  176 1    
   108   53  177 1    
   109   53  178 1    
   110   54   55 am   BACKBONE|DICT|INTERRES
   111   54  179 1    
   112   55   56 2    
   113   55   57 1    
   114   57   58 1    
   115   57   59 1    
   116   57  180 1    
   117   58  181 1    
   118   58  182 1    
   119   58  183 1    
   120   59   60 am   BACKBONE|DICT|INTERRES
   121   59  184 1    
   122   60   61 2    
   123   60   62 1    
   124   62   63 1    
   125   62   64 1    
   126   62  185 1    
   127   63  186 1    
   128   63  187 1    
   129   63  188 1    
   130   64   65 am   BACKBONE|DICT|INTERRES
   131   64  189 1    
   132   65   66 2    
   133   67   68 2    
   134   67   69 am   BACKBONE|DICT|INTERRES
   135   69   70 1    
   136   69  190 1    
   137   70   71 1    
   138   70   72 1    
   139   70  191 1    
   140   71  192 1    
   141   71  193 1    
   142   71  194 1    
   143   72   73 2    
   144   72   74 am   BACKBONE|DICT|INTERRES
   145   74   75 1    
   146   74  195 1    
   147   75   76 1    
   148   75   77 1    
   149   75  196 1    
   150   76  197 1    
   151   76  198 1    
   152   76  199 1    
   153   77   78 2    
   154   77   79 am   BACKBONE|DICT|INTERRES
   155   79   80 1    
   156   79  200 1    
   157   80   81 1    
   158   80   82 1    
   159   80  201 1    
   160   81  202 1    
   161   81  203 1    
   162   81  204 1    
   163   82   83 2    
   164   82   84 am   BACKBONE|DICT|INTERRES
   165   84   85 1    
   166   84  205 1    
   167   85   86 1    
   168   85   87 1    
   169   85  206 1    
   170   86  207 1    
   171   86  208 1    
   172   86  209 1    
   173   87   88 2    
   174   87   89 am   BACKBONE|DICT|INTERRES
   175   89   90 1    
   176   89  210 1    
   177   90   91 1    
   178   90   92 1    
   179   90  211 1    
   180   91  212 1    
   181   91  213 1    
   182   91  214 1    
   183   92   93 2    
   184   92   94 am   BACKBONE|DICT|INTERRES
   185   94   95 1    
   186   94  215 1    
   187   95   96 1    
   188   95   97 1    
   189   95  216 1    
   190   96  217 1    
   191   96  218 1    
   192   96  219 1    
   193   97   98 2    
   194   97   99 am   BACKBONE|DICT|INTERRES
   195   99  100 1    
   196   99  220 1    
   197  100  101 1    
   198  100  102 1    
   199  100  221 1    
   200  101  222 1    
   201  101  223 1    
   202  101  224 1    
   203  102  103 2    
   204  102  104 am   BACKBONE|DICT|INTERRES
   205  104  105 1    
   206  104  225 1    
   207  105  106 1    
   208  105  107 1    
   209  105  226 1    
   210  106  227 1    
   211  106  228 1    
   212  106  229 1    
   213  107  108 2    
   214  107  109 am   BACKBONE|DICT|INTERRES
   215  109  110 1    
   216  109  230 1    
   217  110  111 1    
   218  110  112 1    
   219  110  231 1    
   220  111  232 1    
   221  111  233 1    
   222  111  234 1    
   223  112  113 2    
   224  112  114 am   BACKBONE|DICT|INTERRES
   225  114  115 1    
   226  114  235 1    
   227  115  116 1    
   228  115  117 1    
   229  115  236 1    
   230  116  237 1    
   231  116  238 1    
   232  116  239 1    
   233  117  118 2    
   234  117  119 am   BACKBONE|DICT|INTERRES
   235  119  120 1    
   236  119  240 1    
   237  120  121 1    
   238  120  124 1    
   239  120  241 1    
   240  121  122 am   BACKBONE|DICT|INTERRES
   241  121  123 2    
   242  122  242 1    
   243  122  243 1    
   244  124  125 1    
   245  124  244 1    
   246  124  245 1    
   247  125  126 1    
   248  126  246 1    
   249  126  247 1    
@<TRIPOS>SUBSTRUCTURE
     1 UNK         1 GROUP             0       ****    0 ROOT    
