@<TRIPOS>MOLECULE
3R540
247   249    1
SMALL
USER_CHARGES


@<TRIPOS>ATOM
      1 CA          1.8257  -11.8957  -43.2092 C.3       0 UNK        -0.1800 
      2 C           1.3915  -11.4113  -44.5838 C.2       0 UNK         0.5000 
      3 O           1.6726  -10.2694  -44.9482 O.2       0 UNK        -0.5000 
      4 N           0.7059  -12.2720  -45.3475 N.am      1 UNK        -0.5000 
      5 CA          0.2254  -11.9752  -46.7036 C.3       1 UNK         0.1400 
      6 C6         -0.9973  -12.8387  -47.1047 C.3       23 UNK        -0.0398 
      7 S7         -0.7001  -14.6413  -47.2157 S.3       23 UNK        -0.2404 
      8 C8         -0.6267  -14.8747  -49.0222 C.3       23 UNK        -0.0205 
      9 C9         -0.8289  -16.3299  -49.4200 C.ar      23 UNK        -0.0193 
     10 C10        -2.0377  -16.7437  -49.9902 C.ar      23 UNK        -0.1150 
     11 C11        -2.2206  -18.0738  -50.3801 C.ar      23 UNK        -0.0193 
     12 C12        -1.1959  -18.9987  -50.1670 C.ar      23 UNK        -0.1150 
     13 C13         0.0212  -18.5989  -49.6094 C.ar      23 UNK        -0.0193 
     14 C14         0.2034  -17.2577  -49.2529 C.ar      23 UNK        -0.1150 
     15 C15         1.1301  -19.6281  -49.4137 C.3       23 UNK        -0.0205 
     16 S16         1.8855  -19.6029  -47.7531 S.3       23 UNK        -0.2404 
     17 C17         0.4320  -19.6441  -46.6507 C.3       23 UNK        -0.0398 
     18 CA          0.1375  -21.0469  -46.0831 C.3       11 UNK         0.1400 
     19 N          -0.6903  -20.9561  -44.8826 N.am      11 UNK        -0.5000 
     20 C          -0.9692  -21.9761  -44.0624 C.2       10 UNK         0.5000 
     21 O          -0.5119  -23.1114  -44.1962 O.2       10 UNK        -0.5000 
     22 CA         -1.9703  -21.6781  -42.9341 C.3       10 UNK         0.1400 
     23 CB         -1.2770  -20.9701  -41.7602 C.3       10 UNK        -0.1800 
     24 N          -3.0911  -20.8636  -43.4088 N.am      10 UNK        -0.5000 
     25 C          -4.0345  -21.3042  -44.2537 C.2       9 UNK         0.5000 
     26 O          -4.0780  -22.4556  -44.6863 O.2       9 UNK        -0.5000 
     27 CA         -5.0845  -20.2780  -44.7188 C.3       9 UNK         0.1400 
     28 CB         -6.2091  -20.1464  -43.6810 C.3       9 UNK        -0.1800 
     29 N          -4.5150  -18.9560  -44.9868 N.am      9 UNK        -0.5000 
     30 C          -3.6383  -18.6913  -45.9666 C.2       8 UNK         0.5000 
     31 O          -3.2072  -19.5375  -46.7437 O.2       8 UNK        -0.5000 
     32 CA         -3.1030  -17.2524  -46.0476 C.3       8 UNK         0.1400 
     33 CB         -4.0756  -16.3513  -46.8227 C.3       8 UNK        -0.1800 
     34 N          -2.8454  -16.6736  -44.7276 N.am      8 UNK        -0.5000 
     35 C          -1.9446  -17.1488  -43.8594 C.2       7 UNK         0.5000 
     36 O          -1.2487  -18.1491  -44.0615 O.2       7 UNK        -0.5000 
     37 CA         -1.8202  -16.4044  -42.5278 C.3       7 UNK         0.1400 
     38 CB         -2.6233  -17.1054  -41.4199 C.3       7 UNK        -0.1800 
     39 N          -0.4085  -16.3752  -42.1823 N.am      7 UNK        -0.5000 
     40 C           0.2134  -15.3811  -41.5428 C.2       6 UNK         0.5000 
     41 O          -0.3693  -14.4317  -41.0174 O.2       6 UNK        -0.5000 
     42 CA          1.7532  -15.4402  -41.5083 C.3       6 UNK         0.1400 
     43 CB          2.2351  -16.1138  -40.2147 C.3       6 UNK        -0.1800 
     44 N           2.3629  -16.1241  -42.6539 N.am      6 UNK        -0.5000 
     45 C           2.2262  -15.7868  -43.9435 C.2       5 UNK         0.5000 
     46 O           1.5107  -14.8658  -44.3396 O.2       5 UNK        -0.5000 
     47 CA          3.0694  -16.5967  -44.9483 C.3       5 UNK         0.1400 
     48 CB          2.5653  -16.4203  -46.3872 C.3       5 UNK        -0.1800 
     49 N           4.4744  -16.1954  -44.8911 N.am      5 UNK        -0.5000 
     50 C           5.3255  -16.4898  -43.8977 C.2       4 UNK         0.5000 
     51 O           5.0427  -17.2421  -42.9634 O.2       4 UNK        -0.5000 
     52 CA          6.7178  -15.8278  -43.9350 C.3       4 UNK         0.1400 
     53 CB          7.7725  -16.8230  -44.4420 C.3       4 UNK        -0.1800 
     54 N           6.7763  -14.6177  -44.7574 N.am      4 UNK        -0.5000 
     55 C           6.1446  -13.4641  -44.4996 C.2       3 UNK         0.5000 
     56 O           5.4511  -13.2707  -43.5009 O.2       3 UNK        -0.5000 
     57 CA          6.2976  -12.3384  -45.5428 C.3       3 UNK         0.1400 
     58 CB          7.6547  -12.3678  -46.2805 C.3       3 UNK        -0.1800 
     59 N           5.1907  -12.3048  -46.5061 N.am      3 UNK        -0.5000 
     60 C           4.7903  -13.2860  -47.3283 C.2       2 UNK         0.5000 
     61 O           5.2646  -14.4231  -47.3328 O.2       2 UNK        -0.5000 
     62 CA          3.6223  -12.9335  -48.2591 C.3       2 UNK         0.1400 
     63 CB          3.3732  -13.9842  -49.3606 C.3       2 UNK        -0.1800 
     64 N           2.4321  -12.7600  -47.4375 N.am      2 UNK        -0.5000 
     65 C           1.3550  -12.0339  -47.7551 C.2       1 UNK         0.5000 
     66 O           1.2327  -11.4175  -48.8145 O.2       1 UNK        -0.5000 
     67 C          -0.4875  -21.9867  -47.1365 C.2       11 UNK         0.5000 
     68 O           0.2127  -22.8435  -47.6734 O.2       11 UNK        -0.5000 
     69 N          -1.8005  -21.8553  -47.3706 N.am      12 UNK        -0.5000 
     70 CA         -2.5854  -22.7197  -48.2504 C.3       12 UNK         0.1400 
     71 CB         -4.0187  -22.1891  -48.3577 C.3       12 UNK        -0.1800 
     72 C          -2.6047  -24.1863  -47.7957 C.2       12 UNK         0.5000 
     73 O          -2.5056  -25.0749  -48.6393 O.2       12 UNK        -0.5000 
     74 N          -2.7036  -24.4186  -46.4792 N.am      13 UNK        -0.5000 
     75 CA         -2.6263  -25.7475  -45.8724 C.3       13 UNK         0.1400 
     76 CB         -3.0189  -25.6685  -44.3896 C.3       13 UNK        -0.1800 
     77 C          -1.2389  -26.3930  -46.0448 C.2       13 UNK         0.5000 
     78 O          -1.1625  -27.5836  -46.3481 O.2       13 UNK        -0.5000 
     79 N          -0.1737  -25.5930  -45.8906 N.am      14 UNK        -0.5000 
     80 CA          1.2133  -26.0052  -46.1171 C.3       14 UNK         0.1400 
     81 CB          2.1651  -24.9345  -45.5618 C.3       14 UNK        -0.1800 
     82 C           1.5124  -26.2962  -47.6012 C.2       14 UNK         0.5000 
     83 O           2.1842  -27.2830  -47.9039 O.2       14 UNK        -0.5000 
     84 N           0.9872  -25.4505  -48.4984 N.am      15 UNK        -0.5000 
     85 CA          1.0758  -25.6013  -49.9538 C.3       15 UNK         0.1400 
     86 CB          0.7033  -24.2632  -50.6123 C.3       15 UNK        -0.1800 
     87 C           0.1868  -26.7323  -50.5114 C.2       15 UNK         0.5000 
     88 O           0.4287  -27.1942  -51.6269 O.2       15 UNK        -0.5000 
     89 N          -0.8257  -27.1370  -49.7323 N.am      16 UNK        -0.5000 
     90 CA         -1.8790  -28.1088  -50.0362 C.3       16 UNK         0.1400 
     91 CB         -1.2901  -29.5129  -50.2862 C.3       16 UNK        -0.1800 
     92 C          -2.8384  -27.6402  -51.1528 C.2       16 UNK         0.5000 
     93 O          -3.4223  -28.4750  -51.8468 O.2       16 UNK        -0.5000 
     94 N          -3.0072  -26.3189  -51.2913 N.am      17 UNK        -0.5000 
     95 CA         -3.8944  -25.6614  -52.2462 C.3       17 UNK         0.1400 
     96 CB         -3.3852  -25.8383  -53.6909 C.3       17 UNK        -0.1800 
     97 C          -3.9887  -24.1689  -51.9024 C.2       17 UNK         0.5000 
     98 O          -2.9549  -23.5256  -51.7121 O.2       17 UNK        -0.5000 
     99 N          -5.2186  -23.6421  -51.8634 N.am      18 UNK        -0.5000 
    100 CA        -5.5003  -22.2091  -51.7243 C.3       18 UNK         0.1400 
    101 CB        -6.7930  -22.0353  -50.9121 C.3       18 UNK        -0.1800 
    102 C         -5.6316  -21.5181  -53.0953 C.2       18 UNK         0.5000 
    103 O         -5.3169  -20.3322  -53.2147 O.2       18 UNK        -0.5000 
    104 N         -6.0914  -22.2783  -54.1036 N.am      19 UNK        -0.5000 
    105 CA        -6.2959  -21.8799  -55.5006 C.3       19 UNK         0.1400 
    106 CB        -4.9245  -21.7073  -56.1922 C.3       19 UNK        -0.1800 
    107 C         -7.2144  -20.6447  -55.6553 C.2       19 UNK         0.5000 
    108 O         -8.0140  -20.3463  -54.7648 O.2       19 UNK        -0.5000 
    109 N         -7.0756  -19.9270  -56.7764 N.am      20 UNK        -0.5000 
    110 CA        -7.7288  -18.6371  -57.0154 C.3       20 UNK         0.1400 
    111 CB        -7.6705  -18.3254  -58.5192 C.3       20 UNK        -0.1800 
    112 C         -7.1003  -17.4869  -56.1987 C.2       20 UNK         0.5000 
    113 O         -7.7075  -16.4210  -56.0913 O.2       20 UNK        -0.5000 
    114 N         -5.8942  -17.7143  -55.6577 N.am      21 UNK        -0.5000 
    115 CA        -5.1234  -16.7564  -54.8705 C.3       21 UNK         0.1400 
    116 CB        -3.6878  -17.2795  -54.7068 C.3       21 UNK        -0.1800 
    117 C         -5.7600  -16.4376  -53.5057 C.2       21 UNK         0.5000 
    118 O         -5.7761  -15.2692  -53.1154 O.2       21 UNK        -0.5000 
    119 N         -6.2735  -17.4601  -52.8086 N.am      22 UNK        -0.5000 
    120 CA        -6.9074  -17.3079  -51.4880 C.3       22 UNK         0.1400 
    121 C         -8.0737  -18.2965  -51.2014 C.2       22 UNK         0.5000 
    122 N         -8.4969  -19.1431  -52.1327 N.am      22 UNK        -0.7600 
    123 O         -8.6428  -18.2731  -50.1134 O.2       22 UNK        -0.5000 
    124 C124       -5.8718  -17.1950  -50.3302 C.3       23 UNK        -0.0398 
    125 S125       -4.9171  -18.7193  -50.0082 S.3       23 UNK        -0.2404 
    126 C126       -3.4844  -18.5048  -51.1072 C.3       23 UNK        -0.0205 
    127 H127        1.9476  -11.0559  -42.5251 H         1 UNK         0.0600 
    128 H128        2.7763  -12.4246  -43.2783 H         1 UNK         0.0600 
    129 H129        1.0827  -12.5700  -42.7841 H         1 UNK         0.0600 
    130 H130        0.5830  -13.2282  -45.0242 H         1 UNK         0.3000 
    131 H131       -0.1237  -10.9402  -46.7014 H         1 UNK         0.0600 
    132 H132       -1.4129  -12.4755  -48.0456 H         1 UNK         0.0800 
    133 H133       -1.7909  -12.6887  -46.3717 H         1 UNK         0.0800 
    134 H134        0.3376  -14.5243  -49.3914 H         1 UNK         0.0800 
    135 H135       -1.3838  -14.2554  -49.5048 H         1 UNK         0.0800 
    136 H136       -2.8291  -16.0263  -50.1521 H         1 UNK         0.1150 
    137 H137       -1.3384  -20.0292  -50.4619 H         1 UNK         0.1150 
    138 H138        1.1458  -16.9367  -48.8341 H         1 UNK         0.1150 
    139 H139        0.7568  -20.6359  -49.6034 H         1 UNK         0.0800 
    140 H140        1.9093  -19.4469  -50.1548 H         1 UNK         0.0800 
    141 H141       -0.4522  -19.2198  -47.1261 H         1 UNK         0.0800 
    142 H142        0.6649  -18.9659  -45.8290 H         1 UNK         0.0800 
    143 H143        1.0855  -21.4919  -45.7725 H         1 UNK         0.0600 
    144 H144       -1.0874  -20.0449  -44.6761 H         1 UNK         0.3000 
    145 H145       -2.3654  -22.6305  -42.5740 H         1 UNK         0.0600 
    146 H146       -1.9740  -20.7867  -40.9423 H         1 UNK         0.0600 
    147 H147       -0.4651  -21.5811  -41.3639 H         1 UNK         0.0600 
    148 H148       -0.8488  -20.0127  -42.0588 H         1 UNK         0.0600 
    149 H149       -3.1020  -19.8939  -43.1318 H         1 UNK         0.3000 
    150 H150       -5.5216  -20.6488  -45.6482 H         1 UNK         0.0600 
    151 H151       -6.6638  -21.1161  -43.4740 H         1 UNK         0.0600 
    152 H152       -7.0006  -19.4878  -44.0389 H         1 UNK         0.0600 
    153 H153       -5.8416  -19.7472  -42.7347 H         1 UNK         0.0600 
    154 H154       -4.8075  -18.2009  -44.3849 H         1 UNK         0.3000 
    155 H155       -2.1570  -17.2822  -46.5930 H         1 UNK         0.0600 
    156 H156       -5.0472  -16.2846  -46.3323 H         1 UNK         0.0600 
    157 H157       -4.2394  -16.7382  -47.8281 H         1 UNK         0.0600 
    158 H158       -3.6812  -15.3409  -46.9288 H         1 UNK         0.0600 
    159 H159       -3.3755  -15.8486  -44.4876 H         1 UNK         0.3000 
    160 H160       -2.1900  -15.3849  -42.6587 H         1 UNK         0.0600 
    161 H161       -2.2720  -18.1231  -41.2489 H         1 UNK         0.0600 
    162 H162       -3.6817  -17.1594  -41.6772 H         1 UNK         0.0600 
    163 H163       -2.5452  -16.5641  -40.4769 H         1 UNK         0.0600 
    164 H164        0.1443  -17.0996  -42.6217 H         1 UNK         0.3000 
    165 H165        2.1199  -14.4124  -41.5121 H         1 UNK         0.0600 
    166 H166        3.3217  -16.0782  -40.1324 H         1 UNK         0.0600 
    167 H167        1.8270  -15.6119  -39.3363 H         1 UNK         0.0600 
    168 H168        1.9283  -17.1594  -40.1683 H         1 UNK         0.0600 
    169 H169        3.0455  -16.8410  -42.4358 H         1 UNK         0.3000 
    170 H170        2.9892  -17.6549  -44.6907 H         1 UNK         0.0600 
    171 H171        2.5888  -15.3782  -46.6958 H         1 UNK         0.0600 
    172 H172        3.1689  -16.9894  -47.0938 H         1 UNK         0.0600 
    173 H173        1.5334  -16.7593  -46.4788 H         1 UNK         0.0600 
    174 H174        4.7969  -15.5775  -45.6276 H         1 UNK         0.3000 
    175 H175        6.9725  -15.5497  -42.9103 H         1 UNK         0.0600 
    176 H176        7.5793  -17.1220  -45.4730 H         1 UNK         0.0600 
    177 H177        8.7739  -16.3942  -44.3976 H         1 UNK         0.0600 
    178 H178        7.7810  -17.7283  -43.8334 H         1 UNK         0.0600 
    179 H179        7.2764  -14.6943  -45.6317 H         1 UNK         0.3000 
    180 H180        6.2517  -11.4006  -44.9868 H         1 UNK         0.0600 
    181 H181        7.7525  -13.2288  -46.9423 H         1 UNK         0.0600 
    182 H182        8.4848  -12.3971  -45.5734 H         1 UNK         0.0600 
    183 H183        7.7836  -11.4725  -46.8888 H         1 UNK         0.0600 
    184 H184        4.6864  -11.4297  -46.5440 H         1 UNK         0.3000 
    185 H185        3.8696  -11.9853  -48.7410 H         1 UNK         0.0600 
    186 H186        3.0594  -14.9433  -48.9494 H         1 UNK         0.0600 
    187 H187        2.6022  -13.6519  -50.0554 H         1 UNK         0.0600 
    188 H188        4.2781  -14.1579  -49.9439 H         1 UNK         0.0600 
    189 H189        2.4448  -13.2148  -46.5344 H         1 UNK         0.3000 
    190 H190       -2.3043  -21.0774  -46.9477 H         1 UNK         0.3000 
    191 H191       -2.1312  -22.6827  -49.2420 H         1 UNK         0.0600 
    192 H192       -4.6291  -22.8494  -48.9724 H         1 UNK         0.0600 
    193 H193       -4.0346  -21.2019  -48.8153 H         1 UNK         0.0600 
    194 H194       -4.4985  -22.1153  -47.3823 H         1 UNK         0.0600 
    195 H195       -2.8513  -23.6357  -45.8514 H         1 UNK         0.3000 
    196 H196       -3.3531  -26.3866  -46.3784 H         1 UNK         0.0600 
    197 H197       -2.9933  -26.6555  -43.9264 H         1 UNK         0.0600 
    198 H198       -4.0304  -25.2796  -44.2708 H         1 UNK         0.0600 
    199 H199       -2.3454  -25.0239  -43.8253 H         1 UNK         0.0600 
    200 H200       -0.3233  -24.6330  -45.5982 H         1 UNK         0.3000 
    201 H201        1.3834  -26.9278  -45.5582 H         1 UNK         0.0600 
    202 H202        1.9951  -24.7707  -44.4975 H         1 UNK         0.0600 
    203 H203        2.0406  -23.9781  -46.0695 H         1 UNK         0.0600 
    204 H204        3.2058  -25.2373  -45.6832 H         1 UNK         0.0600 
    205 H205        0.5173  -24.6136  -48.1590 H         1 UNK         0.3000 
    206 H206        2.1103  -25.8355  -50.2128 H         1 UNK         0.0600 
    207 H207        1.3570  -23.4595  -50.2729 H         1 UNK         0.0600 
    208 H208        0.7934  -24.3206  -51.6977 H         1 UNK         0.0600 
    209 H209       -0.3242  -23.9772  -50.3841 H         1 UNK         0.0600 
    210 H210       -0.9624  -26.6275  -48.8684 H         1 UNK         0.3000 
    211 H211       -2.4871  -28.1694  -49.1325 H         1 UNK         0.0600 
    212 H212       -0.7344  -29.5602  -51.2229 H         1 UNK         0.0600 
    213 H213       -2.0793  -30.2637  -50.3380 H         1 UNK         0.0600 
    214 H214       -0.6175  -29.8066  -49.4802 H         1 UNK         0.0600 
    215 H215       -2.5477  -25.6998  -50.6295 H         1 UNK         0.3000 
    216 H216       -4.8859  -26.1103  -52.1591 H         1 UNK         0.0600 
    217 H217       -4.0042  -25.2807  -54.3951 H         1 UNK         0.0600 
    218 H218       -3.4080  -26.8822  -54.0026 H         1 UNK         0.0600 
    219 H219       -2.3607  -25.4798  -53.7990 H         1 UNK         0.0600 
    220 H220       -6.0160  -24.2484  -51.9905 H         1 UNK         0.3000 
    221 H221       -4.6876  -21.7203  -51.1838 H         1 UNK         0.0600 
    222 H222       -6.7535  -22.5827  -49.9708 H         1 UNK         0.0600 
    223 H223       -6.9517  -20.9867  -50.6639 H         1 UNK         0.0600 
    224 H224       -7.6691  -22.3807  -51.4623 H         1 UNK         0.0600 
    225 H225       -6.3541  -23.2276  -53.8888 H         1 UNK         0.3000 
    226 H226       -6.8151  -22.7089  -55.9834 H         1 UNK         0.0600 
    227 H227       -4.3926  -20.8289  -55.8246 H         1 UNK         0.0600 
    228 H228       -4.2875  -22.5743  -56.0157 H         1 UNK         0.0600 
    229 H229       -5.0267  -21.6090  -57.2733 H         1 UNK         0.0600 
    230 H230       -6.4160  -20.2352  -57.4763 H         1 UNK         0.3000 
    231 H231       -8.7781  -18.7141  -56.7224 H         1 UNK         0.0600 
    232 H232       -6.6424  -18.2360  -58.8725 H         1 UNK         0.0600 
    233 H233       -8.1775  -17.3861  -58.7440 H         1 UNK         0.0600 
    234 H234       -8.1607  -19.1047  -59.1031 H         1 UNK         0.0600 
    235 H235       -5.4821  -18.6261  -55.7835 H         1 UNK         0.3000 
    236 H236       -5.0765  -15.8222  -55.4344 H         1 UNK         0.0600 
    237 H237       -3.6676  -18.2635  -54.2370 H         1 UNK         0.0600 
    238 H238       -3.1885  -17.3625  -55.6722 H         1 UNK         0.0600 
    239 H239       -3.0912  -16.6051  -54.0909 H         1 UNK         0.0600 
    240 H240       -6.1561  -18.4106  -53.1434 H         1 UNK         0.3000 
    241 H241       -7.4311  -16.3502  -51.5104 H         1 UNK         0.0600 
    242 H242       -9.2694  -19.7484  -51.9081 H         1 UNK         0.3800 
    243 H243       -8.0814  -19.2176  -53.0527 H         1 UNK         0.3800 
    244 H244       -5.1825  -16.3731  -50.5235 H         1 UNK         0.0800 
    245 H245       -6.3815  -16.9250  -49.4042 H         1 UNK         0.0800 
    246 H246       -3.7090  -17.7746  -51.8809 H         1 UNK         0.0800 
    247 H247       -3.3122  -19.4466  -51.6298 H         1 UNK         0.0800 
@<TRIPOS>BOND
     1    1    2 1    
     2    1  127 1    
     3    1  128 1    
     4    1  129 1    
     5    2    3 2    
     6    2    4 am   BACKBONE|DICT|INTERRES
     7    4    5 1    
     8    4  130 1    
     9    5    6 1    
    10    5   65 1    
    11    5  131 1    
    12    6    7 1    
    13    6  132 1    
    14    6  133 1    
    15    7    8 1    
    16    8    9 1    
    17    8  134 1    
    18    8  135 1    
    19    9   10 ar   
    20    9   14 ar   
    21   10   11 ar   
    22   10  136 1    
    23   11   12 ar   
    24   11  126 1    
    25   12   13 ar   
    26   12  137 1    
    27   13   14 ar   
    28   13   15 1    
    29   14  138 1    
    30   15   16 1    
    31   15  139 1    
    32   15  140 1    
    33   16   17 1    
    34   17   18 1    
    35   17  141 1    
    36   17  142 1    
    37   18   19 1    
    38   18   67 1    
    39   18  143 1    
    40   19   20 am   BACKBONE|DICT|INTERRES
    41   19  144 1    
    42   20   21 2    
    43   20   22 1    
    44   22   23 1    
    45   22   24 1    
    46   22  145 1    
    47   23  146 1    
    48   23  147 1    
    49   23  148 1    
    50   24   25 am   BACKBONE|DICT|INTERRES
    51   24  149 1    
    52   25   26 2    
    53   25   27 1    
    54   27   28 1    
    55   27   29 1    
    56   27  150 1    
    57   28  151 1    
    58   28  152 1    
    59   28  153 1    
    60   29   30 am   BACKBONE|DICT|INTERRES
    61   29  154 1    
    62   30   31 2    
    63   30   32 1    
    64   32   33 1    
    65   32   34 1    
    66   32  155 1    
    67   33  156 1    
    68   33  157 1    
    69   33  158 1    
    70   34   35 am   BACKBONE|DICT|INTERRES
    71   34  159 1    
    72   35   36 2    
    73   35   37 1    
    74   37   38 1    
    75   37   39 1    
    76   37  160 1    
    77   38  161 1    
    78   38  162 1    
    79   38  163 1    
    80   39   40 am   BACKBONE|DICT|INTERRES
    81   39  164 1    
    82   40   41 2    
    83   40   42 1    
    84   42   43 1    
    85   42   44 1    
    86   42  165 1    
    87   43  166 1    
    88   43  167 1    
    89   43  168 1    
    90   44   45 am   BACKBONE|DICT|INTERRES
    91   44  169 1    
    92   45   46 2    
    93   45   47 1    
    94   47   48 1    
    95   47   49 1    
    96   47  170 1    
    97   48  171 1    
    98   48  172 1    
    99   48  173 1    
   100   49   50 am   BACKBONE|DICT|INTERRES
   101   49  174 1    
   102   50   51 2    
   103   50   52 1    
   104   52   53 1    
   105   52   54 1    
   106   52  175 1    
   107   53  176 1    
   108   53  177 1    
   109   53  178 1    
   110   54   55 am   BACKBONE|DICT|INTERRES
   111   54  179 1    
   112   55   56 2    
   113   55   57 1    
   114   57   58 1    
   115   57   59 1    
   116   57  180 1    
   117   58  181 1    
   118   58  182 1    
   119   58  183 1    
   120   59   60 am   BACKBONE|DICT|INTERRES
   121   59  184 1    
   122   60   61 2    
   123   60   62 1    
   124   62   63 1    
   125   62   64 1    
   126   62  185 1    
   127   63  186 1    
   128   63  187 1    
   129   63  188 1    
   130   64   65 am   BACKBONE|DICT|INTERRES
   131   64  189 1    
   132   65   66 2    
   133   67   68 2    
   134   67   69 am   BACKBONE|DICT|INTERRES
   135   69   70 1    
   136   69  190 1    
   137   70   71 1    
   138   70   72 1    
   139   70  191 1    
   140   71  192 1    
   141   71  193 1    
   142   71  194 1    
   143   72   73 2    
   144   72   74 am   BACKBONE|DICT|INTERRES
   145   74   75 1    
   146   74  195 1    
   147   75   76 1    
   148   75   77 1    
   149   75  196 1    
   150   76  197 1    
   151   76  198 1    
   152   76  199 1    
   153   77   78 2    
   154   77   79 am   BACKBONE|DICT|INTERRES
   155   79   80 1    
   156   79  200 1    
   157   80   81 1    
   158   80   82 1    
   159   80  201 1    
   160   81  202 1    
   161   81  203 1    
   162   81  204 1    
   163   82   83 2    
   164   82   84 am   BACKBONE|DICT|INTERRES
   165   84   85 1    
   166   84  205 1    
   167   85   86 1    
   168   85   87 1    
   169   85  206 1    
   170   86  207 1    
   171   86  208 1    
   172   86  209 1    
   173   87   88 2    
   174   87   89 am   BACKBONE|DICT|INTERRES
   175   89   90 1    
   176   89  210 1    
   177   90   91 1    
   178   90   92 1    
   179   90  211 1    
   180   91  212 1    
   181   91  213 1    
   182   91  214 1    
   183   92   93 2    
   184   92   94 am   BACKBONE|DICT|INTERRES
   185   94   95 1    
   186   94  215 1    
   187   95   96 1    
   188   95   97 1    
   189   95  216 1    
   190   96  217 1    
   191   96  218 1    
   192   96  219 1    
   193   97   98 2    
   194   97   99 am   BACKBONE|DICT|INTERRES
   195   99  100 1    
   196   99  220 1    
   197  100  101 1    
   198  100  102 1    
   199  100  221 1    
   200  101  222 1    
   201  101  223 1    
   202  101  224 1    
   203  102  103 2    
   204  102  104 am   BACKBONE|DICT|INTERRES
   205  104  105 1    
   206  104  225 1    
   207  105  106 1    
   208  105  107 1    
   209  105  226 1    
   210  106  227 1    
   211  106  228 1    
   212  106  229 1    
   213  107  108 2    
   214  107  109 am   BACKBONE|DICT|INTERRES
   215  109  110 1    
   216  109  230 1    
   217  110  111 1    
   218  110  112 1    
   219  110  231 1    
   220  111  232 1    
   221  111  233 1    
   222  111  234 1    
   223  112  113 2    
   224  112  114 am   BACKBONE|DICT|INTERRES
   225  114  115 1    
   226  114  235 1    
   227  115  116 1    
   228  115  117 1    
   229  115  236 1    
   230  116  237 1    
   231  116  238 1    
   232  116  239 1    
   233  117  118 2    
   234  117  119 am   BACKBONE|DICT|INTERRES
   235  119  120 1    
   236  119  240 1    
   237  120  121 1    
   238  120  124 1    
   239  120  241 1    
   240  121  122 am   BACKBONE|DICT|INTERRES
   241  121  123 2    
   242  122  242 1    
   243  122  243 1    
   244  124  125 1    
   245  124  244 1    
   246  124  245 1    
   247  125  126 1    
   248  126  246 1    
   249  126  247 1    
@<TRIPOS>SUBSTRUCTURE
     1 UNK         1 GROUP             0       ****    0 ROOT    
