@<TRIPOS>MOLECULE
3R540
247   249    1
SMALL
USER_CHARGES


@<TRIPOS>ATOM
      1 CA          0.3466   -9.9003  -50.7870 C.3       0 UNK        -0.1800 
      2 C           0.7687  -11.1375  -50.0066 C.2       0 UNK         0.5000 
      3 O           1.5760  -11.9263  -50.4994 O.2       0 UNK        -0.5000 
      4 N           0.2204  -11.3120  -48.7984 N.am      1 UNK        -0.5000 
      5 CA          0.5287  -12.4209  -47.8895 C.3       1 UNK         0.1400 
      6 C6         -0.5456  -12.5844  -46.7831 C.3       23 UNK        -0.0398 
      7 S7         -2.2483  -12.7915  -47.4139 S.3       23 UNK        -0.2404 
      8 C8         -2.5027  -14.5940  -47.3151 C.3       23 UNK        -0.0205 
      9 C9         -2.0223  -15.2946  -48.5764 C.ar      23 UNK        -0.0193 
     10 C10        -2.9005  -15.4915  -49.6469 C.ar      23 UNK        -0.1150 
     11 C11        -2.4569  -16.0980  -50.8255 C.ar      23 UNK        -0.0193 
     12 C12        -1.1236  -16.5028  -50.9303 C.ar      23 UNK        -0.1150 
     13 C13        -0.2393  -16.3201  -49.8644 C.ar      23 UNK        -0.0193 
     14 C14        -0.6996  -15.7314  -48.6829 C.ar      23 UNK        -0.1150 
     15 C15         1.2206  -16.7227  -50.0099 C.3       23 UNK        -0.0205 
     16 S16         1.4526  -18.5258  -49.9559 S.3       23 UNK        -0.2404 
     17 C17         1.0548  -18.8844  -48.2132 C.3       23 UNK        -0.0398 
     18 CA          0.1353  -20.1129  -48.0323 C.3       11 UNK         0.1400 
     19 N           0.1435  -20.5674  -46.6417 N.am      11 UNK        -0.5000 
     20 C          -0.3404  -21.7394  -46.2142 C.2       10 UNK         0.5000 
     21 O          -0.8369  -22.5847  -46.9570 O.2       10 UNK        -0.5000 
     22 CA         -0.2981  -21.9916  -44.6968 C.3       10 UNK         0.1400 
     23 CB          1.1089  -22.4184  -44.2527 C.3       10 UNK        -0.1800 
     24 N          -0.7292  -20.8271  -43.9219 N.am      10 UNK        -0.5000 
     25 C          -1.9636  -20.3052  -43.9715 C.2       9 UNK         0.5000 
     26 O          -2.8763  -20.7727  -44.6527 O.2       9 UNK        -0.5000 
     27 CA         -2.2119  -19.0251  -43.1547 C.3       9 UNK         0.1400 
     28 CB         -2.4120  -19.3572  -41.6685 C.3       9 UNK        -0.1800 
     29 N          -1.1393  -18.0406  -43.2990 N.am      9 UNK        -0.5000 
     30 C          -0.7999  -17.4482  -44.4527 C.2       8 UNK         0.5000 
     31 O          -1.3652  -17.6526  -45.5246 O.2       8 UNK        -0.5000 
     32 CA          0.4146  -16.5079  -44.4193 C.3       8 UNK         0.1400 
     33 CB          0.0522  -15.1652  -43.7700 C.3       8 UNK        -0.1800 
     34 N           1.5585  -17.1000  -43.7297 N.am      8 UNK        -0.5000 
     35 C           2.1730  -18.2324  -44.1009 C.2       7 UNK         0.5000 
     36 O           1.8688  -18.8849  -45.0978 O.2       7 UNK        -0.5000 
     37 CA          3.2818  -18.7494  -43.1728 C.3       7 UNK         0.1400 
     38 CB          4.5983  -18.0006  -43.4267 C.3       7 UNK        -0.1800 
     39 N           2.9033  -18.6352  -41.7647 N.am      7 UNK        -0.5000 
     40 C           1.9298  -19.3531  -41.1853 C.2       6 UNK         0.5000 
     41 O           1.2709  -20.2143  -41.7687 O.2       6 UNK        -0.5000 
     42 CA          1.6114  -19.0167  -39.7180 C.3       6 UNK         0.1400 
     43 CB          2.6127  -19.6976  -38.7729 C.3       6 UNK        -0.1800 
     44 N           1.6058  -17.5748  -39.4667 N.am      6 UNK        -0.5000 
     45 C           0.7083  -16.7237  -39.9832 C.2       5 UNK         0.5000 
     46 O          -0.2267  -17.0705  -40.7041 O.2       5 UNK        -0.5000 
     47 CA          0.9137  -15.2297  -39.6747 C.3       5 UNK         0.1400 
     48 CB          0.2589  -14.8609  -38.3352 C.3       5 UNK        -0.1800 
     49 N           2.3213  -14.8210  -39.6572 N.am      5 UNK        -0.5000 
     50 C           3.1468  -14.8854  -40.7098 C.2       4 UNK         0.5000 
     51 O           2.8350  -15.3690  -41.8004 O.2       4 UNK        -0.5000 
     52 CA          4.5703  -14.3484  -40.5036 C.3       4 UNK         0.1400 
     53 CB          5.5864  -15.4996  -40.4496 C.3       4 UNK        -0.1800 
     54 N           4.9161  -13.4466  -41.5989 N.am      4 UNK        -0.5000 
     55 C           4.6158  -12.1415  -41.6233 C.2       3 UNK         0.5000 
     56 O           4.0961  -11.5413  -40.6814 O.2       3 UNK        -0.5000 
     57 CA          4.9498  -11.3741  -42.9170 C.3       3 UNK         0.1400 
     58 CB          6.3782  -10.8111  -42.8552 C.3       3 UNK        -0.1800 
     59 N           4.8036  -12.1830  -44.1303 N.am      3 UNK        -0.5000 
     60 C           3.6292  -12.5938  -44.6263 C.2       2 UNK         0.5000 
     61 O           2.5415  -12.3582  -44.0946 O.2       2 UNK        -0.5000 
     62 CA          3.6946  -13.4213  -45.9273 C.3       2 UNK         0.1400 
     63 CB          4.0113  -14.8903  -45.6050 C.3       2 UNK        -0.1800 
     64 N           2.4478  -13.3703  -46.6954 N.am      2 UNK        -0.5000 
     65 C           1.9294  -12.2663  -47.2523 C.2       1 UNK         0.5000 
     66 O           2.4958  -11.1692  -47.2471 O.2       1 UNK        -0.5000 
     67 C          -1.2996  -19.8792  -48.5560 C.2       11 UNK         0.5000 
     68 O          -1.6057  -20.2985  -49.6713 O.2       11 UNK        -0.5000 
     69 N          -2.1657  -19.2774  -47.7269 N.am      12 UNK        -0.5000 
     70 CA         -3.5807  -19.0550  -48.0283 C.3       12 UNK         0.1400 
     71 CB         -4.1985  -18.1414  -46.9600 C.3       12 UNK        -0.1800 
     72 C          -4.3924  -20.3582  -48.1441 C.2       12 UNK         0.5000 
     73 O          -5.3145  -20.4180  -48.9551 O.2       12 UNK        -0.5000 
     74 N          -4.0496  -21.3725  -47.3370 N.am      13 UNK        -0.5000 
     75 CA         -4.6336  -22.7126  -47.4105 C.3       13 UNK         0.1400 
     76 CB         -4.3638  -23.4623  -46.0977 C.3       13 UNK        -0.1800 
     77 C          -4.0962  -23.5161  -48.6077 C.2       13 UNK         0.5000 
     78 O          -4.8568  -24.2548  -49.2382 O.2       13 UNK        -0.5000 
     79 N          -2.7990  -23.3559  -48.9019 N.am      14 UNK        -0.5000 
     80 CA         -2.0364  -24.0414  -49.9449 C.3       14 UNK         0.1400 
     81 CB         -2.5320  -23.6074  -51.3419 C.3       14 UNK        -0.1800 
     82 C          -2.0447  -25.5670  -49.7109 C.2       14 UNK         0.5000 
     83 O          -1.8110  -26.0078  -48.5841 O.2       14 UNK        -0.5000 
     84 N          -2.3703  -26.3513  -50.7453 N.am      15 UNK        -0.5000 
     85 CA         -2.5747  -27.8017  -50.6858 C.3       15 UNK         0.1400 
     86 CB         -2.2777  -28.3896  -52.0778 C.3       15 UNK        -0.1800 
     87 C          -3.9895  -28.1710  -50.1775 C.2       15 UNK         0.5000 
     88 O          -4.6112  -29.0900  -50.7130 O.2       15 UNK        -0.5000 
     89 N          -4.4824  -27.4253  -49.1753 N.am      16 UNK        -0.5000 
     90 CA         -5.8354  -27.4598  -48.6052 C.3       16 UNK         0.1400 
     91 CB         -6.0708  -28.7746  -47.8332 C.3       16 UNK        -0.1800 
     92 C          -6.9198  -27.1710  -49.6664 C.2       16 UNK         0.5000 
     93 O          -7.9339  -27.8694  -49.7314 O.2       16 UNK        -0.5000 
     94 N          -6.6580  -26.1593  -50.5028 N.am      17 UNK        -0.5000 
     95 CA         -7.4604  -25.8193  -51.6794 C.3       17 UNK         0.1400 
     96 CB         -7.0261  -26.7100  -52.8592 C.3       17 UNK        -0.1800 
     97 C          -7.3815  -24.3336  -52.0741 C.2       17 UNK         0.5000 
     98 O          -8.1613  -23.9132  -52.9302 O.2       17 UNK        -0.5000 
     99 N          -6.4471  -23.5701  -51.4852 N.am      18 UNK        -0.5000 
    100 CA        -6.1066  -22.1639  -51.7442 C.3       18 UNK         0.1400 
    101 CB        -7.2857  -21.2244  -51.4282 C.3       18 UNK        -0.1800 
    102 C         -5.5404  -21.8958  -53.1503 C.2       18 UNK         0.5000 
    103 O         -4.4176  -21.4060  -53.2728 O.2       18 UNK        -0.5000 
    104 N         -6.3069  -22.2486  -54.1892 N.am      19 UNK        -0.5000 
    105 CA        -6.0277  -22.0176  -55.6097 C.3       19 UNK         0.1400 
    106 CB        -7.2082  -22.5453  -56.4377 C.3       19 UNK        -0.1800 
    107 C         -4.7040  -22.6230  -56.1149 C.2       19 UNK         0.5000 
    108 O         -4.1423  -22.1171  -57.0865 O.2       19 UNK        -0.5000 
    109 N         -4.2045  -23.6568  -55.4239 N.am      20 UNK        -0.5000 
    110 CA        -2.9000  -24.2773  -55.6593 C.3       20 UNK         0.1400 
    111 CB        -2.7813  -25.5342  -54.7825 C.3       20 UNK        -0.1800 
    112 C         -1.7023  -23.3260  -55.4372 C.2       20 UNK         0.5000 
    113 O         -0.6454  -23.5593  -56.0251 O.2       20 UNK        -0.5000 
    114 N         -1.8870  -22.2735  -54.6262 N.am      21 UNK        -0.5000 
    115 CA        -0.9238  -21.1858  -54.4440 C.3       21 UNK         0.1400 
    116 CB        -0.5413  -21.0719  -52.9601 C.3       21 UNK        -0.1800 
    117 C         -1.4993  -19.8513  -54.9452 C.2       21 UNK         0.5000 
    118 O         -0.7791  -19.0882  -55.5903 O.2       21 UNK        -0.5000 
    119 N         -2.7746  -19.5862  -54.6353 N.am      22 UNK        -0.5000 
    120 CA        -3.4569  -18.3117  -54.9084 C.3       22 UNK         0.1400 
    121 C         -3.9929  -18.1468  -56.3598 C.2       22 UNK         0.5000 
    122 N         -3.9756  -19.1647  -57.2107 N.am      22 UNK        -0.7600 
    123 O         -4.4255  -17.0589  -56.7300 O.2       22 UNK        -0.5000 
    124 C124       -4.5692  -18.0215  -53.8648 C.3       23 UNK        -0.0398 
    125 S125       -3.9439  -18.0165  -52.1485 S.3       23 UNK        -0.2404 
    126 C126       -3.3989  -16.2875  -52.0031 C.3       23 UNK        -0.0205 
    127 H127       -0.1032  -10.1908  -51.7364 H         1 UNK         0.0600 
    128 H128       -0.3792   -9.3014  -50.2363 H         1 UNK         0.0600 
    129 H129        1.2145   -9.2749  -50.9964 H         1 UNK         0.0600 
    130 H130       -0.4295  -10.6257  -48.4436 H         1 UNK         0.3000 
    131 H131        0.5478  -13.3314  -48.4887 H         1 UNK         0.0600 
    132 H132       -0.5446  -11.7106  -46.1287 H         1 UNK         0.0800 
    133 H133       -0.3062  -13.4312  -46.1411 H         1 UNK         0.0800 
    134 H134       -2.0128  -15.0091  -46.4339 H         1 UNK         0.0800 
    135 H135       -3.5688  -14.7801  -47.1785 H         1 UNK         0.0800 
    136 H136       -3.9259  -15.1589  -49.5671 H         1 UNK         0.1150 
    137 H137       -0.7734  -16.9624  -51.8442 H         1 UNK         0.1150 
    138 H138       -0.0233  -15.5894  -47.8532 H         1 UNK         0.1150 
    139 H139        1.5989  -16.3495  -50.9627 H         1 UNK         0.0800 
    140 H140        1.8334  -16.2550  -49.2377 H         1 UNK         0.0800 
    141 H141        0.6271  -18.0123  -47.7182 H         1 UNK         0.0800 
    142 H142        2.0090  -19.0662  -47.7175 H         1 UNK         0.0800 
    143 H143        0.5592  -20.9273  -48.6244 H         1 UNK         0.0600 
    144 H144        0.5719  -19.9382  -45.9669 H         1 UNK         0.3000 
    145 H145       -0.9858  -22.8111  -44.4782 H         1 UNK         0.0600 
    146 H146        1.1237  -22.6842  -43.1956 H         1 UNK         0.0600 
    147 H147        1.4479  -23.2909  -44.8125 H         1 UNK         0.0600 
    148 H148        1.8392  -21.6235  -44.4070 H         1 UNK         0.0600 
    149 H149       -0.0383  -20.4056  -43.3092 H         1 UNK         0.3000 
    150 H150       -3.1315  -18.5691  -43.5271 H         1 UNK         0.0600 
    151 H151       -3.2101  -20.0885  -41.5346 H         1 UNK         0.0600 
    152 H152       -2.6868  -18.4682  -41.1007 H         1 UNK         0.0600 
    153 H153       -1.5067  -19.7708  -41.2227 H         1 UNK         0.0600 
    154 H154       -0.6406  -17.7869  -42.4505 H         1 UNK         0.3000 
    155 H155        0.7130  -16.3172  -45.4519 H         1 UNK         0.0600 
    156 H156       -0.1816  -15.2797  -42.7127 H         1 UNK         0.0600 
    157 H157       -0.8215  -14.7190  -44.2448 H         1 UNK         0.0600 
    158 H158        0.8732  -14.4539  -43.8528 H         1 UNK         0.0600 
    159 H159        1.9094  -16.5988  -42.9174 H         1 UNK         0.3000 
    160 H160        3.4430  -19.8062  -43.3962 H         1 UNK         0.0600 
    161 H161        5.3943  -18.3665  -42.7781 H         1 UNK         0.0600 
    162 H162        4.4923  -16.9289  -43.2612 H         1 UNK         0.0600 
    163 H163        4.9287  -18.1378  -44.4571 H         1 UNK         0.0600 
    164 H164        3.3563  -17.9107  -41.2287 H         1 UNK         0.3000 
    165 H165        0.6147  -19.4045  -39.4964 H         1 UNK         0.0600 
    166 H166        2.3474  -19.5275  -37.7293 H         1 UNK         0.0600 
    167 H167        2.6263  -20.7767  -38.9319 H         1 UNK         0.0600 
    168 H168        3.6283  -19.3302  -38.9257 H         1 UNK         0.0600 
    169 H169        2.3422  -17.2054  -38.8838 H         1 UNK         0.3000 
    170 H170        0.4158  -14.6601  -40.4616 H         1 UNK         0.0600 
    171 H171       -0.7966  -15.1366  -38.3279 H         1 UNK         0.0600 
    172 H172        0.7372  -15.3706  -37.4979 H         1 UNK         0.0600 
    173 H173        0.3136  -13.7878  -38.1515 H         1 UNK         0.0600 
    174 H174        2.6583  -14.4151  -38.7961 H         1 UNK         0.3000 
    175 H175        4.6198  -13.8100  -39.5546 H         1 UNK         0.0600 
    176 H176        5.6229  -16.0552  -41.3860 H         1 UNK         0.0600 
    177 H177        6.5901  -15.1255  -40.2471 H         1 UNK         0.0600 
    178 H178        5.3374  -16.2057  -39.6565 H         1 UNK         0.0600 
    179 H179        5.2883  -13.8716  -42.4345 H         1 UNK         0.3000 
    180 H180        4.2578  -10.5319  -42.9866 H         1 UNK         0.0600 
    181 H181        7.1236  -11.6059  -42.8082 H         1 UNK         0.0600 
    182 H182        6.5123  -10.1830  -41.9734 H         1 UNK         0.0600 
    183 H183        6.5977  -10.1948  -43.7273 H         1 UNK         0.0600 
    184 H184        5.6549  -12.4162  -44.6210 H         1 UNK         0.3000 
    185 H185        4.4916  -13.0184  -46.5557 H         1 UNK         0.0600 
    186 H186        4.9752  -14.9846  -45.1037 H         1 UNK         0.0600 
    187 H187        3.2594  -15.3222  -44.9456 H         1 UNK         0.0600 
    188 H188        4.0566  -15.4979  -46.5091 H         1 UNK         0.0600 
    189 H189        1.9215  -14.2285  -46.7274 H         1 UNK         0.3000 
    190 H190       -1.8322  -18.9081  -46.8400 H         1 UNK         0.3000 
    191 H191       -3.6370  -18.5411  -48.9904 H         1 UNK         0.0600 
    192 H192       -4.1555  -18.5953  -45.9695 H         1 UNK         0.0600 
    193 H193       -5.2450  -17.9306  -47.1828 H         1 UNK         0.0600 
    194 H194       -3.6783  -17.1869  -46.9114 H         1 UNK         0.0600 
    195 H195       -3.3351  -21.2185  -46.6339 H         1 UNK         0.3000 
    196 H196       -5.7148  -22.6180  -47.5309 H         1 UNK         0.0600 
    197 H197       -3.2953  -23.5737  -45.9094 H         1 UNK         0.0600 
    198 H198       -4.8003  -24.4616  -46.1211 H         1 UNK         0.0600 
    199 H199       -4.7985  -22.9358  -45.2478 H         1 UNK         0.0600 
    200 H200       -2.2351  -22.8020  -48.2638 H         1 UNK         0.3000 
    201 H201       -1.0030  -23.7098  -49.8348 H         1 UNK         0.0600 
    202 H202       -2.6161  -22.5228  -51.3980 H         1 UNK         0.0600 
    203 H203       -3.5120  -24.0169  -51.5857 H         1 UNK         0.0600 
    204 H204       -1.8303  -23.9149  -52.1171 H         1 UNK         0.0600 
    205 H205       -2.5767  -25.9120  -51.6290 H         1 UNK         0.3000 
    206 H206       -1.8598  -28.2343  -49.9829 H         1 UNK         0.0600 
    207 H207       -1.2754  -28.1230  -52.4137 H         1 UNK         0.0600 
    208 H208       -2.3328  -29.4789  -52.0646 H         1 UNK         0.0600 
    209 H209       -2.9880  -28.0329  -52.8248 H         1 UNK         0.0600 
    210 H210       -3.8763  -26.7021  -48.8079 H         1 UNK         0.3000 
    211 H211       -5.8873  -26.6412  -47.8859 H         1 UNK         0.0600 
    212 H212       -6.0788  -29.6399  -48.4966 H         1 UNK         0.0600 
    213 H213       -7.0281  -28.7543  -47.3112 H         1 UNK         0.0600 
    214 H214       -5.2964  -28.9345  -47.0831 H         1 UNK         0.0600 
    215 H215       -5.8276  -25.6077  -50.3212 H         1 UNK         0.3000 
    216 H216       -8.5120  -26.0173  -51.4615 H         1 UNK         0.0600 
    217 H217       -7.6054  -26.4896  -53.7567 H         1 UNK         0.0600 
    218 H218       -7.1730  -27.7664  -52.6332 H         1 UNK         0.0600 
    219 H219       -5.9726  -26.5654  -53.1022 H         1 UNK         0.0600 
    220 H220       -5.8860  -23.9810  -50.7458 H         1 UNK         0.3000 
    221 H221       -5.3022  -21.9285  -51.0474 H         1 UNK         0.0600 
    222 H222       -8.1336  -21.3818  -52.0949 H         1 UNK         0.0600 
    223 H223       -7.6328  -21.3648  -50.4046 H         1 UNK         0.0600 
    224 H224       -6.9824  -20.1810  -51.5256 H         1 UNK         0.0600 
    225 H225       -7.1833  -22.7152  -53.9672 H         1 UNK         0.3000 
    226 H226       -5.9629  -20.9375  -55.7545 H         1 UNK         0.0600 
    227 H227       -8.1378  -22.0479  -56.1603 H         1 UNK         0.0600 
    228 H228       -7.0514  -22.3684  -57.5026 H         1 UNK         0.0600 
    229 H229       -7.3473  -23.6182  -56.2981 H         1 UNK         0.0600 
    230 H230       -4.7385  -24.0011  -54.6408 H         1 UNK         0.3000 
    231 H231       -2.8675  -24.5906  -56.7048 H         1 UNK         0.0600 
    232 H232       -3.5366  -26.2729  -55.0517 H         1 UNK         0.0600 
    233 H233       -2.9057  -25.3025  -53.7264 H         1 UNK         0.0600 
    234 H234       -1.8070  -26.0096  -54.9043 H         1 UNK         0.0600 
    235 H235       -2.7939  -22.1477  -54.1897 H         1 UNK         0.3000 
    236 H236       -0.0107  -21.3802  -55.0101 H         1 UNK         0.0600 
    237 H237        0.2202  -20.3054  -52.8109 H         1 UNK         0.0600 
    238 H238       -1.3985  -20.7964  -52.3451 H         1 UNK         0.0600 
    239 H239       -0.1381  -22.0099  -52.5791 H         1 UNK         0.0600 
    240 H240       -3.3052  -20.2501  -54.0762 H         1 UNK         0.3000 
    241 H241       -2.7124  -17.5213  -54.7983 H         1 UNK         0.0600 
    242 H242       -4.3188  -19.0231  -58.1473 H         1 UNK         0.3800 
    243 H243       -3.6539  -20.0846  -56.9388 H         1 UNK         0.3800 
    244 H244       -5.0496  -17.0613  -54.0615 H         1 UNK         0.0800 
    245 H245       -5.3567  -18.7731  -53.9362 H         1 UNK         0.0800 
    246 H246       -2.8871  -15.9821  -52.9166 H         1 UNK         0.0800 
    247 H247       -4.2729  -15.6413  -51.9083 H         1 UNK         0.0800 
@<TRIPOS>BOND
     1    1    2 1    
     2    1  127 1    
     3    1  128 1    
     4    1  129 1    
     5    2    3 2    
     6    2    4 am   BACKBONE|DICT|INTERRES
     7    4    5 1    
     8    4  130 1    
     9    5    6 1    
    10    5   65 1    
    11    5  131 1    
    12    6    7 1    
    13    6  132 1    
    14    6  133 1    
    15    7    8 1    
    16    8    9 1    
    17    8  134 1    
    18    8  135 1    
    19    9   10 ar   
    20    9   14 ar   
    21   10   11 ar   
    22   10  136 1    
    23   11   12 ar   
    24   11  126 1    
    25   12   13 ar   
    26   12  137 1    
    27   13   14 ar   
    28   13   15 1    
    29   14  138 1    
    30   15   16 1    
    31   15  139 1    
    32   15  140 1    
    33   16   17 1    
    34   17   18 1    
    35   17  141 1    
    36   17  142 1    
    37   18   19 1    
    38   18   67 1    
    39   18  143 1    
    40   19   20 am   BACKBONE|DICT|INTERRES
    41   19  144 1    
    42   20   21 2    
    43   20   22 1    
    44   22   23 1    
    45   22   24 1    
    46   22  145 1    
    47   23  146 1    
    48   23  147 1    
    49   23  148 1    
    50   24   25 am   BACKBONE|DICT|INTERRES
    51   24  149 1    
    52   25   26 2    
    53   25   27 1    
    54   27   28 1    
    55   27   29 1    
    56   27  150 1    
    57   28  151 1    
    58   28  152 1    
    59   28  153 1    
    60   29   30 am   BACKBONE|DICT|INTERRES
    61   29  154 1    
    62   30   31 2    
    63   30   32 1    
    64   32   33 1    
    65   32   34 1    
    66   32  155 1    
    67   33  156 1    
    68   33  157 1    
    69   33  158 1    
    70   34   35 am   BACKBONE|DICT|INTERRES
    71   34  159 1    
    72   35   36 2    
    73   35   37 1    
    74   37   38 1    
    75   37   39 1    
    76   37  160 1    
    77   38  161 1    
    78   38  162 1    
    79   38  163 1    
    80   39   40 am   BACKBONE|DICT|INTERRES
    81   39  164 1    
    82   40   41 2    
    83   40   42 1    
    84   42   43 1    
    85   42   44 1    
    86   42  165 1    
    87   43  166 1    
    88   43  167 1    
    89   43  168 1    
    90   44   45 am   BACKBONE|DICT|INTERRES
    91   44  169 1    
    92   45   46 2    
    93   45   47 1    
    94   47   48 1    
    95   47   49 1    
    96   47  170 1    
    97   48  171 1    
    98   48  172 1    
    99   48  173 1    
   100   49   50 am   BACKBONE|DICT|INTERRES
   101   49  174 1    
   102   50   51 2    
   103   50   52 1    
   104   52   53 1    
   105   52   54 1    
   106   52  175 1    
   107   53  176 1    
   108   53  177 1    
   109   53  178 1    
   110   54   55 am   BACKBONE|DICT|INTERRES
   111   54  179 1    
   112   55   56 2    
   113   55   57 1    
   114   57   58 1    
   115   57   59 1    
   116   57  180 1    
   117   58  181 1    
   118   58  182 1    
   119   58  183 1    
   120   59   60 am   BACKBONE|DICT|INTERRES
   121   59  184 1    
   122   60   61 2    
   123   60   62 1    
   124   62   63 1    
   125   62   64 1    
   126   62  185 1    
   127   63  186 1    
   128   63  187 1    
   129   63  188 1    
   130   64   65 am   BACKBONE|DICT|INTERRES
   131   64  189 1    
   132   65   66 2    
   133   67   68 2    
   134   67   69 am   BACKBONE|DICT|INTERRES
   135   69   70 1    
   136   69  190 1    
   137   70   71 1    
   138   70   72 1    
   139   70  191 1    
   140   71  192 1    
   141   71  193 1    
   142   71  194 1    
   143   72   73 2    
   144   72   74 am   BACKBONE|DICT|INTERRES
   145   74   75 1    
   146   74  195 1    
   147   75   76 1    
   148   75   77 1    
   149   75  196 1    
   150   76  197 1    
   151   76  198 1    
   152   76  199 1    
   153   77   78 2    
   154   77   79 am   BACKBONE|DICT|INTERRES
   155   79   80 1    
   156   79  200 1    
   157   80   81 1    
   158   80   82 1    
   159   80  201 1    
   160   81  202 1    
   161   81  203 1    
   162   81  204 1    
   163   82   83 2    
   164   82   84 am   BACKBONE|DICT|INTERRES
   165   84   85 1    
   166   84  205 1    
   167   85   86 1    
   168   85   87 1    
   169   85  206 1    
   170   86  207 1    
   171   86  208 1    
   172   86  209 1    
   173   87   88 2    
   174   87   89 am   BACKBONE|DICT|INTERRES
   175   89   90 1    
   176   89  210 1    
   177   90   91 1    
   178   90   92 1    
   179   90  211 1    
   180   91  212 1    
   181   91  213 1    
   182   91  214 1    
   183   92   93 2    
   184   92   94 am   BACKBONE|DICT|INTERRES
   185   94   95 1    
   186   94  215 1    
   187   95   96 1    
   188   95   97 1    
   189   95  216 1    
   190   96  217 1    
   191   96  218 1    
   192   96  219 1    
   193   97   98 2    
   194   97   99 am   BACKBONE|DICT|INTERRES
   195   99  100 1    
   196   99  220 1    
   197  100  101 1    
   198  100  102 1    
   199  100  221 1    
   200  101  222 1    
   201  101  223 1    
   202  101  224 1    
   203  102  103 2    
   204  102  104 am   BACKBONE|DICT|INTERRES
   205  104  105 1    
   206  104  225 1    
   207  105  106 1    
   208  105  107 1    
   209  105  226 1    
   210  106  227 1    
   211  106  228 1    
   212  106  229 1    
   213  107  108 2    
   214  107  109 am   BACKBONE|DICT|INTERRES
   215  109  110 1    
   216  109  230 1    
   217  110  111 1    
   218  110  112 1    
   219  110  231 1    
   220  111  232 1    
   221  111  233 1    
   222  111  234 1    
   223  112  113 2    
   224  112  114 am   BACKBONE|DICT|INTERRES
   225  114  115 1    
   226  114  235 1    
   227  115  116 1    
   228  115  117 1    
   229  115  236 1    
   230  116  237 1    
   231  116  238 1    
   232  116  239 1    
   233  117  118 2    
   234  117  119 am   BACKBONE|DICT|INTERRES
   235  119  120 1    
   236  119  240 1    
   237  120  121 1    
   238  120  124 1    
   239  120  241 1    
   240  121  122 am   BACKBONE|DICT|INTERRES
   241  121  123 2    
   242  122  242 1    
   243  122  243 1    
   244  124  125 1    
   245  124  244 1    
   246  124  245 1    
   247  125  126 1    
   248  126  246 1    
   249  126  247 1    
@<TRIPOS>SUBSTRUCTURE
     1 UNK         1 GROUP             0       ****    0 ROOT    
