@<TRIPOS>MOLECULE
3R540
247   249    1
SMALL
USER_CHARGES


@<TRIPOS>ATOM
      1 CA         -4.2195  -12.0567  -47.7133 C.3       0 UNK        -0.1800 
      2 C          -2.8647  -12.2120  -47.0374 C.2       0 UNK         0.5000 
      3 O          -2.4993  -11.3883  -46.1994 O.2       0 UNK        -0.5000 
      4 N          -2.1205  -13.2654  -47.3967 N.am      1 UNK        -0.5000 
      5 CA         -0.8018  -13.5929  -46.8389 C.3       1 UNK         0.1400 
      6 C6          0.0039  -14.5139  -47.7885 C.3       23 UNK        -0.0398 
      7 S7         -0.7755  -16.1409  -48.0941 S.3       23 UNK        -0.2404 
      8 C8         -0.2262  -16.4794  -49.7920 C.3       23 UNK        -0.0205 
      9 C9         -0.2478  -17.9713  -50.0773 C.ar      23 UNK        -0.0193 
     10 C10        -1.4053  -18.5863  -50.5626 C.ar      23 UNK        -0.1150 
     11 C11        -1.4211  -19.9607  -50.8160 C.ar      23 UNK        -0.0193 
     12 C12        -0.2672  -20.7159  -50.5901 C.ar      23 UNK        -0.1150 
     13 C13         0.8971  -20.1133  -50.1030 C.ar      23 UNK        -0.0193 
     14 C14         0.8970  -18.7394  -49.8483 C.ar      23 UNK        -0.1150 
     15 C15         2.1679  -20.9240  -49.8678 C.3       23 UNK        -0.0205 
     16 S16         1.8917  -22.4831  -48.9654 S.3       23 UNK        -0.2404 
     17 C17         1.3299  -21.8753  -47.3420 C.3       23 UNK        -0.0398 
     18 CA          0.1403  -22.6866  -46.7719 C.3       11 UNK         0.1400 
     19 N           0.0393  -22.5168  -45.3204 N.am      11 UNK        -0.5000 
     20 C          -0.7555  -23.2241  -44.5063 C.2       10 UNK         0.5000 
     21 O          -1.4869  -24.1395  -44.8814 O.2       10 UNK        -0.5000 
     22 CA         -0.7635  -22.7944  -43.0286 C.3       10 UNK         0.1400 
     23 CB          0.4428  -23.3825  -42.2819 C.3       10 UNK        -0.1800 
     24 N          -0.7647  -21.3377  -42.8828 N.am      10 UNK        -0.5000 
     25 C          -1.8018  -20.5553  -43.2184 C.2       9 UNK         0.5000 
     26 O          -2.8704  -20.9860  -43.6480 O.2       9 UNK        -0.5000 
     27 CA         -1.5984  -19.0335  -43.1041 C.3       9 UNK         0.1400 
     28 CB         -1.8942  -18.5673  -41.6700 C.3       9 UNK        -0.1800 
     29 N          -0.2529  -18.6023  -43.4897 N.am      9 UNK        -0.5000 
     30 C           0.3175  -18.8293  -44.6824 C.2       8 UNK         0.5000 
     31 O          -0.2808  -19.3300  -45.6320 O.2       8 UNK        -0.5000 
     32 CA          1.8188  -18.5118  -44.8345 C.3       8 UNK         0.1400 
     33 CB          2.0263  -17.3055  -45.7611 C.3       8 UNK        -0.1800 
     34 N           2.5374  -18.2736  -43.5791 N.am      8 UNK        -0.5000 
     35 C           2.6703  -19.1236  -42.5500 C.2       7 UNK         0.5000 
     36 O           2.1306  -20.2314  -42.5182 O.2       7 UNK        -0.5000 
     37 CA          3.5326  -18.6572  -41.3550 C.3       7 UNK         0.1400 
     38 CB          4.5122  -19.7588  -40.9162 C.3       7 UNK        -0.1800 
     39 N           4.2963  -17.4320  -41.6221 N.am      7 UNK        -0.5000 
     40 C           3.8174  -16.1832  -41.5692 C.2       6 UNK         0.5000 
     41 O           2.6475  -15.9034  -41.2938 O.2       6 UNK        -0.5000 
     42 CA          4.8036  -15.0716  -41.9501 C.3       6 UNK         0.1400 
     43 CB          4.9275  -14.9592  -43.4812 C.3       6 UNK        -0.1800 
     44 N           4.3334  -13.8053  -41.4035 N.am      6 UNK        -0.5000 
     45 C           5.0942  -12.7366  -41.1387 C.2       5 UNK         0.5000 
     46 O           6.3160  -12.7168  -41.3015 O.2       5 UNK        -0.5000 
     47 CA          4.3612  -11.4861  -40.6016 C.3       5 UNK         0.1400 
     48 CB          5.1658  -10.1838  -40.7970 C.3       5 UNK        -0.1800 
     49 N           3.0001  -11.3439  -41.1340 N.am      5 UNK        -0.5000 
     50 C           2.6315  -11.1968  -42.4153 C.2       4 UNK         0.5000 
     51 O           3.4252  -11.1041  -43.3533 O.2       4 UNK        -0.5000 
     52 CA          1.1108  -11.1988  -42.6790 C.3       4 UNK         0.1400 
     53 CB          0.7643  -10.9840  -44.1632 C.3       4 UNK        -0.1800 
     54 N           0.4962  -12.4478  -42.2194 N.am      4 UNK        -0.5000 
     55 C           0.1673  -12.7244  -40.9481 C.2       3 UNK         0.5000 
     56 O           0.3597  -11.9323  -40.0234 O.2       3 UNK        -0.5000 
     57 CA         -0.4189  -14.1193  -40.6407 C.3       3 UNK         0.1400 
     58 CB         -1.4412  -14.0963  -39.4849 C.3       3 UNK        -0.1800 
     59 N          -0.9603  -14.8102  -41.8145 N.am      3 UNK        -0.5000 
     60 C          -2.0289  -14.4639  -42.5460 C.2       2 UNK         0.5000 
     61 O          -2.7456  -13.4868  -42.3232 O.2       2 UNK        -0.5000 
     62 CA         -2.3202  -15.3642  -43.7595 C.3       2 UNK         0.1400 
     63 CB         -3.7670  -15.8823  -43.7500 C.3       2 UNK        -0.1800 
     64 N          -2.0569  -14.6907  -45.0261 N.am      2 UNK        -0.5000 
     65 C          -0.8762  -14.1875  -45.4139 C.2       1 UNK         0.5000 
     66 O           0.1353  -14.2018  -44.7097 O.2       1 UNK        -0.5000 
     67 C          -1.1933  -22.3473  -47.4713 C.2       11 UNK         0.5000 
     68 O          -1.6492  -23.1111  -48.3253 O.2       11 UNK        -0.5000 
     69 N          -1.8133  -21.2361  -47.0492 N.am      12 UNK        -0.5000 
     70 CA         -3.1205  -20.7721  -47.5016 C.3       12 UNK         0.1400 
     71 CB         -3.3841  -19.3595  -46.9591 C.3       12 UNK        -0.1800 
     72 C          -4.2587  -21.7371  -47.1305 C.2       12 UNK         0.5000 
     73 O          -5.0848  -22.0450  -47.9891 O.2       12 UNK        -0.5000 
     74 N          -4.2636  -22.2246  -45.8808 N.am      13 UNK        -0.5000 
     75 CA         -5.2373  -23.1928  -45.3686 C.3       13 UNK         0.1400 
     76 CB         -5.0648  -23.3472  -43.8501 C.3       13 UNK        -0.1800 
     77 C          -5.1489  -24.5634  -46.0636 C.2       13 UNK         0.5000 
     78 O          -6.1835  -25.1659  -46.3521 O.2       13 UNK        -0.5000 
     79 N          -3.9200  -25.0187  -46.3424 N.am      14 UNK        -0.5000 
     80 CA         -3.6418  -26.2453  -47.0917 C.3       14 UNK         0.1400 
     81 CB         -2.1780  -26.6472  -46.8531 C.3       14 UNK        -0.1800 
     82 C          -3.9143  -26.1136  -48.6037 C.2       14 UNK         0.5000 
     83 O          -4.0461  -27.1350  -49.2787 O.2       14 UNK        -0.5000 
     84 N          -3.9568  -24.8691  -49.1052 N.am      15 UNK        -0.5000 
     85 CA         -4.0367  -24.4668  -50.5141 C.3       15 UNK         0.1400 
     86 CB         -5.3831  -24.8888  -51.1370 C.3       15 UNK        -0.1800 
     87 C          -2.8153  -24.9448  -51.3325 C.2       15 UNK         0.5000 
     88 O          -2.9396  -25.2355  -52.5232 O.2       15 UNK        -0.5000 
     89 N          -1.6590  -25.0506  -50.6622 N.am      16 UNK        -0.5000 
     90 CA         -0.5139  -25.8582  -51.0887 C.3       16 UNK         0.1400 
     91 CB          0.4509  -26.0204  -49.9055 C.3       16 UNK        -0.1800 
     92 C           0.2244  -25.3563  -52.3424 C.2       16 UNK         0.5000 
     93 O           0.8613  -26.1632  -53.0213 O.2       16 UNK        -0.5000 
     94 N           0.1244  -24.0549  -52.6435 N.am      17 UNK        -0.5000 
     95 CA          0.6975  -23.4600  -53.8544 C.3       17 UNK         0.1400 
     96 CB          0.8730  -21.9479  -53.6554 C.3       17 UNK        -0.1800 
     97 C          -0.1373  -23.7456  -55.1179 C.2       17 UNK         0.5000 
     98 O           0.4034  -23.6580  -56.2208 O.2       17 UNK        -0.5000 
     99 N          -1.4291  -24.0695  -54.9378 N.am      18 UNK        -0.5000 
    100 CA        -2.4225  -24.3857  -55.9727 C.3       18 UNK         0.1400 
    101 CB        -2.0866  -25.7334  -56.6440 C.3       18 UNK        -0.1800 
    102 C         -2.6595  -23.2514  -56.9974 C.2       18 UNK         0.5000 
    103 O         -3.0729  -23.5186  -58.1278 O.2       18 UNK        -0.5000 
    104 N         -2.3988  -22.0038  -56.5863 N.am      19 UNK        -0.5000 
    105 CA        -2.6293  -20.7943  -57.3736 C.3       19 UNK         0.1400 
    106 CB        -1.7919  -19.6559  -56.7667 C.3       19 UNK        -0.1800 
    107 C         -4.1205  -20.4139  -57.3913 C.2       19 UNK         0.5000 
    108 O         -4.8943  -20.9078  -56.5687 O.2       19 UNK        -0.5000 
    109 N         -4.4942  -19.4863  -58.2832 N.am      20 UNK        -0.5000 
    110 CA        -5.8489  -18.9252  -58.3765 C.3       20 UNK         0.1400 
    111 CB        -5.9241  -17.9783  -59.5836 C.3       20 UNK        -0.1800 
    112 C         -6.2993  -18.2016  -57.0898 C.2       20 UNK         0.5000 
    113 O         -7.4806  -18.2432  -56.7443 O.2       20 UNK        -0.5000 
    114 N         -5.3352  -17.6019  -56.3770 N.am      21 UNK        -0.5000 
    115 CA        -5.5141  -16.9840  -55.0619 C.3       21 UNK         0.1400 
    116 CB        -4.2606  -16.1574  -54.7344 C.3       21 UNK        -0.1800 
    117 C         -5.7925  -17.9989  -53.9330 C.2       21 UNK         0.5000 
    118 O         -6.3240  -17.6064  -52.8937 O.2       21 UNK        -0.5000 
    119 N         -5.4324  -19.2712  -54.1471 N.am      22 UNK        -0.5000 
    120 CA        -5.6377  -20.3789  -53.2017 C.3       22 UNK         0.1400 
    121 C         -7.0320  -21.0604  -53.3292 C.2       22 UNK         0.5000 
    122 N         -7.8890  -20.6678  -54.2652 N.am      22 UNK        -0.7600 
    123 O         -7.3500  -21.9562  -52.5527 O.2       22 UNK        -0.5000 
    124 C124       -4.4941  -21.4276  -53.2733 C.3       23 UNK        -0.0398 
    125 S125       -2.8279  -20.7027  -53.0924 S.3       23 UNK        -0.2404 
    126 C126       -2.6971  -20.6395  -51.2830 C.3       23 UNK        -0.0205 
    127 H127       -4.2676  -11.1051  -48.2427 H         1 UNK         0.0600 
    128 H128       -5.0146  -12.0740  -46.9678 H         1 UNK         0.0600 
    129 H129       -4.4089  -12.8551  -48.4312 H         1 UNK         0.0600 
    130 H130       -2.4690  -13.9116  -48.0911 H         1 UNK         0.3000 
    131 H131       -0.2418  -12.6595  -46.7495 H         1 UNK         0.0600 
    132 H132        1.0081  -14.6822  -47.3951 H         1 UNK         0.0800 
    133 H133        0.1445  -14.0027  -48.7418 H         1 UNK         0.0800 
    134 H134       -0.8668  -15.9465  -50.4963 H         1 UNK         0.0800 
    135 H135        0.7841  -16.0938  -49.9379 H         1 UNK         0.0800 
    136 H136       -2.2966  -17.9979  -50.7295 H         1 UNK         0.1150 
    137 H137       -0.2796  -21.7791  -50.7777 H         1 UNK         0.1150 
    138 H138        1.7903  -18.2624  -49.4704 H         1 UNK         0.1150 
    139 H139        2.6215  -21.1530  -50.8317 H         1 UNK         0.0800 
    140 H140        2.9044  -20.3354  -49.3184 H         1 UNK         0.0800 
    141 H141        1.0901  -20.8122  -47.3954 H         1 UNK         0.0800 
    142 H142        2.1869  -21.9520  -46.6715 H         1 UNK         0.0800 
    143 H143        0.3361  -23.7470  -46.9468 H         1 UNK         0.0600 
    144 H144        0.5677  -21.7577  -44.9182 H         1 UNK         0.3000 
    145 H145       -1.6736  -23.1872  -42.5700 H         1 UNK         0.0600 
    146 H146        0.4075  -23.1348  -41.2209 H         1 UNK         0.0600 
    147 H147        0.4588  -24.4702  -42.3618 H         1 UNK         0.0600 
    148 H148        1.3869  -23.0089  -42.6806 H         1 UNK         0.0600 
    149 H149        0.1008  -20.9079  -42.5751 H         1 UNK         0.3000 
    150 H150       -2.3100  -18.5570  -43.7803 H         1 UNK         0.0600 
    151 H151       -1.1968  -19.0031  -40.9535 H         1 UNK         0.0600 
    152 H152       -2.9004  -18.8595  -41.3663 H         1 UNK         0.0600 
    153 H153       -1.8339  -17.4849  -41.5760 H         1 UNK         0.0600 
    154 H154        0.3327  -18.2286  -42.7585 H         1 UNK         0.3000 
    155 H155        2.2768  -19.3829  -45.3067 H         1 UNK         0.0600 
    156 H156        1.5919  -16.3980  -45.3414 H         1 UNK         0.0600 
    157 H157        1.5608  -17.4760  -46.7326 H         1 UNK         0.0600 
    158 H158        3.0853  -17.1198  -45.9408 H         1 UNK         0.0600 
    159 H159        2.9973  -17.3797  -43.4973 H         1 UNK         0.3000 
    160 H160        2.8474  -18.4670  -40.5263 H         1 UNK         0.0600 
    161 H161        5.2105  -20.0165  -41.7134 H         1 UNK         0.0600 
    162 H162        3.9823  -20.6704  -40.6363 H         1 UNK         0.0600 
    163 H163        5.0931  -19.4471  -40.0480 H         1 UNK         0.0600 
    164 H164        5.2623  -17.5682  -41.8850 H         1 UNK         0.3000 
    165 H165        5.7768  -15.3138  -41.5176 H         1 UNK         0.0600 
    166 H166        5.6441  -14.1880  -43.7644 H         1 UNK         0.0600 
    167 H167        5.2721  -15.8955  -43.9217 H         1 UNK         0.0600 
    168 H168        3.9711  -14.7086  -43.9430 H         1 UNK         0.0600 
    169 H169        3.3415  -13.7764  -41.2083 H         1 UNK         0.3000 
    170 H170        4.2505  -11.6433  -39.5278 H         1 UNK         0.0600 
    171 H171        6.1216  -10.2321  -40.2740 H         1 UNK         0.0600 
    172 H172        5.3792   -9.9923  -41.8489 H         1 UNK         0.0600 
    173 H173        4.6255   -9.3235  -40.4021 H         1 UNK         0.0600 
    174 H174        2.2494  -11.4317  -40.4553 H         1 UNK         0.3000 
    175 H175        0.6814  -10.3651  -42.1195 H         1 UNK         0.0600 
    176 H176        1.2155  -11.7472  -44.7976 H         1 UNK         0.0600 
    177 H177       -0.3136  -11.0064  -44.3254 H         1 UNK         0.0600 
    178 H178        1.1253  -10.0154  -44.5110 H         1 UNK         0.0600 
    179 H179        0.3467  -13.1576  -42.9292 H         1 UNK         0.3000 
    180 H180        0.4254  -14.7231  -40.3067 H         1 UNK         0.0600 
    181 H181       -2.2822  -13.4361  -39.6979 H         1 UNK         0.0600 
    182 H182       -0.9795  -13.7450  -38.5614 H         1 UNK         0.0600 
    183 H183       -1.8368  -15.0927  -39.2882 H         1 UNK         0.0600 
    184 H184       -0.4034  -15.5905  -42.1318 H         1 UNK         0.3000 
    185 H185       -1.6546  -16.2258  -43.7209 H         1 UNK         0.0600 
    186 H186       -3.9903  -16.3996  -42.8161 H         1 UNK         0.0600 
    187 H187       -4.4866  -15.0694  -43.8552 H         1 UNK         0.0600 
    188 H188       -3.9383  -16.5897  -44.5618 H         1 UNK         0.0600 
    189 H189       -2.8330  -14.6121  -45.6656 H         1 UNK         0.3000 
    190 H190       -1.3291  -20.6324  -46.3884 H         1 UNK         0.3000 
    191 H191       -3.0867  -20.7103  -48.5872 H         1 UNK         0.0600 
    192 H192       -2.6107  -18.6637  -47.2862 H         1 UNK         0.0600 
    193 H193       -4.3401  -18.9753  -47.3165 H         1 UNK         0.0600 
    194 H194       -3.4085  -19.3434  -45.8696 H         1 UNK         0.0600 
    195 H195       -3.5774  -21.8812  -45.2145 H         1 UNK         0.3000 
    196 H196       -6.2353  -22.7918  -45.5566 H         1 UNK         0.0600 
    197 H197       -5.7776  -24.0667  -43.4454 H         1 UNK         0.0600 
    198 H198       -5.2334  -22.4005  -43.3367 H         1 UNK         0.0600 
    199 H199       -4.0635  -23.6943  -43.5926 H         1 UNK         0.0600 
    200 H200       -3.1138  -24.4972  -46.0110 H         1 UNK         0.3000 
    201 H201       -4.2828  -27.0419  -46.7084 H         1 UNK         0.0600 
    202 H202       -1.9266  -27.5617  -47.3918 H         1 UNK         0.0600 
    203 H203       -1.9877  -26.8305  -45.7955 H         1 UNK         0.0600 
    204 H204       -1.4907  -25.8681  -47.1852 H         1 UNK         0.0600 
    205 H205       -3.8088  -24.1087  -48.4543 H         1 UNK         0.3000 
    206 H206       -4.0111  -23.3799  -50.5086 H         1 UNK         0.0600 
    207 H207       -6.2213  -24.5285  -50.5404 H         1 UNK         0.0600 
    208 H208       -5.5000  -24.4745  -52.1389 H         1 UNK         0.0600 
    209 H209       -5.4711  -25.9720  -51.2222 H         1 UNK         0.0600 
    210 H210       -1.6319  -24.6887  -49.7149 H         1 UNK         0.3000 
    211 H211       -0.8973  -26.8505  -51.3361 H         1 UNK         0.0600 
    212 H212        0.7861  -25.0563  -49.5280 H         1 UNK         0.0600 
    213 H213        1.3367  -26.5891  -50.1914 H         1 UNK         0.0600 
    214 H214       -0.0230  -26.5550  -49.0827 H         1 UNK         0.0600 
    215 H215       -0.4218  -23.4592  -52.0407 H         1 UNK         0.3000 
    216 H216        1.6892  -23.8873  -54.0182 H         1 UNK         0.0600 
    217 H217        1.3089  -21.4841  -54.5411 H         1 UNK         0.0600 
    218 H218        1.5404  -21.7374  -52.8217 H         1 UNK         0.0600 
    219 H219       -0.0755  -21.4505  -53.4621 H         1 UNK         0.0600 
    220 H220       -1.7651  -24.1659  -53.9867 H         1 UNK         0.3000 
    221 H221       -3.3696  -24.5105  -55.4459 H         1 UNK         0.0600 
    222 H222       -1.1773  -25.6714  -57.2425 H         1 UNK         0.0600 
    223 H223       -1.9462  -26.5181  -55.9004 H         1 UNK         0.0600 
    224 H224       -2.8923  -26.0558  -57.3044 H         1 UNK         0.0600 
    225 H225       -2.1002  -21.8694  -55.6319 H         1 UNK         0.3000 
    226 H226       -2.3002  -20.9695  -58.3999 H         1 UNK         0.0600 
    227 H227       -0.7371  -19.9273  -56.7150 H         1 UNK         0.0600 
    228 H228       -1.8612  -18.7494  -57.3688 H         1 UNK         0.0600 
    229 H229       -2.1212  -19.4045  -55.7578 H         1 UNK         0.0600 
    230 H230       -3.8091  -19.1183  -58.9278 H         1 UNK         0.3000 
    231 H231       -6.5411  -19.7526  -58.5464 H         1 UNK         0.0600 
    232 H232       -5.2306  -17.1424  -59.4841 H         1 UNK         0.0600 
    233 H233       -6.9267  -17.5621  -59.6913 H         1 UNK         0.0600 
    234 H234       -5.6900  -18.5014  -60.5109 H         1 UNK         0.0600 
    235 H235       -4.3946  -17.6188  -56.7417 H         1 UNK         0.3000 
    236 H236       -6.3697  -16.3076  -55.1156 H         1 UNK         0.0600 
    237 H237       -4.0852  -15.3893  -55.4879 H         1 UNK         0.0600 
    238 H238       -4.3661  -15.6505  -53.7743 H         1 UNK         0.0600 
    239 H239       -3.3696  -16.7844  -54.6777 H         1 UNK         0.0600 
    240 H240       -5.0547  -19.5399  -55.0473 H         1 UNK         0.3000 
    241 H241       -5.6183  -19.9644  -52.1925 H         1 UNK         0.0600 
    242 H242       -8.7894  -21.1156  -54.3313 H         1 UNK         0.3800 
    243 H243       -7.6444  -19.9340  -54.9137 H         1 UNK         0.3800 
    244 H244       -4.6268  -22.1877  -52.5039 H         1 UNK         0.0800 
    245 H245       -4.5267  -21.9622  -54.2230 H         1 UNK         0.0800 
    246 H246       -3.5640  -20.1176  -50.8756 H         1 UNK         0.0800 
    247 H247       -2.7244  -21.6511  -50.8835 H         1 UNK         0.0800 
@<TRIPOS>BOND
     1    1    2 1    
     2    1  127 1    
     3    1  128 1    
     4    1  129 1    
     5    2    3 2    
     6    2    4 am   BACKBONE|DICT|INTERRES
     7    4    5 1    
     8    4  130 1    
     9    5    6 1    
    10    5   65 1    
    11    5  131 1    
    12    6    7 1    
    13    6  132 1    
    14    6  133 1    
    15    7    8 1    
    16    8    9 1    
    17    8  134 1    
    18    8  135 1    
    19    9   10 ar   
    20    9   14 ar   
    21   10   11 ar   
    22   10  136 1    
    23   11   12 ar   
    24   11  126 1    
    25   12   13 ar   
    26   12  137 1    
    27   13   14 ar   
    28   13   15 1    
    29   14  138 1    
    30   15   16 1    
    31   15  139 1    
    32   15  140 1    
    33   16   17 1    
    34   17   18 1    
    35   17  141 1    
    36   17  142 1    
    37   18   19 1    
    38   18   67 1    
    39   18  143 1    
    40   19   20 am   BACKBONE|DICT|INTERRES
    41   19  144 1    
    42   20   21 2    
    43   20   22 1    
    44   22   23 1    
    45   22   24 1    
    46   22  145 1    
    47   23  146 1    
    48   23  147 1    
    49   23  148 1    
    50   24   25 am   BACKBONE|DICT|INTERRES
    51   24  149 1    
    52   25   26 2    
    53   25   27 1    
    54   27   28 1    
    55   27   29 1    
    56   27  150 1    
    57   28  151 1    
    58   28  152 1    
    59   28  153 1    
    60   29   30 am   BACKBONE|DICT|INTERRES
    61   29  154 1    
    62   30   31 2    
    63   30   32 1    
    64   32   33 1    
    65   32   34 1    
    66   32  155 1    
    67   33  156 1    
    68   33  157 1    
    69   33  158 1    
    70   34   35 am   BACKBONE|DICT|INTERRES
    71   34  159 1    
    72   35   36 2    
    73   35   37 1    
    74   37   38 1    
    75   37   39 1    
    76   37  160 1    
    77   38  161 1    
    78   38  162 1    
    79   38  163 1    
    80   39   40 am   BACKBONE|DICT|INTERRES
    81   39  164 1    
    82   40   41 2    
    83   40   42 1    
    84   42   43 1    
    85   42   44 1    
    86   42  165 1    
    87   43  166 1    
    88   43  167 1    
    89   43  168 1    
    90   44   45 am   BACKBONE|DICT|INTERRES
    91   44  169 1    
    92   45   46 2    
    93   45   47 1    
    94   47   48 1    
    95   47   49 1    
    96   47  170 1    
    97   48  171 1    
    98   48  172 1    
    99   48  173 1    
   100   49   50 am   BACKBONE|DICT|INTERRES
   101   49  174 1    
   102   50   51 2    
   103   50   52 1    
   104   52   53 1    
   105   52   54 1    
   106   52  175 1    
   107   53  176 1    
   108   53  177 1    
   109   53  178 1    
   110   54   55 am   BACKBONE|DICT|INTERRES
   111   54  179 1    
   112   55   56 2    
   113   55   57 1    
   114   57   58 1    
   115   57   59 1    
   116   57  180 1    
   117   58  181 1    
   118   58  182 1    
   119   58  183 1    
   120   59   60 am   BACKBONE|DICT|INTERRES
   121   59  184 1    
   122   60   61 2    
   123   60   62 1    
   124   62   63 1    
   125   62   64 1    
   126   62  185 1    
   127   63  186 1    
   128   63  187 1    
   129   63  188 1    
   130   64   65 am   BACKBONE|DICT|INTERRES
   131   64  189 1    
   132   65   66 2    
   133   67   68 2    
   134   67   69 am   BACKBONE|DICT|INTERRES
   135   69   70 1    
   136   69  190 1    
   137   70   71 1    
   138   70   72 1    
   139   70  191 1    
   140   71  192 1    
   141   71  193 1    
   142   71  194 1    
   143   72   73 2    
   144   72   74 am   BACKBONE|DICT|INTERRES
   145   74   75 1    
   146   74  195 1    
   147   75   76 1    
   148   75   77 1    
   149   75  196 1    
   150   76  197 1    
   151   76  198 1    
   152   76  199 1    
   153   77   78 2    
   154   77   79 am   BACKBONE|DICT|INTERRES
   155   79   80 1    
   156   79  200 1    
   157   80   81 1    
   158   80   82 1    
   159   80  201 1    
   160   81  202 1    
   161   81  203 1    
   162   81  204 1    
   163   82   83 2    
   164   82   84 am   BACKBONE|DICT|INTERRES
   165   84   85 1    
   166   84  205 1    
   167   85   86 1    
   168   85   87 1    
   169   85  206 1    
   170   86  207 1    
   171   86  208 1    
   172   86  209 1    
   173   87   88 2    
   174   87   89 am   BACKBONE|DICT|INTERRES
   175   89   90 1    
   176   89  210 1    
   177   90   91 1    
   178   90   92 1    
   179   90  211 1    
   180   91  212 1    
   181   91  213 1    
   182   91  214 1    
   183   92   93 2    
   184   92   94 am   BACKBONE|DICT|INTERRES
   185   94   95 1    
   186   94  215 1    
   187   95   96 1    
   188   95   97 1    
   189   95  216 1    
   190   96  217 1    
   191   96  218 1    
   192   96  219 1    
   193   97   98 2    
   194   97   99 am   BACKBONE|DICT|INTERRES
   195   99  100 1    
   196   99  220 1    
   197  100  101 1    
   198  100  102 1    
   199  100  221 1    
   200  101  222 1    
   201  101  223 1    
   202  101  224 1    
   203  102  103 2    
   204  102  104 am   BACKBONE|DICT|INTERRES
   205  104  105 1    
   206  104  225 1    
   207  105  106 1    
   208  105  107 1    
   209  105  226 1    
   210  106  227 1    
   211  106  228 1    
   212  106  229 1    
   213  107  108 2    
   214  107  109 am   BACKBONE|DICT|INTERRES
   215  109  110 1    
   216  109  230 1    
   217  110  111 1    
   218  110  112 1    
   219  110  231 1    
   220  111  232 1    
   221  111  233 1    
   222  111  234 1    
   223  112  113 2    
   224  112  114 am   BACKBONE|DICT|INTERRES
   225  114  115 1    
   226  114  235 1    
   227  115  116 1    
   228  115  117 1    
   229  115  236 1    
   230  116  237 1    
   231  116  238 1    
   232  116  239 1    
   233  117  118 2    
   234  117  119 am   BACKBONE|DICT|INTERRES
   235  119  120 1    
   236  119  240 1    
   237  120  121 1    
   238  120  124 1    
   239  120  241 1    
   240  121  122 am   BACKBONE|DICT|INTERRES
   241  121  123 2    
   242  122  242 1    
   243  122  243 1    
   244  124  125 1    
   245  124  244 1    
   246  124  245 1    
   247  125  126 1    
   248  126  246 1    
   249  126  247 1    
@<TRIPOS>SUBSTRUCTURE
     1 UNK         1 GROUP             0       ****    0 ROOT    
