@<TRIPOS>MOLECULE
3R540
247   249    1
SMALL
USER_CHARGES


@<TRIPOS>ATOM
      1 CA          6.0021  -12.4329  -46.3417 C.3       0 UNK        -0.1800 
      2 C           4.9175  -13.4682  -46.5977 C.2       0 UNK         0.5000 
      3 O           3.8055  -13.3285  -46.0885 O.2       0 UNK        -0.5000 
      4 N           5.2234  -14.4957  -47.4011 N.am      1 UNK        -0.5000 
      5 CA          4.3119  -15.5909  -47.7610 C.3       1 UNK         0.1400 
      6 C6          5.0290  -16.7064  -48.5641 C.3       23 UNK        -0.0398 
      7 S7          5.7573  -16.1318  -50.1447 S.3       23 UNK        -0.2404 
      8 C8          5.3400  -17.4772  -51.3030 C.3       23 UNK        -0.0205 
      9 C9          3.8425  -17.7310  -51.4211 C.ar      23 UNK        -0.0193 
     10 C10         2.9966  -16.7689  -51.9833 C.ar      23 UNK        -0.1150 
     11 C11         1.6214  -17.0054  -52.0926 C.ar      23 UNK        -0.0193 
     12 C12         1.1024  -18.2257  -51.6472 C.ar      23 UNK        -0.1150 
     13 C13         1.9336  -19.1891  -51.0706 C.ar      23 UNK        -0.0193 
     14 C14         3.3043  -18.9401  -50.9710 C.ar      23 UNK        -0.1150 
     15 C15         1.3472  -20.4780  -50.5164 C.3       23 UNK        -0.0205 
     16 S16         1.2206  -20.3663  -48.7061 S.3       23 UNK        -0.2404 
     17 C17        -0.2423  -21.3877  -48.3048 C.3       23 UNK        -0.0398 
     18 CA          0.0763  -22.7498  -47.6279 C.3       11 UNK         0.1400 
     19 N           1.2068  -22.6654  -46.6996 N.am      11 UNK        -0.5000 
     20 C           1.7133  -23.6564  -45.9544 C.2       10 UNK         0.5000 
     21 O           1.3321  -24.8232  -46.0237 O.2       10 UNK        -0.5000 
     22 CA          2.7842  -23.2720  -44.9131 C.3       10 UNK         0.1400 
     23 CB          4.1789  -23.6864  -45.4042 C.3       10 UNK        -0.1800 
     24 N           2.8036  -21.8463  -44.5623 N.am      10 UNK        -0.5000 
     25 C           1.7779  -21.1533  -44.0471 C.2       9 UNK         0.5000 
     26 O           0.6692  -21.6433  -43.8129 O.2       9 UNK        -0.5000 
     27 CA          2.0260  -19.6479  -43.8478 C.3       9 UNK         0.1400 
     28 CB          1.9612  -18.9162  -45.1986 C.3       9 UNK        -0.1800 
     29 N           1.0555  -19.0403  -42.9424 N.am      9 UNK        -0.5000 
     30 C           0.9800  -19.2447  -41.6241 C.2       8 UNK         0.5000 
     31 O           1.7886  -19.9298  -40.9957 O.2       8 UNK        -0.5000 
     32 CA         -0.1861  -18.5730  -40.8676 C.3       8 UNK         0.1400 
     33 CB          0.1702  -17.1223  -40.4886 C.3       8 UNK        -0.1800 
     34 N          -1.5015  -18.6400  -41.5270 N.am      8 UNK        -0.5000 
     35 C          -1.8996  -18.0732  -42.6746 C.2       7 UNK         0.5000 
     36 O          -1.1586  -17.4291  -43.4174 O.2       7 UNK        -0.5000 
     37 CA         -3.3806  -18.2446  -43.0375 C.3       7 UNK         0.1400 
     38 CB         -4.2555  -17.2710  -42.2312 C.3       7 UNK        -0.1800 
     39 N          -3.5710  -17.9775  -44.4602 N.am      7 UNK        -0.5000 
     40 C          -4.2801  -18.7400  -45.2993 C.2       6 UNK         0.5000 
     41 O          -4.8865  -19.7505  -44.9428 O.2       6 UNK        -0.5000 
     42 CA         -4.3553  -18.3153  -46.7808 C.3       6 UNK         0.1400 
     43 CB         -5.7948  -17.9415  -47.1714 C.3       6 UNK        -0.1800 
     44 N          -3.4855  -17.1995  -47.1480 N.am      6 UNK        -0.5000 
     45 C          -2.1564  -17.2565  -47.2900 C.2       5 UNK         0.5000 
     46 O          -1.4846  -18.2501  -47.0128 O.2       5 UNK        -0.5000 
     47 CA         -1.4601  -15.9971  -47.8477 C.3       5 UNK         0.1400 
     48 CB         -2.4249  -14.9326  -48.4197 C.3       5 UNK        -0.1800 
     49 N          -0.5606  -15.3793  -46.8751 N.am      5 UNK        -0.5000 
     50 C          -0.8700  -14.9181  -45.6544 C.2       4 UNK         0.5000 
     51 O          -1.9945  -14.9819  -45.1540 O.2       4 UNK        -0.5000 
     52 CA          0.2624  -14.1956  -44.8974 C.3       4 UNK         0.1400 
     53 CB          1.3492  -15.1708  -44.4216 C.3       4 UNK        -0.1800 
     54 N           0.8932  -13.1644  -45.7193 N.am      4 UNK        -0.5000 
     55 C           0.3025  -12.0343  -46.1316 C.2       3 UNK         0.5000 
     56 O          -0.8254  -11.6801  -45.7875 O.2       3 UNK        -0.5000 
     57 CA          1.1065  -11.1637  -47.1118 C.3       3 UNK         0.1400 
     58 CB          2.1164  -10.2765  -46.3666 C.3       3 UNK        -0.1800 
     59 N           1.8064  -11.9909  -48.0948 N.am      3 UNK        -0.5000 
     60 C           1.2280  -12.5031  -49.1903 C.2       2 UNK         0.5000 
     61 O           0.0740  -12.2477  -49.5330 O.2       2 UNK        -0.5000 
     62 CA          2.0747  -13.4517  -50.0588 C.3       2 UNK         0.1400 
     63 CB          2.6433  -12.7090  -51.2771 C.3       2 UNK        -0.1800 
     64 N           3.1727  -14.0837  -49.3306 N.am      2 UNK        -0.5000 
     65 C           3.0287  -15.0971  -48.4649 C.2       1 UNK         0.5000 
     66 O           1.9446  -15.5960  -48.1687 O.2       1 UNK        -0.5000 
     67 C          -1.1971  -23.2882  -46.9366 C.2       11 UNK         0.5000 
     68 O          -1.9359  -24.0676  -47.5381 O.2       11 UNK        -0.5000 
     69 N          -1.4154  -22.8806  -45.6764 N.am      12 UNK        -0.5000 
     70 CA         -2.5344  -23.3232  -44.8473 C.3       12 UNK         0.1400 
     71 CB         -2.6822  -22.3811  -43.6430 C.3       12 UNK        -0.1800 
     72 C          -2.3715  -24.7825  -44.3906 C.2       12 UNK         0.5000 
     73 O          -3.3406  -25.5400  -44.4284 O.2       12 UNK        -0.5000 
     74 N          -1.1425  -25.1618  -44.0115 N.am      13 UNK        -0.5000 
     75 CA         -0.7761  -26.5234  -43.6100 C.3       13 UNK         0.1400 
     76 CB          0.6217  -26.5103  -42.9723 C.3       13 UNK        -0.1800 
     77 C          -0.8362  -27.5211  -44.7824 C.2       13 UNK         0.5000 
     78 O          -1.2573  -28.6626  -44.5944 O.2       13 UNK        -0.5000 
     79 N          -0.4534  -27.0543  -45.9780 N.am      14 UNK        -0.5000 
     80 CA         -0.5449  -27.7792  -47.2462 C.3       14 UNK         0.1400 
     81 CB          0.3510  -27.0706  -48.2754 C.3       14 UNK        -0.1800 
     82 C          -1.9844  -27.8997  -47.7898 C.2       14 UNK         0.5000 
     83 O          -2.1999  -28.6513  -48.7413 O.2       14 UNK        -0.5000 
     84 N          -2.9286  -27.1478  -47.2016 N.am      15 UNK        -0.5000 
     85 CA         -4.3353  -27.0076  -47.5942 C.3       15 UNK         0.1400 
     86 CB         -5.0950  -28.3416  -47.4409 C.3       15 UNK        -0.1800 
     87 C          -4.5084  -26.3647  -48.9877 C.2       15 UNK         0.5000 
     88 O          -5.4805  -26.6492  -49.6890 O.2       15 UNK        -0.5000 
     89 N          -3.5680  -25.4837  -49.3522 N.am      16 UNK        -0.5000 
     90 CA         -3.5621  -24.7121  -50.5941 C.3       16 UNK         0.1400 
     91 CB         -2.1042  -24.4368  -50.9968 C.3       16 UNK        -0.1800 
     92 C          -4.3377  -23.3890  -50.4624 C.2       16 UNK         0.5000 
     93 O          -4.5306  -22.7102  -51.4694 O.2       16 UNK        -0.5000 
     94 N          -4.7649  -23.0427  -49.2383 N.am      17 UNK        -0.5000 
     95 CA         -5.4339  -21.8018  -48.8278 C.3       17 UNK         0.1400 
     96 CB         -5.8590  -21.9491  -47.3599 C.3       17 UNK        -0.1800 
     97 C          -6.6349  -21.3559  -49.6864 C.2       17 UNK         0.5000 
     98 O          -6.8918  -20.1563  -49.7807 O.2       17 UNK        -0.5000 
     99 N          -7.3350  -22.3151  -50.3070 N.am      18 UNK        -0.5000 
    100 CA        -8.4370  -22.0690  -51.2393 C.3       18 UNK         0.1400 
    101 CB        -9.1553  -23.3969  -51.5233 C.3       18 UNK        -0.1800 
    102 C         -7.9885  -21.4060  -52.5587 C.2       18 UNK         0.5000 
    103 O         -8.7679  -20.6589  -53.1515 O.2       18 UNK        -0.5000 
    104 N         -6.7520  -21.6874  -52.9901 N.am      19 UNK        -0.5000 
    105 CA        -6.1230  -21.1053  -54.1752 C.3       19 UNK         0.1400 
    106 CB        -5.3959  -22.2138  -54.9522 C.3       19 UNK        -0.1800 
    107 C         -5.1381  -19.9906  -53.7865 C.2       19 UNK         0.5000 
    108 O         -5.0648  -18.9731  -54.4771 O.2       19 UNK        -0.5000 
    109 N         -4.4115  -20.1855  -52.6778 N.am      20 UNK        -0.5000 
    110 CA        -3.4013  -19.2857  -52.1193 C.3       20 UNK         0.1400 
    111 CB        -2.4861  -20.0950  -51.1832 C.3       20 UNK        -0.1800 
    112 C         -3.9995  -18.0412  -51.4290 C.2       20 UNK         0.5000 
    113 O         -3.6378  -17.7290  -50.2958 O.2       20 UNK        -0.5000 
    114 N         -4.8946  -17.3385  -52.1319 N.am      21 UNK        -0.5000 
    115 CA        -5.4277  -16.0354  -51.7338 C.3       21 UNK         0.1400 
    116 CB        -6.7571  -15.7969  -52.4651 C.3       21 UNK        -0.1800 
    117 C         -4.4319  -14.8945  -52.0254 C.2       21 UNK         0.5000 
    118 O         -4.4813  -13.8629  -51.3559 O.2       21 UNK        -0.5000 
    119 N         -3.5502  -15.1111  -53.0132 N.am      22 UNK        -0.5000 
    120 CA        -2.4421  -14.2293  -53.4266 C.3       22 UNK         0.1400 
    121 C         -2.8754  -12.8799  -54.0793 C.2       22 UNK         0.5000 
    122 N         -4.1255  -12.7155  -54.4941 N.am      22 UNK        -0.7600 
    123 O         -2.0602  -11.9771  -54.2490 O.2       22 UNK        -0.5000 
    124 C124       -1.3659  -14.0346  -52.3206 C.3       23 UNK        -0.0398 
    125 S125       -0.7428  -15.6065  -51.6317 S.3       23 UNK        -0.2404 
    126 C126        0.7023  -15.9457  -52.6925 C.3       23 UNK        -0.0205 
    127 H127        6.2269  -12.3830  -45.2764 H         1 UNK         0.0600 
    128 H128        5.6638  -11.4488  -46.6662 H         1 UNK         0.0600 
    129 H129        6.9232  -12.6701  -46.8744 H         1 UNK         0.0600 
    130 H130        6.1468  -14.5494  -47.8078 H         1 UNK         0.3000 
    131 H131        3.9871  -16.0385  -46.8191 H         1 UNK         0.0600 
    132 H132        5.8348  -17.1266  -47.9610 H         1 UNK         0.0800 
    133 H133        4.3413  -17.5341  -48.7399 H         1 UNK         0.0800 
    134 H134        5.8628  -18.3827  -50.9909 H         1 UNK         0.0800 
    135 H135        5.7335  -17.2250  -52.2886 H         1 UNK         0.0800 
    136 H136        3.4135  -15.8328  -52.3266 H         1 UNK         0.1150 
    137 H137        0.0419  -18.4107  -51.7277 H         1 UNK         0.1150 
    138 H138        3.9474  -19.6840  -50.5220 H         1 UNK         0.1150 
    139 H139        0.3714  -20.6683  -50.9612 H         1 UNK         0.0800 
    140 H140        1.9795  -21.3257  -50.7842 H         1 UNK         0.0800 
    141 H141       -0.8434  -21.5489  -49.2000 H         1 UNK         0.0800 
    142 H142       -0.8574  -20.7685  -47.6490 H         1 UNK         0.0800 
    143 H143        0.3589  -23.4617  -48.4057 H         1 UNK         0.0600 
    144 H144        1.6037  -21.7437  -46.5921 H         1 UNK         0.3000 
    145 H145        2.5606  -23.8310  -44.0023 H         1 UNK         0.0600 
    146 H146        4.9361  -23.5087  -44.6404 H         1 UNK         0.0600 
    147 H147        4.2083  -24.7497  -45.6465 H         1 UNK         0.0600 
    148 H148        4.4686  -23.1373  -46.3010 H         1 UNK         0.0600 
    149 H149        3.6719  -21.3623  -44.7403 H         1 UNK         0.3000 
    150 H150        3.0231  -19.5172  -43.4224 H         1 UNK         0.0600 
    151 H151        0.9592  -18.9509  -45.6299 H         1 UNK         0.0600 
    152 H152        2.6469  -19.3519  -45.9262 H         1 UNK         0.0600 
    153 H153        2.2419  -17.8709  -45.0882 H         1 UNK         0.0600 
    154 H154        0.3276  -18.4662  -43.3616 H         1 UNK         0.3000 
    155 H155       -0.3036  -19.1284  -39.9357 H         1 UNK         0.0600 
    156 H156        0.3133  -16.4932  -41.3674 H         1 UNK         0.0600 
    157 H157        1.0946  -17.0872  -39.9109 H         1 UNK         0.0600 
    158 H158       -0.6118  -16.6713  -39.8777 H         1 UNK         0.0600 
    159 H159       -2.1896  -19.1738  -41.0145 H         1 UNK         0.3000 
    160 H160       -3.6674  -19.2699  -42.7956 H         1 UNK         0.0600 
    161 H161       -3.9870  -16.2327  -42.4312 H         1 UNK         0.0600 
    162 H162       -4.1488  -17.4384  -41.1588 H         1 UNK         0.0600 
    163 H163       -5.3105  -17.3966  -42.4756 H         1 UNK         0.0600 
    164 H164       -3.0281  -17.2049  -44.8296 H         1 UNK         0.3000 
    165 H165       -4.0563  -19.1814  -47.3740 H         1 UNK         0.0600 
    166 H166       -5.8752  -17.7605  -48.2440 H         1 UNK         0.0600 
    167 H167       -6.4954  -18.7404  -46.9292 H         1 UNK         0.0600 
    168 H168       -6.1317  -17.0443  -46.6509 H         1 UNK         0.0600 
    169 H169       -3.9468  -16.3352  -47.3886 H         1 UNK         0.3000 
    170 H170       -0.8293  -16.3432  -48.6676 H         1 UNK         0.0600 
    171 H171       -3.0622  -15.3540  -49.1971 H         1 UNK         0.0600 
    172 H172       -3.0693  -14.4987  -47.6547 H         1 UNK         0.0600 
    173 H173       -1.8686  -14.1161  -48.8796 H         1 UNK         0.0600 
    174 H174        0.4066  -15.3230  -47.1863 H         1 UNK         0.3000 
    175 H175       -0.1739  -13.7163  -44.0186 H         1 UNK         0.0600 
    176 H176        0.9269  -15.9801  -43.8281 H         1 UNK         0.0600 
    177 H177        1.8788  -15.6146  -45.2641 H         1 UNK         0.0600 
    178 H178        2.0861  -14.6631  -43.7991 H         1 UNK         0.0600 
    179 H179        1.8520  -13.3388  -46.0047 H         1 UNK         0.3000 
    180 H180        0.4061  -10.5063  -47.6318 H         1 UNK         0.0600 
    181 H181        2.8396  -10.8648  -45.8019 H         1 UNK         0.0600 
    182 H182        1.6072   -9.6204  -45.6597 H         1 UNK         0.0600 
    183 H183        2.6689   -9.6414  -47.0592 H         1 UNK         0.0600 
    184 H184        2.7431  -12.2848  -47.8565 H         1 UNK         0.3000 
    185 H185        1.4138  -14.2397  -50.4164 H         1 UNK         0.0600 
    186 H186        1.8432  -12.2657  -51.8713 H         1 UNK         0.0600 
    187 H187        3.3168  -11.9045  -50.9793 H         1 UNK         0.0600 
    188 H188        3.1952  -13.3847  -51.9303 H         1 UNK         0.0600 
    189 H189        4.1033  -13.7356  -49.5103 H         1 UNK         0.3000 
    190 H190       -0.7326  -22.2803  -45.2257 H         1 UNK         0.3000 
    191 H191       -3.4474  -23.2600  -45.4414 H         1 UNK         0.0600 
    192 H192       -2.7999  -21.3473  -43.9667 H         1 UNK         0.0600 
    193 H193       -3.5610  -22.6398  -43.0514 H         1 UNK         0.0600 
    194 H194       -1.8155  -22.4264  -42.9827 H         1 UNK         0.0600 
    195 H195       -0.3980  -24.4809  -44.0437 H         1 UNK         0.3000 
    196 H196       -1.4911  -26.8556  -42.8542 H         1 UNK         0.0600 
    197 H197        0.8962  -27.5048  -42.6183 H         1 UNK         0.0600 
    198 H198        0.6584  -25.8388  -42.1144 H         1 UNK         0.0600 
    199 H199        1.3878  -26.1934  -43.6802 H         1 UNK         0.0600 
    200 H200       -0.0331  -26.1292  -46.0199 H         1 UNK         0.3000 
    201 H201       -0.1641  -28.7911  -47.0947 H         1 UNK         0.0600 
    202 H202        0.3527  -27.6014  -49.2282 H         1 UNK         0.0600 
    203 H203        1.3840  -27.0193  -47.9308 H         1 UNK         0.0600 
    204 H204        0.0115  -26.0521  -48.4675 H         1 UNK         0.0600 
    205 H205       -2.6404  -26.5666  -46.4258 H         1 UNK         0.3000 
    206 H206       -4.7718  -26.3025  -46.8854 H         1 UNK         0.0600 
    207 H207       -4.9476  -28.7663  -46.4478 H         1 UNK         0.0600 
    208 H208       -6.1676  -28.1975  -47.5749 H         1 UNK         0.0600 
    209 H209       -4.7724  -29.0810  -48.1742 H         1 UNK         0.0600 
    210 H210       -2.8372  -25.2493  -48.6841 H         1 UNK         0.3000 
    211 H211       -4.0331  -25.2942  -51.3887 H         1 UNK         0.0600 
    212 H212       -1.5897  -23.8217  -50.2584 H         1 UNK         0.0600 
    213 H213       -2.0541  -23.9118  -51.9517 H         1 UNK         0.0600 
    214 H214       -1.5441  -25.3656  -51.1071 H         1 UNK         0.0600 
    215 H215       -4.5295  -23.6773  -48.4900 H         1 UNK         0.3000 
    216 H216       -4.6961  -21.0015  -48.8829 H         1 UNK         0.0600 
    217 H217       -6.4194  -21.0792  -47.0177 H         1 UNK         0.0600 
    218 H218       -4.9915  -22.0448  -46.7082 H         1 UNK         0.0600 
    219 H219       -6.4936  -22.8232  -47.2101 H         1 UNK         0.0600 
    220 H220       -7.0565  -23.2759  -50.1726 H         1 UNK         0.3000 
    221 H221       -9.1458  -21.3938  -50.7553 H         1 UNK         0.0600 
    222 H222       -8.4882  -24.1239  -51.9883 H         1 UNK         0.0600 
    223 H223       -9.5471  -23.8379  -50.6065 H         1 UNK         0.0600 
    224 H224       -9.9998  -23.2478  -52.1975 H         1 UNK         0.0600 
    225 H225       -6.1565  -22.2718  -52.4122 H         1 UNK         0.3000 
    226 H226       -6.8780  -20.6710  -54.8339 H         1 UNK         0.0600 
    227 H227       -4.9157  -21.8138  -55.8462 H         1 UNK         0.0600 
    228 H228       -4.6227  -22.6911  -54.3485 H         1 UNK         0.0600 
    229 H229       -6.0922  -22.9877  -55.2755 H         1 UNK         0.0600 
    230 H230       -4.5266  -21.0685  -52.1863 H         1 UNK         0.3000 
    231 H231       -2.7833  -18.9166  -52.9402 H         1 UNK         0.0600 
    232 H232       -3.0436  -20.5337  -50.3583 H         1 UNK         0.0600 
    233 H233       -1.7122  -19.4659  -50.7440 H         1 UNK         0.0600 
    234 H234       -1.9903  -20.9043  -51.7192 H         1 UNK         0.0600 
    235 H235       -5.1481  -17.6878  -53.0514 H         1 UNK         0.3000 
    236 H236       -5.6235  -16.0438  -50.6592 H         1 UNK         0.0600 
    237 H237       -7.4844  -16.5713  -52.2196 H         1 UNK         0.0600 
    238 H238       -7.1935  -14.8389  -52.1797 H         1 UNK         0.0600 
    239 H239       -6.6268  -15.7909  -53.5480 H         1 UNK         0.0600 
    240 H240       -3.6092  -15.9889  -53.5067 H         1 UNK         0.3000 
    241 H241       -1.9529  -14.7652  -54.2404 H         1 UNK         0.0600 
    242 H242       -4.3953  -11.8454  -54.9259 H         1 UNK         0.3800 
    243 H243       -4.8064  -13.4472  -54.3705 H         1 UNK         0.3800 
    244 H244       -0.5196  -13.4589  -52.6976 H         1 UNK         0.0800 
    245 H245       -1.7759  -13.4491  -51.4963 H         1 UNK         0.0800 
    246 H246        0.3583  -16.2823  -53.6711 H         1 UNK         0.0800 
    247 H247        1.2545  -15.0196  -52.8561 H         1 UNK         0.0800 
@<TRIPOS>BOND
     1    1    2 1    
     2    1  127 1    
     3    1  128 1    
     4    1  129 1    
     5    2    3 2    
     6    2    4 am   BACKBONE|DICT|INTERRES
     7    4    5 1    
     8    4  130 1    
     9    5    6 1    
    10    5   65 1    
    11    5  131 1    
    12    6    7 1    
    13    6  132 1    
    14    6  133 1    
    15    7    8 1    
    16    8    9 1    
    17    8  134 1    
    18    8  135 1    
    19    9   10 ar   
    20    9   14 ar   
    21   10   11 ar   
    22   10  136 1    
    23   11   12 ar   
    24   11  126 1    
    25   12   13 ar   
    26   12  137 1    
    27   13   14 ar   
    28   13   15 1    
    29   14  138 1    
    30   15   16 1    
    31   15  139 1    
    32   15  140 1    
    33   16   17 1    
    34   17   18 1    
    35   17  141 1    
    36   17  142 1    
    37   18   19 1    
    38   18   67 1    
    39   18  143 1    
    40   19   20 am   BACKBONE|DICT|INTERRES
    41   19  144 1    
    42   20   21 2    
    43   20   22 1    
    44   22   23 1    
    45   22   24 1    
    46   22  145 1    
    47   23  146 1    
    48   23  147 1    
    49   23  148 1    
    50   24   25 am   BACKBONE|DICT|INTERRES
    51   24  149 1    
    52   25   26 2    
    53   25   27 1    
    54   27   28 1    
    55   27   29 1    
    56   27  150 1    
    57   28  151 1    
    58   28  152 1    
    59   28  153 1    
    60   29   30 am   BACKBONE|DICT|INTERRES
    61   29  154 1    
    62   30   31 2    
    63   30   32 1    
    64   32   33 1    
    65   32   34 1    
    66   32  155 1    
    67   33  156 1    
    68   33  157 1    
    69   33  158 1    
    70   34   35 am   BACKBONE|DICT|INTERRES
    71   34  159 1    
    72   35   36 2    
    73   35   37 1    
    74   37   38 1    
    75   37   39 1    
    76   37  160 1    
    77   38  161 1    
    78   38  162 1    
    79   38  163 1    
    80   39   40 am   BACKBONE|DICT|INTERRES
    81   39  164 1    
    82   40   41 2    
    83   40   42 1    
    84   42   43 1    
    85   42   44 1    
    86   42  165 1    
    87   43  166 1    
    88   43  167 1    
    89   43  168 1    
    90   44   45 am   BACKBONE|DICT|INTERRES
    91   44  169 1    
    92   45   46 2    
    93   45   47 1    
    94   47   48 1    
    95   47   49 1    
    96   47  170 1    
    97   48  171 1    
    98   48  172 1    
    99   48  173 1    
   100   49   50 am   BACKBONE|DICT|INTERRES
   101   49  174 1    
   102   50   51 2    
   103   50   52 1    
   104   52   53 1    
   105   52   54 1    
   106   52  175 1    
   107   53  176 1    
   108   53  177 1    
   109   53  178 1    
   110   54   55 am   BACKBONE|DICT|INTERRES
   111   54  179 1    
   112   55   56 2    
   113   55   57 1    
   114   57   58 1    
   115   57   59 1    
   116   57  180 1    
   117   58  181 1    
   118   58  182 1    
   119   58  183 1    
   120   59   60 am   BACKBONE|DICT|INTERRES
   121   59  184 1    
   122   60   61 2    
   123   60   62 1    
   124   62   63 1    
   125   62   64 1    
   126   62  185 1    
   127   63  186 1    
   128   63  187 1    
   129   63  188 1    
   130   64   65 am   BACKBONE|DICT|INTERRES
   131   64  189 1    
   132   65   66 2    
   133   67   68 2    
   134   67   69 am   BACKBONE|DICT|INTERRES
   135   69   70 1    
   136   69  190 1    
   137   70   71 1    
   138   70   72 1    
   139   70  191 1    
   140   71  192 1    
   141   71  193 1    
   142   71  194 1    
   143   72   73 2    
   144   72   74 am   BACKBONE|DICT|INTERRES
   145   74   75 1    
   146   74  195 1    
   147   75   76 1    
   148   75   77 1    
   149   75  196 1    
   150   76  197 1    
   151   76  198 1    
   152   76  199 1    
   153   77   78 2    
   154   77   79 am   BACKBONE|DICT|INTERRES
   155   79   80 1    
   156   79  200 1    
   157   80   81 1    
   158   80   82 1    
   159   80  201 1    
   160   81  202 1    
   161   81  203 1    
   162   81  204 1    
   163   82   83 2    
   164   82   84 am   BACKBONE|DICT|INTERRES
   165   84   85 1    
   166   84  205 1    
   167   85   86 1    
   168   85   87 1    
   169   85  206 1    
   170   86  207 1    
   171   86  208 1    
   172   86  209 1    
   173   87   88 2    
   174   87   89 am   BACKBONE|DICT|INTERRES
   175   89   90 1    
   176   89  210 1    
   177   90   91 1    
   178   90   92 1    
   179   90  211 1    
   180   91  212 1    
   181   91  213 1    
   182   91  214 1    
   183   92   93 2    
   184   92   94 am   BACKBONE|DICT|INTERRES
   185   94   95 1    
   186   94  215 1    
   187   95   96 1    
   188   95   97 1    
   189   95  216 1    
   190   96  217 1    
   191   96  218 1    
   192   96  219 1    
   193   97   98 2    
   194   97   99 am   BACKBONE|DICT|INTERRES
   195   99  100 1    
   196   99  220 1    
   197  100  101 1    
   198  100  102 1    
   199  100  221 1    
   200  101  222 1    
   201  101  223 1    
   202  101  224 1    
   203  102  103 2    
   204  102  104 am   BACKBONE|DICT|INTERRES
   205  104  105 1    
   206  104  225 1    
   207  105  106 1    
   208  105  107 1    
   209  105  226 1    
   210  106  227 1    
   211  106  228 1    
   212  106  229 1    
   213  107  108 2    
   214  107  109 am   BACKBONE|DICT|INTERRES
   215  109  110 1    
   216  109  230 1    
   217  110  111 1    
   218  110  112 1    
   219  110  231 1    
   220  111  232 1    
   221  111  233 1    
   222  111  234 1    
   223  112  113 2    
   224  112  114 am   BACKBONE|DICT|INTERRES
   225  114  115 1    
   226  114  235 1    
   227  115  116 1    
   228  115  117 1    
   229  115  236 1    
   230  116  237 1    
   231  116  238 1    
   232  116  239 1    
   233  117  118 2    
   234  117  119 am   BACKBONE|DICT|INTERRES
   235  119  120 1    
   236  119  240 1    
   237  120  121 1    
   238  120  124 1    
   239  120  241 1    
   240  121  122 am   BACKBONE|DICT|INTERRES
   241  121  123 2    
   242  122  242 1    
   243  122  243 1    
   244  124  125 1    
   245  124  244 1    
   246  124  245 1    
   247  125  126 1    
   248  126  246 1    
   249  126  247 1    
@<TRIPOS>SUBSTRUCTURE
     1 UNK         1 GROUP             0       ****    0 ROOT    
