@<TRIPOS>MOLECULE
3R540
247   249    1
SMALL
USER_CHARGES


@<TRIPOS>ATOM
      1 CA          3.3664  -10.1342  -52.9453 C.3       0 UNK        -0.1800 
      2 C           2.3434  -11.1259  -52.4091 C.2       0 UNK         0.5000 
      3 O           1.2147  -11.1686  -52.8988 O.2       0 UNK        -0.5000 
      4 N           2.7315  -11.9211  -51.4086 N.am      1 UNK        -0.5000 
      5 CA          1.9204  -12.9585  -50.7761 C.3       1 UNK         0.1400 
      6 C6          0.8745  -12.3710  -49.7846 C.3       23 UNK        -0.0398 
      7 S7         -0.6432  -13.3789  -49.7000 S.3       23 UNK        -0.2404 
      8 C8         -0.5026  -14.1486  -48.0524 C.3       23 UNK        -0.0205 
      9 C9         -1.4525  -15.3293  -47.8947 C.ar      23 UNK        -0.0193 
     10 C10        -1.4365  -16.3755  -48.8223 C.ar      23 UNK        -0.1150 
     11 C11        -2.3237  -17.4474  -48.7073 C.ar      23 UNK        -0.0193 
     12 C12        -3.2249  -17.4786  -47.6401 C.ar      23 UNK        -0.1150 
     13 C13        -3.2123  -16.4713  -46.6687 C.ar      23 UNK        -0.0193 
     14 C14        -2.3335  -15.3926  -46.8107 C.ar      23 UNK        -0.1150 
     15 C15        -4.1459  -16.5406  -45.4666 C.3       23 UNK        -0.0205 
     16 S16        -3.4400  -17.5251  -44.0984 S.3       23 UNK        -0.2404 
     17 C17        -3.6533  -19.2234  -44.7266 C.3       23 UNK        -0.0398 
     18 CA         -2.3105  -19.8316  -45.2294 C.3       11 UNK         0.1400 
     19 N          -1.5620  -20.4701  -44.1390 N.am      11 UNK        -0.5000 
     20 C          -1.6860  -21.7143  -43.6431 C.2       10 UNK         0.5000 
     21 O          -2.3989  -22.5964  -44.1223 O.2       10 UNK        -0.5000 
     22 CA         -0.8935  -22.0135  -42.3597 C.3       10 UNK         0.1400 
     23 CB          0.5335  -22.4758  -42.6916 C.3       10 UNK        -0.1800 
     24 N          -0.8216  -20.8347  -41.5026 N.am      10 UNK        -0.5000 
     25 C          -1.7824  -20.4126  -40.6712 C.2       9 UNK         0.5000 
     26 O          -2.8279  -21.0317  -40.4674 O.2       9 UNK        -0.5000 
     27 CA         -1.5250  -19.0613  -39.9669 C.3       9 UNK         0.1400 
     28 CB         -2.2653  -18.9281  -38.6202 C.3       9 UNK        -0.1800 
     29 N          -0.0961  -18.7565  -39.8235 N.am      9 UNK        -0.5000 
     30 C           0.8209  -19.4353  -39.1157 C.2       8 UNK         0.5000 
     31 O           0.5542  -20.3823  -38.3750 O.2       8 UNK        -0.5000 
     32 CA          2.2961  -19.0209  -39.2944 C.3       8 UNK         0.1400 
     33 CB          3.0456  -20.0885  -40.1078 C.3       8 UNK        -0.1800 
     34 N           2.4665  -17.7240  -39.9536 N.am      8 UNK        -0.5000 
     35 C           2.2295  -16.5388  -39.3752 C.2       7 UNK         0.5000 
     36 O           1.8979  -16.4069  -38.1966 O.2       7 UNK        -0.5000 
     37 CA          2.3505  -15.2946  -40.2738 C.3       7 UNK         0.1400 
     38 CB          3.8093  -14.8180  -40.3398 C.3       7 UNK        -0.1800 
     39 N           1.8453  -15.5133  -41.6318 N.am      7 UNK        -0.5000 
     40 C           0.5672  -15.7749  -41.9447 C.2       6 UNK         0.5000 
     41 O          -0.3369  -15.8601  -41.1141 O.2       6 UNK        -0.5000 
     42 CA          0.2570  -16.0366  -43.4297 C.3       6 UNK         0.1400 
     43 CB          0.2421  -14.7278  -44.2321 C.3       6 UNK        -0.1800 
     44 N           1.2078  -16.9700  -44.0296 N.am      6 UNK        -0.5000 
     45 C           1.3302  -18.2566  -43.6795 C.2       5 UNK         0.5000 
     46 O           0.5960  -18.8204  -42.8689 O.2       5 UNK        -0.5000 
     47 CA          2.4809  -19.0456  -44.3201 C.3       5 UNK         0.1400 
     48 CB          2.0358  -19.6610  -45.6530 C.3       5 UNK        -0.1800 
     49 N           3.6694  -18.2176  -44.5225 N.am      5 UNK        -0.5000 
     50 C           4.4548  -17.7752  -43.5300 C.2       4 UNK         0.5000 
     51 O           4.2709  -18.0411  -42.3424 O.2       4 UNK        -0.5000 
     52 CA          5.6107  -16.8405  -43.9300 C.3       4 UNK         0.1400 
     53 CB          6.8017  -17.6462  -44.4700 C.3       4 UNK        -0.1800 
     54 N           5.2051  -15.8440  -44.9222 N.am      4 UNK        -0.5000 
     55 C           4.3188  -14.8669  -44.6868 C.2       3 UNK         0.5000 
     56 O           3.7806  -14.6818  -43.5965 O.2       3 UNK        -0.5000 
     57 CA          3.9317  -13.9723  -45.8771 C.3       3 UNK         0.1400 
     58 CB          4.8908  -12.7788  -45.9910 C.3       3 UNK        -0.1800 
     59 N           3.8741  -14.6676  -47.1649 N.am      3 UNK        -0.5000 
     60 C           3.1065  -15.7258  -47.4541 C.2       2 UNK         0.5000 
     61 O           2.4183  -16.3128  -46.6182 O.2       2 UNK        -0.5000 
     62 CA          3.0658  -16.1504  -48.9381 C.3       2 UNK         0.1400 
     63 CB          2.3676  -17.5082  -49.1387 C.3       2 UNK        -0.1800 
     64 N           2.3814  -15.1404  -49.7506 N.am      2 UNK        -0.5000 
     65 C           2.8810  -13.9445  -50.0872 C.2       1 UNK         0.5000 
     66 O           4.0417  -13.5986  -49.8404 O.2       1 UNK        -0.5000 
     67 C          -2.4795  -20.7414  -46.4669 C.2       11 UNK         0.5000 
     68 O          -1.5753  -20.8085  -47.3001 O.2       11 UNK        -0.5000 
     69 N          -3.6289  -21.4285  -46.5537 N.am      12 UNK        -0.5000 
     70 CA         -4.0589  -22.3061  -47.6426 C.3       12 UNK         0.1400 
     71 CB         -5.4102  -22.9254  -47.2543 C.3       12 UNK        -0.1800 
     72 C          -3.0605  -23.4164  -48.0141 C.2       12 UNK         0.5000 
     73 O          -3.0337  -23.8296  -49.1740 O.2       12 UNK        -0.5000 
     74 N          -2.2499  -23.8497  -47.0388 N.am      13 UNK        -0.5000 
     75 CA         -1.1898  -24.8477  -47.1861 C.3       13 UNK         0.1400 
     76 CB         -0.6559  -25.1998  -45.7898 C.3       13 UNK        -0.1800 
     77 C          -0.0296  -24.4197  -48.1102 C.2       13 UNK         0.5000 
     78 O           0.7264  -25.2842  -48.5549 O.2       13 UNK        -0.5000 
     79 N           0.1009  -23.1141  -48.3931 N.am      14 UNK        -0.5000 
     80 CA          1.0773  -22.5689  -49.3418 C.3       14 UNK         0.1400 
     81 CB          1.2263  -21.0613  -49.0955 C.3       14 UNK        -0.1800 
     82 C           0.7146  -22.8351  -50.8182 C.2       14 UNK         0.5000 
     83 O           1.5709  -22.6657  -51.6873 O.2       14 UNK        -0.5000 
     84 N          -0.5342  -23.2368  -51.0766 N.am      15 UNK        -0.5000 
     85 CA         -1.0664  -23.6023  -52.3840 C.3       15 UNK         0.1400 
     86 CB         -2.0574  -22.5086  -52.8212 C.3       15 UNK        -0.1800 
     87 C          -1.7359  -24.9848  -52.2855 C.2       15 UNK         0.5000 
     88 O          -1.6698  -25.6383  -51.2404 O.2       15 UNK        -0.5000 
     89 N          -2.3900  -25.4169  -53.3699 N.am      16 UNK        -0.5000 
     90 CA         -3.1776  -26.6503  -53.4368 C.3       16 UNK         0.1400 
     91 CB         -3.3179  -27.0679  -54.9121 C.3       16 UNK        -0.1800 
     92 C          -4.5399  -26.4789  -52.7296 C.2       16 UNK         0.5000 
     93 O          -5.5809  -26.4878  -53.3882 O.2       16 UNK        -0.5000 
     94 N          -4.4905  -26.2855  -51.4025 N.am      17 UNK        -0.5000 
     95 CA         -5.6009  -25.9591  -50.5013 C.3       17 UNK         0.1400 
     96 CB         -6.6110  -27.1221  -50.4145 C.3       17 UNK        -0.1800 
     97 C          -6.2462  -24.6156  -50.8920 C.2       17 UNK         0.5000 
     98 O          -7.4135  -24.5685  -51.2849 O.2       17 UNK        -0.5000 
     99 N          -5.4299  -23.5539  -50.8280 N.am      18 UNK        -0.5000 
    100 CA        -5.6841  -22.1632  -51.2291 C.3       18 UNK         0.1400 
    101 CB        -6.8933  -21.5528  -50.4941 C.3       18 UNK        -0.1800 
    102 C         -5.7963  -21.9653  -52.7515 C.2       18 UNK         0.5000 
    103 O         -5.1475  -21.0651  -53.2867 O.2       18 UNK        -0.5000 
    104 N         -6.5871  -22.8169  -53.4169 N.am      19 UNK        -0.5000 
    105 CA        -6.8223  -22.8733  -54.8616 C.3       19 UNK         0.1400 
    106 CB        -5.5553  -23.4098  -55.5666 C.3       19 UNK        -0.1800 
    107 C         -7.3207  -21.5291  -55.4420 C.2       19 UNK         0.5000 
    108 O         -7.9451  -20.7381  -54.7306 O.2       19 UNK        -0.5000 
    109 N         -7.0212  -21.2768  -56.7219 N.am      20 UNK        -0.5000 
    110 CA        -7.2681  -19.9979  -57.3920 C.3       20 UNK         0.1400 
    111 CB        -7.1873  -20.2134  -58.9115 C.3       20 UNK        -0.1800 
    112 C         -6.2902  -18.8880  -56.9498 C.2       20 UNK         0.5000 
    113 O         -6.5601  -17.7136  -57.2037 O.2       20 UNK        -0.5000 
    114 N         -5.1715  -19.2746  -56.3186 N.am      21 UNK        -0.5000 
    115 CA        -4.1303  -18.3773  -55.8253 C.3       21 UNK         0.1400 
    116 CB        -2.8731  -19.1939  -55.4809 C.3       21 UNK        -0.1800 
    117 C         -4.5964  -17.5449  -54.6192 C.2       21 UNK         0.5000 
    118 O         -4.4814  -16.3185  -54.6533 O.2       21 UNK        -0.5000 
    119 N         -5.1067  -18.2260  -53.5861 N.am      22 UNK        -0.5000 
    120 CA        -5.5082  -17.6227  -52.3037 C.3       22 UNK         0.1400 
    121 C         -7.0327  -17.7248  -52.0176 C.2       22 UNK         0.5000 
    122 N         -7.8246  -18.4522  -52.7965 N.am      22 UNK        -0.7600 
    123 O         -7.5167  -17.1149  -51.0684 O.2       22 UNK        -0.5000 
    124 C124       -4.6891  -18.1904  -51.1134 C.3       23 UNK        -0.0398 
    125 S125       -2.8848  -18.0730  -51.3560 S.3       23 UNK        -0.2404 
    126 C126       -2.2740  -18.5810  -49.7213 C.3       23 UNK        -0.0205 
    127 H127        4.3234  -10.2211  -52.4302 H         1 UNK         0.0600 
    128 H128        3.0030   -9.1145  -52.8178 H         1 UNK         0.0600 
    129 H129        3.5356  -10.3068  -54.0082 H         1 UNK         0.0600 
    130 H130        3.6817  -11.8869  -51.0572 H         1 UNK         0.3000 
    131 H131        1.4113  -13.5032  -51.5747 H         1 UNK         0.0600 
    132 H132        0.5559  -11.3818  -50.1155 H         1 UNK         0.0800 
    133 H133        1.2942  -12.2175  -48.7884 H         1 UNK         0.0800 
    134 H134        0.5134  -14.4964  -47.8787 H         1 UNK         0.0800 
    135 H135       -0.7005  -13.3881  -47.2955 H         1 UNK         0.0800 
    136 H136       -0.7449  -16.3488  -49.6518 H         1 UNK         0.1150 
    137 H137       -3.9187  -18.3015  -47.5557 H         1 UNK         0.1150 
    138 H138       -2.3340  -14.6034  -46.0721 H         1 UNK         0.1150 
    139 H139       -4.3457  -15.5332  -45.0982 H         1 UNK         0.0800 
    140 H140       -5.1150  -16.9458  -45.7614 H         1 UNK         0.0800 
    141 H141       -4.4182  -19.1883  -45.5024 H         1 UNK         0.0800 
    142 H142       -4.0814  -19.8347  -43.9304 H         1 UNK         0.0800 
    143 H143       -1.6754  -19.0147  -45.5777 H         1 UNK         0.0600 
    144 H144       -0.9207  -19.8524  -43.6532 H         1 UNK         0.3000 
    145 H145       -1.4009  -22.8166  -41.8211 H         1 UNK         0.0600 
    146 H146        1.1053  -22.6688  -41.7836 H         1 UNK         0.0600 
    147 H147        0.5198  -23.4013  -43.2668 H         1 UNK         0.0600 
    148 H148        1.0756  -21.7319  -43.2756 H         1 UNK         0.0600 
    149 H149       -0.0450  -20.2034  -41.6707 H         1 UNK         0.3000 
    150 H150       -1.9242  -18.2979  -40.6365 H         1 UNK         0.0600 
    151 H151       -3.3449  -18.9904  -38.7611 H         1 UNK         0.0600 
    152 H152       -2.0557  -17.9675  -38.1496 H         1 UNK         0.0600 
    153 H153       -1.9830  -19.7148  -37.9204 H         1 UNK         0.0600 
    154 H154        0.2336  -17.9928  -40.3999 H         1 UNK         0.3000 
    155 H155        2.7460  -18.9682  -38.3009 H         1 UNK         0.0600 
    156 H156        2.6432  -20.1789  -41.1174 H         1 UNK         0.0600 
    157 H157        2.9703  -21.0689  -39.6356 H         1 UNK         0.0600 
    158 H158        4.1061  -19.8498  -40.1896 H         1 UNK         0.0600 
    159 H159        2.8077  -17.7428  -40.9090 H         1 UNK         0.3000 
    160 H160        1.7535  -14.5005  -39.8208 H         1 UNK         0.0600 
    161 H161        4.4501  -15.5527  -40.8291 H         1 UNK         0.0600 
    162 H162        4.2106  -14.6431  -39.3409 H         1 UNK         0.0600 
    163 H163        3.8927  -13.8818  -40.8918 H         1 UNK         0.0600 
    164 H164        2.5240  -15.4171  -42.3832 H         1 UNK         0.3000 
    165 H165       -0.7348  -16.4864  -43.4954 H         1 UNK         0.0600 
    166 H166        0.1036  -14.9220  -45.2944 H         1 UNK         0.0600 
    167 H167       -0.5736  -14.0821  -43.9055 H         1 UNK         0.0600 
    168 H168        1.1694  -14.1681  -44.1158 H         1 UNK         0.0600 
    169 H169        1.8048  -16.6125  -44.7689 H         1 UNK         0.3000 
    170 H170        2.7453  -19.8601  -43.6428 H         1 UNK         0.0600 
    171 H171        1.1868  -20.3312  -45.5109 H         1 UNK         0.0600 
    172 H172        1.7297  -18.8988  -46.3700 H         1 UNK         0.0600 
    173 H173        2.8392  -20.2445  -46.1025 H         1 UNK         0.0600 
    174 H174        3.8375  -17.8885  -45.4621 H         1 UNK         0.3000 
    175 H175        5.9363  -16.3117  -43.0316 H         1 UNK         0.0600 
    176 H176        6.5485  -18.1772  -45.3884 H         1 UNK         0.0600 
    177 H177        7.6526  -16.9981  -44.6804 H         1 UNK         0.0600 
    178 H178        7.1320  -18.3883  -43.7419 H         1 UNK         0.0600 
    179 H179        5.5967  -15.9270  -45.8487 H         1 UNK         0.3000 
    180 H180        2.9316  -13.5829  -45.6785 H         1 UNK         0.0600 
    181 H181        5.9049  -13.0996  -46.2327 H         1 UNK         0.0600 
    182 H182        4.9359  -12.2220  -45.0540 H         1 UNK         0.0600 
    183 H183        4.5651  -12.0840  -46.7655 H         1 UNK         0.0600 
    184 H184        4.3500  -14.2188  -47.9406 H         1 UNK         0.3000 
    185 H185        4.0961  -16.2477  -49.2865 H         1 UNK         0.0600 
    186 H186        1.3332  -17.4901  -48.7939 H         1 UNK         0.0600 
    187 H187        2.3655  -17.8014  -50.1886 H         1 UNK         0.0600 
    188 H188        2.8817  -18.2945  -48.5848 H         1 UNK         0.0600 
    189 H189        1.4183  -15.3385  -49.9792 H         1 UNK         0.3000 
    190 H190       -4.2666  -21.3728  -45.7734 H         1 UNK         0.3000 
    191 H191       -4.1986  -21.6819  -48.5263 H         1 UNK         0.0600 
    192 H192       -6.1642  -22.1566  -47.0845 H         1 UNK         0.0600 
    193 H193       -5.7888  -23.5821  -48.0370 H         1 UNK         0.0600 
    194 H194       -5.3299  -23.5204  -46.3436 H         1 UNK         0.0600 
    195 H195       -2.3500  -23.4328  -46.1195 H         1 UNK         0.3000 
    196 H196       -1.6364  -25.7437  -47.6221 H         1 UNK         0.0600 
    197 H197        0.0988  -25.9855  -45.8436 H         1 UNK         0.0600 
    198 H198       -1.4533  -25.5585  -45.1386 H         1 UNK         0.0600 
    199 H199       -0.1966  -24.3340  -45.3132 H         1 UNK         0.0600 
    200 H200       -0.5471  -22.4496  -47.9814 H         1 UNK         0.3000 
    201 H201        2.0442  -23.0396  -49.1523 H         1 UNK         0.0600 
    202 H202        1.5257  -20.8611  -48.0694 H         1 UNK         0.0600 
    203 H203        0.2925  -20.5324  -49.2802 H         1 UNK         0.0600 
    204 H204        1.9855  -20.6275  -49.7473 H         1 UNK         0.0600 
    205 H205       -1.1496  -23.4395  -50.2970 H         1 UNK         0.3000 
    206 H206       -0.2659  -23.6798  -53.1222 H         1 UNK         0.0600 
    207 H207       -2.8812  -22.4211  -52.1149 H         1 UNK         0.0600 
    208 H208       -1.5689  -21.5355  -52.8769 H         1 UNK         0.0600 
    209 H209       -2.4824  -22.7088  -53.8051 H         1 UNK         0.0600 
    210 H210       -2.4163  -24.8298  -54.1906 H         1 UNK         0.3000 
    211 H211       -2.6386  -27.4473  -52.9199 H         1 UNK         0.0600 
    212 H212       -3.8252  -26.3060  -55.5047 H         1 UNK         0.0600 
    213 H213       -3.8914  -27.9913  -55.0035 H         1 UNK         0.0600 
    214 H214       -2.3424  -27.2480  -55.3640 H         1 UNK         0.0600 
    215 H215       -3.5628  -26.2279  -50.9911 H         1 UNK         0.3000 
    216 H216       -5.1688  -25.8253  -49.5084 H         1 UNK         0.0600 
    217 H217       -7.3856  -26.9070  -49.6776 H         1 UNK         0.0600 
    218 H218       -6.1206  -28.0467  -50.1104 H         1 UNK         0.0600 
    219 H219       -7.1107  -27.3056  -51.3660 H         1 UNK         0.0600 
    220 H220       -4.4880  -23.7279  -50.4883 H         1 UNK         0.3000 
    221 H221       -4.8009  -21.6084  -50.9113 H         1 UNK         0.0600 
    222 H222       -7.8287  -22.0451  -50.7594 H         1 UNK         0.0600 
    223 H223       -6.7767  -21.6157  -49.4138 H         1 UNK         0.0600 
    224 H224       -7.0096  -20.4987  -50.7441 H         1 UNK         0.0600 
    225 H225       -7.0831  -23.5058  -52.8584 H         1 UNK         0.3000 
    226 H226       -7.6262  -23.5945  -55.0131 H         1 UNK         0.0600 
    227 H227       -5.2015  -24.3205  -55.0850 H         1 UNK         0.0600 
    228 H228       -5.7503  -23.6622  -56.6091 H         1 UNK         0.0600 
    229 H229       -4.7384  -22.6875  -55.5416 H         1 UNK         0.0600 
    230 H230       -6.5198  -21.9746  -57.2524 H         1 UNK         0.3000 
    231 H231       -8.2785  -19.6631  -57.1475 H         1 UNK         0.0600 
    232 H232       -6.1967  -20.5515  -59.2183 H         1 UNK         0.0600 
    233 H233       -7.3995  -19.2885  -59.4496 H         1 UNK         0.0600 
    234 H234       -7.9143  -20.9545  -59.2443 H         1 UNK         0.0600 
    235 H235       -5.0462  -20.2570  -56.1276 H         1 UNK         0.3000 
    236 H236       -3.8708  -17.6848  -56.6290 H         1 UNK         0.0600 
    237 H237       -2.4850  -19.7095  -56.3594 H         1 UNK         0.0600 
    238 H238       -2.0791  -18.5467  -55.1063 H         1 UNK         0.0600 
    239 H239       -3.0713  -19.9434  -54.7136 H         1 UNK         0.0600 
    240 H240       -5.1410  -19.2422  -53.6266 H         1 UNK         0.3000 
    241 H241       -5.3068  -16.5506  -52.3335 H         1 UNK         0.0600 
    242 H242       -7.4697  -19.0037  -53.5669 H         1 UNK         0.3800 
    243 H243       -8.8094  -18.4883  -52.5884 H         1 UNK         0.3800 
    244 H244       -4.9377  -19.2373  -50.9463 H         1 UNK         0.0800 
    245 H245       -4.9440  -17.6609  -50.1935 H         1 UNK         0.0800 
    246 H246       -1.2396  -18.9067  -49.8273 H         1 UNK         0.0800 
    247 H247       -2.8326  -19.4507  -49.3731 H         1 UNK         0.0800 
@<TRIPOS>BOND
     1    1    2 1    
     2    1  127 1    
     3    1  128 1    
     4    1  129 1    
     5    2    3 2    
     6    2    4 am   BACKBONE|DICT|INTERRES
     7    4    5 1    
     8    4  130 1    
     9    5    6 1    
    10    5   65 1    
    11    5  131 1    
    12    6    7 1    
    13    6  132 1    
    14    6  133 1    
    15    7    8 1    
    16    8    9 1    
    17    8  134 1    
    18    8  135 1    
    19    9   10 ar   
    20    9   14 ar   
    21   10   11 ar   
    22   10  136 1    
    23   11   12 ar   
    24   11  126 1    
    25   12   13 ar   
    26   12  137 1    
    27   13   14 ar   
    28   13   15 1    
    29   14  138 1    
    30   15   16 1    
    31   15  139 1    
    32   15  140 1    
    33   16   17 1    
    34   17   18 1    
    35   17  141 1    
    36   17  142 1    
    37   18   19 1    
    38   18   67 1    
    39   18  143 1    
    40   19   20 am   BACKBONE|DICT|INTERRES
    41   19  144 1    
    42   20   21 2    
    43   20   22 1    
    44   22   23 1    
    45   22   24 1    
    46   22  145 1    
    47   23  146 1    
    48   23  147 1    
    49   23  148 1    
    50   24   25 am   BACKBONE|DICT|INTERRES
    51   24  149 1    
    52   25   26 2    
    53   25   27 1    
    54   27   28 1    
    55   27   29 1    
    56   27  150 1    
    57   28  151 1    
    58   28  152 1    
    59   28  153 1    
    60   29   30 am   BACKBONE|DICT|INTERRES
    61   29  154 1    
    62   30   31 2    
    63   30   32 1    
    64   32   33 1    
    65   32   34 1    
    66   32  155 1    
    67   33  156 1    
    68   33  157 1    
    69   33  158 1    
    70   34   35 am   BACKBONE|DICT|INTERRES
    71   34  159 1    
    72   35   36 2    
    73   35   37 1    
    74   37   38 1    
    75   37   39 1    
    76   37  160 1    
    77   38  161 1    
    78   38  162 1    
    79   38  163 1    
    80   39   40 am   BACKBONE|DICT|INTERRES
    81   39  164 1    
    82   40   41 2    
    83   40   42 1    
    84   42   43 1    
    85   42   44 1    
    86   42  165 1    
    87   43  166 1    
    88   43  167 1    
    89   43  168 1    
    90   44   45 am   BACKBONE|DICT|INTERRES
    91   44  169 1    
    92   45   46 2    
    93   45   47 1    
    94   47   48 1    
    95   47   49 1    
    96   47  170 1    
    97   48  171 1    
    98   48  172 1    
    99   48  173 1    
   100   49   50 am   BACKBONE|DICT|INTERRES
   101   49  174 1    
   102   50   51 2    
   103   50   52 1    
   104   52   53 1    
   105   52   54 1    
   106   52  175 1    
   107   53  176 1    
   108   53  177 1    
   109   53  178 1    
   110   54   55 am   BACKBONE|DICT|INTERRES
   111   54  179 1    
   112   55   56 2    
   113   55   57 1    
   114   57   58 1    
   115   57   59 1    
   116   57  180 1    
   117   58  181 1    
   118   58  182 1    
   119   58  183 1    
   120   59   60 am   BACKBONE|DICT|INTERRES
   121   59  184 1    
   122   60   61 2    
   123   60   62 1    
   124   62   63 1    
   125   62   64 1    
   126   62  185 1    
   127   63  186 1    
   128   63  187 1    
   129   63  188 1    
   130   64   65 am   BACKBONE|DICT|INTERRES
   131   64  189 1    
   132   65   66 2    
   133   67   68 2    
   134   67   69 am   BACKBONE|DICT|INTERRES
   135   69   70 1    
   136   69  190 1    
   137   70   71 1    
   138   70   72 1    
   139   70  191 1    
   140   71  192 1    
   141   71  193 1    
   142   71  194 1    
   143   72   73 2    
   144   72   74 am   BACKBONE|DICT|INTERRES
   145   74   75 1    
   146   74  195 1    
   147   75   76 1    
   148   75   77 1    
   149   75  196 1    
   150   76  197 1    
   151   76  198 1    
   152   76  199 1    
   153   77   78 2    
   154   77   79 am   BACKBONE|DICT|INTERRES
   155   79   80 1    
   156   79  200 1    
   157   80   81 1    
   158   80   82 1    
   159   80  201 1    
   160   81  202 1    
   161   81  203 1    
   162   81  204 1    
   163   82   83 2    
   164   82   84 am   BACKBONE|DICT|INTERRES
   165   84   85 1    
   166   84  205 1    
   167   85   86 1    
   168   85   87 1    
   169   85  206 1    
   170   86  207 1    
   171   86  208 1    
   172   86  209 1    
   173   87   88 2    
   174   87   89 am   BACKBONE|DICT|INTERRES
   175   89   90 1    
   176   89  210 1    
   177   90   91 1    
   178   90   92 1    
   179   90  211 1    
   180   91  212 1    
   181   91  213 1    
   182   91  214 1    
   183   92   93 2    
   184   92   94 am   BACKBONE|DICT|INTERRES
   185   94   95 1    
   186   94  215 1    
   187   95   96 1    
   188   95   97 1    
   189   95  216 1    
   190   96  217 1    
   191   96  218 1    
   192   96  219 1    
   193   97   98 2    
   194   97   99 am   BACKBONE|DICT|INTERRES
   195   99  100 1    
   196   99  220 1    
   197  100  101 1    
   198  100  102 1    
   199  100  221 1    
   200  101  222 1    
   201  101  223 1    
   202  101  224 1    
   203  102  103 2    
   204  102  104 am   BACKBONE|DICT|INTERRES
   205  104  105 1    
   206  104  225 1    
   207  105  106 1    
   208  105  107 1    
   209  105  226 1    
   210  106  227 1    
   211  106  228 1    
   212  106  229 1    
   213  107  108 2    
   214  107  109 am   BACKBONE|DICT|INTERRES
   215  109  110 1    
   216  109  230 1    
   217  110  111 1    
   218  110  112 1    
   219  110  231 1    
   220  111  232 1    
   221  111  233 1    
   222  111  234 1    
   223  112  113 2    
   224  112  114 am   BACKBONE|DICT|INTERRES
   225  114  115 1    
   226  114  235 1    
   227  115  116 1    
   228  115  117 1    
   229  115  236 1    
   230  116  237 1    
   231  116  238 1    
   232  116  239 1    
   233  117  118 2    
   234  117  119 am   BACKBONE|DICT|INTERRES
   235  119  120 1    
   236  119  240 1    
   237  120  121 1    
   238  120  124 1    
   239  120  241 1    
   240  121  122 am   BACKBONE|DICT|INTERRES
   241  121  123 2    
   242  122  242 1    
   243  122  243 1    
   244  124  125 1    
   245  124  244 1    
   246  124  245 1    
   247  125  126 1    
   248  126  246 1    
   249  126  247 1    
@<TRIPOS>SUBSTRUCTURE
     1 UNK         1 GROUP             0       ****    0 ROOT    
