@<TRIPOS>MOLECULE
3R540
247   249    1
SMALL
USER_CHARGES


@<TRIPOS>ATOM
      1 CA         -0.2021  -18.6762  -46.9957 C.3       0 UNK        -0.1800 
      2 C          -0.0537  -17.6262  -48.0836 C.2       0 UNK         0.5000 
      3 O           0.9832  -16.9691  -48.1479 O.2       0 UNK        -0.5000 
      4 N          -1.0973  -17.4609  -48.9068 N.am      1 UNK        -0.5000 
      5 CA         -1.2541  -16.5633  -50.0597 C.3       1 UNK         0.1400 
      6 C6         -0.3666  -16.9160  -51.2905 C.3       23 UNK        -0.0398 
      7 S7          1.3652  -16.3377  -51.2834 S.3       23 UNK        -0.2404 
      8 C8          2.0662  -17.3090  -52.6537 C.3       23 UNK        -0.0205 
      9 C9          2.3340  -18.7566  -52.2655 C.ar      23 UNK        -0.0193 
     10 C10         1.5923  -19.7956  -52.8341 C.ar      23 UNK        -0.1150 
     11 C11         1.8829  -21.1274  -52.5233 C.ar      23 UNK        -0.0193 
     12 C12         2.9177  -21.4168  -51.6284 C.ar      23 UNK        -0.1150 
     13 C13         3.6439  -20.3844  -51.0208 C.ar      23 UNK        -0.0193 
     14 C14         3.3521  -19.0591  -51.3574 C.ar      23 UNK        -0.1150 
     15 C15         4.7499  -20.6675  -50.0041 C.3       23 UNK        -0.0205 
     16 S16         4.3924  -22.0179  -48.8240 S.3       23 UNK        -0.2404 
     17 C17         2.7651  -21.5387  -48.1543 C.3       23 UNK        -0.0398 
     18 CA          2.0727  -22.7421  -47.4671 C.3       11 UNK         0.1400 
     19 N           2.5776  -22.9502  -46.1072 N.am      11 UNK        -0.5000 
     20 C           2.2517  -23.9515  -45.2762 C.2       10 UNK         0.5000 
     21 O           1.5113  -24.8858  -45.5866 O.2       10 UNK        -0.5000 
     22 CA          2.8062  -23.8578  -43.8396 C.3       10 UNK         0.1400 
     23 CB          4.0312  -24.7697  -43.6762 C.3       10 UNK        -0.1800 
     24 N           3.1701  -22.4903  -43.4463 N.am      10 UNK        -0.5000 
     25 C           2.3038  -21.4789  -43.2927 C.2       9 UNK         0.5000 
     26 O           1.0854  -21.5903  -43.4436 O.2       9 UNK        -0.5000 
     27 CA          2.9171  -20.0965  -43.0161 C.3       9 UNK         0.1400 
     28 CB          2.8834  -19.2383  -44.2910 C.3       9 UNK        -0.1800 
     29 N           2.2257  -19.3852  -41.9432 N.am      9 UNK        -0.5000 
     30 C           2.3289  -19.6952  -40.6443 C.2       8 UNK         0.5000 
     31 O           2.9700  -20.6611  -40.2265 O.2       8 UNK        -0.5000 
     32 CA          1.6421  -18.7622  -39.6336 C.3       8 UNK         0.1400 
     33 CB          2.5142  -17.5228  -39.3726 C.3       8 UNK        -0.1800 
     34 N           0.3169  -18.3226  -40.0737 N.am      8 UNK        -0.5000 
     35 C          -0.8079  -18.4716  -39.3572 C.2       7 UNK         0.5000 
     36 O          -0.8553  -19.0665  -38.2793 O.2       7 UNK        -0.5000 
     37 CA         -2.1028  -17.8337  -39.9036 C.3       7 UNK         0.1400 
     38 CB         -2.4473  -16.5623  -39.1124 C.3       7 UNK        -0.1800 
     39 N          -2.0289  -17.5001  -41.3251 N.am      7 UNK        -0.5000 
     40 C          -2.1032  -18.4038  -42.3122 C.2       6 UNK         0.5000 
     41 O          -2.3353  -19.5970  -42.1198 O.2       6 UNK        -0.5000 
     42 CA         -1.8627  -17.9115  -43.7538 C.3       6 UNK         0.1400 
     43 CB         -3.1873  -17.8388  -44.5254 C.3       6 UNK        -0.1800 
     44 N          -1.1852  -16.6180  -43.8589 N.am      6 UNK        -0.5000 
     45 C           0.0459  -16.3450  -43.3989 C.2       5 UNK         0.5000 
     46 O           0.7596  -17.1736  -42.8332 O.2       5 UNK        -0.5000 
     47 CA          0.5390  -14.8914  -43.5321 C.3       5 UNK         0.1400 
     48 CB          1.3683  -14.7432  -44.8142 C.3       5 UNK        -0.1800 
     49 N          -0.5440  -13.9009  -43.5308 N.am      5 UNK        -0.5000 
     50 C          -1.4489  -13.7532  -42.5486 C.2       4 UNK         0.5000 
     51 O          -1.4199  -14.3995  -41.5005 O.2       4 UNK        -0.5000 
     52 CA         -2.6096  -12.7644  -42.7790 C.3       4 UNK         0.1400 
     53 CB         -2.3719  -11.4674  -41.9891 C.3       4 UNK        -0.1800 
     54 N          -2.8596  -12.4239  -44.1815 N.am      4 UNK        -0.5000 
     55 C          -3.1820  -13.2753  -45.1663 C.2       3 UNK         0.5000 
     56 O          -3.2837  -14.4940  -45.0150 O.2       3 UNK        -0.5000 
     57 CA         -3.3900  -12.6666  -46.5691 C.3       3 UNK         0.1400 
     58 CB         -3.6147  -11.1381  -46.5621 C.3       3 UNK        -0.1800 
     59 N          -2.3040  -13.0031  -47.4933 N.am      3 UNK        -0.5000 
     60 C          -0.9864  -12.8324  -47.3123 C.2       2 UNK         0.5000 
     61 O          -0.4841  -12.4073  -46.2693 O.2       2 UNK        -0.5000 
     62 CA         -0.0909  -13.2102  -48.5098 C.3       2 UNK         0.1400 
     63 CB          1.4080  -12.9844  -48.2425 C.3       2 UNK        -0.1800 
     64 N          -0.2890  -14.5974  -48.9248 N.am      2 UNK        -0.5000 
     65 C          -1.2709  -15.0598  -49.7052 C.2       1 UNK         0.5000 
     66 O          -2.1899  -14.3514  -50.1183 O.2       1 UNK        -0.5000 
     67 C           0.5404  -22.5912  -47.5458 C.2       11 UNK         0.5000 
     68 O          -0.0069  -22.7983  -48.6268 O.2       11 UNK        -0.5000 
     69 N          -0.1371  -22.2745  -46.4305 N.am      12 UNK        -0.5000 
     70 CA         -1.5946  -22.1486  -46.3370 C.3       12 UNK         0.1400 
     71 CB         -1.9772  -21.8085  -44.8911 C.3       12 UNK        -0.1800 
     72 C          -2.3714  -23.3917  -46.8118 C.2       12 UNK         0.5000 
     73 O          -3.4633  -23.2413  -47.3587 O.2       12 UNK        -0.5000 
     74 N          -1.7837  -24.5834  -46.6392 N.am      13 UNK        -0.5000 
     75 CA         -2.3373  -25.8537  -47.1092 C.3       13 UNK         0.1400 
     76 CB         -1.5506  -27.0053  -46.4655 C.3       13 UNK        -0.1800 
     77 C          -2.3362  -25.9944  -48.6455 C.2       13 UNK         0.5000 
     78 O          -3.2111  -26.6702  -49.1876 O.2       13 UNK        -0.5000 
     79 N          -1.3632  -25.3624  -49.3150 N.am      14 UNK        -0.5000 
     80 CA         -1.1987  -25.3866  -50.7691 C.3       14 UNK         0.1400 
     81 CB          0.3003  -25.4565  -51.0981 C.3       14 UNK        -0.1800 
     82 C          -1.8433  -24.1586  -51.4334 C.2       14 UNK         0.5000 
     83 O          -2.4181  -24.2830  -52.5137 O.2       14 UNK        -0.5000 
     84 N          -1.7451  -22.9986  -50.7716 N.am      15 UNK        -0.5000 
     85 CA         -2.2948  -21.7179  -51.2129 C.3       15 UNK         0.1400 
     86 CB         -1.5550  -20.5865  -50.4831 C.3       15 UNK        -0.1800 
     87 C          -3.8099  -21.5795  -50.9911 C.2       15 UNK         0.5000 
     88 O          -4.3893  -20.6204  -51.5021 O.2       15 UNK        -0.5000 
     89 N          -4.4123  -22.5073  -50.2311 N.am      16 UNK        -0.5000 
     90 CA         -5.7984  -22.4846  -49.7518 C.3       16 UNK         0.1400 
     91 CB         -6.7964  -22.6666  -50.9137 C.3       16 UNK        -0.1800 
     92 C          -6.0492  -21.2321  -48.8887 C.2       16 UNK         0.5000 
     93 O          -6.9410  -20.4284  -49.1670 O.2       16 UNK        -0.5000 
     94 N          -5.1852  -21.0789  -47.8772 N.am      17 UNK        -0.5000 
     95 CA         -5.0359  -19.9233  -46.9991 C.3       17 UNK         0.1400 
     96 CB         -6.2472  -19.7989  -46.0471 C.3       17 UNK        -0.1800 
     97 C          -4.7120  -18.6484  -47.8048 C.2       17 UNK         0.5000 
     98 O          -3.6761  -18.6032  -48.4716 O.2       17 UNK        -0.5000 
     99 N          -5.5851  -17.6399  -47.7191 N.am      18 UNK        -0.5000 
    100 CA        -5.4431  -16.3375  -48.3669 C.3       18 UNK         0.1400 
    101 CB        -6.2005  -15.2998  -47.5209 C.3       18 UNK        -0.1800 
    102 C         -5.9339  -16.3118  -49.8297 C.2       18 UNK         0.5000 
    103 O         -5.8268  -15.2641  -50.4674 O.2       18 UNK        -0.5000 
    104 N         -6.4779  -17.4278  -50.3432 N.am      19 UNK        -0.5000 
    105 CA        -7.0215  -17.5270  -51.7043 C.3       19 UNK         0.1400 
    106 CB        -7.8059  -18.8371  -51.8494 C.3       19 UNK        -0.1800 
    107 C         -5.9574  -17.4176  -52.8150 C.2       19 UNK         0.5000 
    108 O         -6.2989  -17.0352  -53.9349 O.2       19 UNK        -0.5000 
    109 N         -4.6998  -17.7375  -52.4773 N.am      20 UNK        -0.5000 
    110 CA        -3.5089  -17.6653  -53.3259 C.3       20 UNK         0.1400 
    111 CB        -3.2016  -16.2062  -53.7255 C.3       20 UNK        -0.1800 
    112 C         -3.5651  -18.6341  -54.5229 C.2       20 UNK         0.5000 
    113 O         -3.2893  -18.2460  -55.6604 O.2       20 UNK        -0.5000 
    114 N         -3.9053  -19.8947  -54.2278 N.am      21 UNK        -0.5000 
    115 CA        -3.7869  -21.0317  -55.1414 C.3       21 UNK         0.1400 
    116 CB        -4.6319  -22.1937  -54.5889 C.3       21 UNK        -0.1800 
    117 C         -2.3116  -21.4449  -55.3647 C.2       21 UNK         0.5000 
    118 O         -1.4016  -20.8143  -54.8265 O.2       21 UNK        -0.5000 
    119 N         -2.1124  -22.4931  -56.1718 N.am      22 UNK        -0.5000 
    120 CA        -0.8229  -23.0655  -56.6091 C.3       22 UNK         0.1400 
    121 C         -0.0853  -22.2763  -57.7352 C.2       22 UNK         0.5000 
    122 N         -0.5801  -21.1283  -58.1820 N.am      22 UNK        -0.7600 
    123 O          0.9242  -22.7430  -58.2565 O.2       22 UNK        -0.5000 
    124 C124        0.0906  -23.5808  -55.4452 C.3       23 UNK        -0.0398 
    125 S125        1.4617  -22.4919  -54.8948 S.3       23 UNK        -0.2404 
    126 C126        1.0596  -22.2467  -53.1399 C.3       23 UNK        -0.0205 
    127 H127        0.1590  -18.2746  -46.0488 H         1 UNK         0.0600 
    128 H128        0.3940  -19.5544  -47.2447 H         1 UNK         0.0600 
    129 H129       -1.2411  -18.9822  -46.8667 H         1 UNK         0.0600 
    130 H130       -1.9367  -18.0064  -48.7183 H         1 UNK         0.3000 
    131 H131       -2.2766  -16.7750  -50.3781 H         1 UNK         0.0600 
    132 H132       -0.3653  -17.9951  -51.4401 H         1 UNK         0.0800 
    133 H133       -0.8212  -16.4962  -52.1872 H         1 UNK         0.0800 
    134 H134        3.0063  -16.8489  -52.9610 H         1 UNK         0.0800 
    135 H135        1.4033  -17.2512  -53.5186 H         1 UNK         0.0800 
    136 H136        0.7966  -19.5755  -53.5330 H         1 UNK         0.1150 
    137 H137        3.1425  -22.4459  -51.3867 H         1 UNK         0.1150 
    138 H138        3.9171  -18.2527  -50.9106 H         1 UNK         0.1150 
    139 H139        5.6641  -20.9117  -50.5464 H         1 UNK         0.0800 
    140 H140        4.9674  -19.7681  -49.4255 H         1 UNK         0.0800 
    141 H141        2.1576  -21.1584  -48.9766 H         1 UNK         0.0800 
    142 H142        2.8853  -20.7007  -47.4660 H         1 UNK         0.0800 
    143 H143        2.2992  -23.6482  -48.0338 H         1 UNK         0.0600 
    144 H144        3.2148  -22.2491  -45.7613 H         1 UNK         0.3000 
    145 H145        2.0233  -24.2075  -43.1634 H         1 UNK         0.0600 
    146 H146        4.3883  -24.7705  -42.6460 H         1 UNK         0.0600 
    147 H147        3.7875  -25.8012  -43.9345 H         1 UNK         0.0600 
    148 H148        4.8554  -24.4566  -44.3184 H         1 UNK         0.0600 
    149 H149        4.1549  -22.3155  -43.3050 H         1 UNK         0.3000 
    150 H150        3.9613  -20.2220  -42.7207 H         1 UNK         0.0600 
    151 H151        3.4411  -19.7115  -45.1002 H         1 UNK         0.0600 
    152 H152        3.3282  -18.2578  -44.1196 H         1 UNK         0.0600 
    153 H153        1.8623  -19.0836  -44.6403 H         1 UNK         0.0600 
    154 H154        1.6726  -18.5801  -42.2288 H         1 UNK         0.3000 
    155 H155        1.5701  -19.3190  -38.6968 H         1 UNK         0.0600 
    156 H156        2.6183  -16.9081  -40.2681 H         1 UNK         0.0600 
    157 H157        3.5162  -17.8088  -39.0497 H         1 UNK         0.0600 
    158 H158        2.0856  -16.8995  -38.5875 H         1 UNK         0.0600 
    159 H159        0.2701  -17.8490  -40.9687 H         1 UNK         0.3000 
    160 H160       -2.9119  -18.5523  -39.7561 H         1 UNK         0.0600 
    161 H161       -1.6534  -15.8178  -39.1832 H         1 UNK         0.0600 
    162 H162       -2.5909  -16.7871  -38.0548 H         1 UNK         0.0600 
    163 H163       -3.3685  -16.1065  -39.4757 H         1 UNK         0.0600 
    164 H164       -1.8347  -16.5313  -41.5525 H         1 UNK         0.3000 
    165 H165       -1.2224  -18.6530  -44.2312 H         1 UNK         0.0600 
    166 H166       -3.0200  -17.5866  -45.5725 H         1 UNK         0.0600 
    167 H167       -3.7086  -18.7953  -44.4907 H         1 UNK         0.0600 
    168 H168       -3.8557  -17.0866  -44.1036 H         1 UNK         0.0600 
    169 H169       -1.7231  -15.8651  -44.2743 H         1 UNK         0.3000 
    170 H170        1.1829  -14.6802  -42.6755 H         1 UNK         0.0600 
    171 H171        2.2176  -15.4290  -44.8136 H         1 UNK         0.0600 
    172 H172        0.7718  -14.9636  -45.7012 H         1 UNK         0.0600 
    173 H173        1.7650  -13.7324  -44.9144 H         1 UNK         0.0600 
    174 H174       -0.6367  -13.3303  -44.3649 H         1 UNK         0.3000 
    175 H175       -3.5145  -13.2392  -42.3935 H         1 UNK         0.0600 
    176 H176       -1.4937  -10.9315  -42.3530 H         1 UNK         0.0600 
    177 H177       -3.2298  -10.7976  -42.0602 H         1 UNK         0.0600 
    178 H178       -2.2130  -11.6763  -40.9299 H         1 UNK         0.0600 
    179 H179       -2.7563  -11.4491  -44.4233 H         1 UNK         0.3000 
    180 H180       -4.2924  -13.1279  -46.9689 H         1 UNK         0.0600 
    181 H181       -2.7268  -10.5903  -46.2436 H         1 UNK         0.0600 
    182 H182       -4.4366  -10.8616  -45.8999 H         1 UNK         0.0600 
    183 H183       -3.8765  -10.7824  -47.5588 H         1 UNK         0.0600 
    184 H184       -2.5888  -13.3994  -48.3834 H         1 UNK         0.3000 
    185 H185       -0.3753  -12.5537  -49.3349 H         1 UNK         0.0600 
    186 H186        1.7851  -13.6449  -47.4624 H         1 UNK         0.0600 
    187 H187        1.9964  -13.1667  -49.1423 H         1 UNK         0.0600 
    188 H188        1.6034  -11.9576  -47.9309 H         1 UNK         0.0600 
    189 H189        0.3958  -15.2785  -48.6018 H         1 UNK         0.3000 
    190 H190        0.3777  -22.1348  -45.5698 H         1 UNK         0.3000 
    191 H191       -1.8926  -21.3176  -46.9782 H         1 UNK         0.0600 
    192 H192       -3.0521  -21.6553  -44.7882 H         1 UNK         0.0600 
    193 H193       -1.4838  -20.8975  -44.5582 H         1 UNK         0.0600 
    194 H194       -1.6914  -22.6053  -44.2030 H         1 UNK         0.0600 
    195 H195       -0.8760  -24.6184  -46.1934 H         1 UNK         0.3000 
    196 H196       -3.3743  -25.9182  -46.7728 H         1 UNK         0.0600 
    197 H197       -1.9457  -27.9728  -46.7781 H         1 UNK         0.0600 
    198 H198       -1.6126  -26.9656  -45.3779 H         1 UNK         0.0600 
    199 H199       -0.4956  -26.9751  -46.7419 H         1 UNK         0.0600 
    200 H200       -0.7206  -24.7749  -48.7992 H         1 UNK         0.3000 
    201 H201       -1.6735  -26.2780  -51.1846 H         1 UNK         0.0600 
    202 H202        0.7490  -26.3612  -50.6879 H         1 UNK         0.0600 
    203 H203        0.8440  -24.6025  -50.6919 H         1 UNK         0.0600 
    204 H204        0.4633  -25.4749  -52.1765 H         1 UNK         0.0600 
    205 H205       -1.1929  -22.9717  -49.9160 H         1 UNK         0.3000 
    206 H206       -2.1204  -21.6092  -52.2835 H         1 UNK         0.0600 
    207 H207       -0.4851  -20.6099  -50.6900 H         1 UNK         0.0600 
    208 H208       -1.9297  -19.6130  -50.7978 H         1 UNK         0.0600 
    209 H209       -1.6890  -20.6505  -49.4029 H         1 UNK         0.0600 
    210 H210       -3.8267  -23.2273  -49.8314 H         1 UNK         0.3000 
    211 H211       -5.9139  -23.3415  -49.0863 H         1 UNK         0.0600 
    212 H212       -6.6920  -21.8957  -51.6747 H         1 UNK         0.0600 
    213 H213       -7.8257  -22.6374  -50.5543 H         1 UNK         0.0600 
    214 H214       -6.6502  -23.6298  -51.4025 H         1 UNK         0.0600 
    215 H215       -4.5001  -21.8204  -47.7443 H         1 UNK         0.3000 
    216 H216       -4.1551  -20.1228  -46.3896 H         1 UNK         0.0600 
    217 H217       -6.1133  -18.9802  -45.3389 H         1 UNK         0.0600 
    218 H218       -6.3698  -20.7090  -45.4595 H         1 UNK         0.0600 
    219 H219       -7.1815  -19.6285  -46.5832 H         1 UNK         0.0600 
    220 H220       -6.4221  -17.7768  -47.1709 H         1 UNK         0.3000 
    221 H221       -4.3866  -16.0582  -48.3779 H         1 UNK         0.0600 
    222 H222       -7.2613  -15.5423  -47.4425 H         1 UNK         0.0600 
    223 H223       -5.7927  -15.2433  -46.5110 H         1 UNK         0.0600 
    224 H224       -6.1269  -14.3027  -47.9568 H         1 UNK         0.0600 
    225 H225       -6.5368  -18.2616  -49.7705 H         1 UNK         0.3000 
    226 H226       -7.7213  -16.7001  -51.8420 H         1 UNK         0.0600 
    227 H227       -7.1446  -19.6978  -51.7668 H         1 UNK         0.0600 
    228 H228       -8.5778  -18.9281  -51.0850 H         1 UNK         0.0600 
    229 H229       -8.2978  -18.8943  -52.8211 H         1 UNK         0.0600 
    230 H230       -4.5610  -18.1251  -51.5538 H         1 UNK         0.3000 
    231 H231       -2.6830  -18.0164  -52.7076 H         1 UNK         0.0600 
    232 H232       -2.2457  -16.1373  -54.2459 H         1 UNK         0.0600 
    233 H233       -3.1435  -15.5607  -52.8487 H         1 UNK         0.0600 
    234 H234       -3.9622  -15.7973  -54.3909 H         1 UNK         0.0600 
    235 H235       -4.1312  -20.1156  -53.2609 H         1 UNK         0.3000 
    236 H236       -4.2001  -20.7363  -56.1079 H         1 UNK         0.0600 
    237 H237       -5.6455  -21.8688  -54.3525 H         1 UNK         0.0600 
    238 H238       -4.7169  -23.0040  -55.3132 H         1 UNK         0.0600 
    239 H239       -4.1979  -22.6135  -53.6825 H         1 UNK         0.0600 
    240 H240       -2.9236  -22.9355  -56.5797 H         1 UNK         0.3000 
    241 H241       -1.1471  -23.9676  -57.1298 H         1 UNK         0.0600 
    242 H242       -0.1051  -20.6389  -58.9242 H         1 UNK         0.3800 
    243 H243       -1.4019  -20.7264  -57.7610 H         1 UNK         0.3800 
    244 H244       -0.5211  -23.8652  -54.5882 H         1 UNK         0.0800 
    245 H245        0.5645  -24.5088  -55.7678 H         1 UNK         0.0800 
    246 H246        1.2229  -23.1814  -52.6058 H         1 UNK         0.0800 
    247 H247        0.0034  -22.0102  -53.0336 H         1 UNK         0.0800 
@<TRIPOS>BOND
     1    1    2 1    
     2    1  127 1    
     3    1  128 1    
     4    1  129 1    
     5    2    3 2    
     6    2    4 am   BACKBONE|DICT|INTERRES
     7    4    5 1    
     8    4  130 1    
     9    5    6 1    
    10    5   65 1    
    11    5  131 1    
    12    6    7 1    
    13    6  132 1    
    14    6  133 1    
    15    7    8 1    
    16    8    9 1    
    17    8  134 1    
    18    8  135 1    
    19    9   10 ar   
    20    9   14 ar   
    21   10   11 ar   
    22   10  136 1    
    23   11   12 ar   
    24   11  126 1    
    25   12   13 ar   
    26   12  137 1    
    27   13   14 ar   
    28   13   15 1    
    29   14  138 1    
    30   15   16 1    
    31   15  139 1    
    32   15  140 1    
    33   16   17 1    
    34   17   18 1    
    35   17  141 1    
    36   17  142 1    
    37   18   19 1    
    38   18   67 1    
    39   18  143 1    
    40   19   20 am   BACKBONE|DICT|INTERRES
    41   19  144 1    
    42   20   21 2    
    43   20   22 1    
    44   22   23 1    
    45   22   24 1    
    46   22  145 1    
    47   23  146 1    
    48   23  147 1    
    49   23  148 1    
    50   24   25 am   BACKBONE|DICT|INTERRES
    51   24  149 1    
    52   25   26 2    
    53   25   27 1    
    54   27   28 1    
    55   27   29 1    
    56   27  150 1    
    57   28  151 1    
    58   28  152 1    
    59   28  153 1    
    60   29   30 am   BACKBONE|DICT|INTERRES
    61   29  154 1    
    62   30   31 2    
    63   30   32 1    
    64   32   33 1    
    65   32   34 1    
    66   32  155 1    
    67   33  156 1    
    68   33  157 1    
    69   33  158 1    
    70   34   35 am   BACKBONE|DICT|INTERRES
    71   34  159 1    
    72   35   36 2    
    73   35   37 1    
    74   37   38 1    
    75   37   39 1    
    76   37  160 1    
    77   38  161 1    
    78   38  162 1    
    79   38  163 1    
    80   39   40 am   BACKBONE|DICT|INTERRES
    81   39  164 1    
    82   40   41 2    
    83   40   42 1    
    84   42   43 1    
    85   42   44 1    
    86   42  165 1    
    87   43  166 1    
    88   43  167 1    
    89   43  168 1    
    90   44   45 am   BACKBONE|DICT|INTERRES
    91   44  169 1    
    92   45   46 2    
    93   45   47 1    
    94   47   48 1    
    95   47   49 1    
    96   47  170 1    
    97   48  171 1    
    98   48  172 1    
    99   48  173 1    
   100   49   50 am   BACKBONE|DICT|INTERRES
   101   49  174 1    
   102   50   51 2    
   103   50   52 1    
   104   52   53 1    
   105   52   54 1    
   106   52  175 1    
   107   53  176 1    
   108   53  177 1    
   109   53  178 1    
   110   54   55 am   BACKBONE|DICT|INTERRES
   111   54  179 1    
   112   55   56 2    
   113   55   57 1    
   114   57   58 1    
   115   57   59 1    
   116   57  180 1    
   117   58  181 1    
   118   58  182 1    
   119   58  183 1    
   120   59   60 am   BACKBONE|DICT|INTERRES
   121   59  184 1    
   122   60   61 2    
   123   60   62 1    
   124   62   63 1    
   125   62   64 1    
   126   62  185 1    
   127   63  186 1    
   128   63  187 1    
   129   63  188 1    
   130   64   65 am   BACKBONE|DICT|INTERRES
   131   64  189 1    
   132   65   66 2    
   133   67   68 2    
   134   67   69 am   BACKBONE|DICT|INTERRES
   135   69   70 1    
   136   69  190 1    
   137   70   71 1    
   138   70   72 1    
   139   70  191 1    
   140   71  192 1    
   141   71  193 1    
   142   71  194 1    
   143   72   73 2    
   144   72   74 am   BACKBONE|DICT|INTERRES
   145   74   75 1    
   146   74  195 1    
   147   75   76 1    
   148   75   77 1    
   149   75  196 1    
   150   76  197 1    
   151   76  198 1    
   152   76  199 1    
   153   77   78 2    
   154   77   79 am   BACKBONE|DICT|INTERRES
   155   79   80 1    
   156   79  200 1    
   157   80   81 1    
   158   80   82 1    
   159   80  201 1    
   160   81  202 1    
   161   81  203 1    
   162   81  204 1    
   163   82   83 2    
   164   82   84 am   BACKBONE|DICT|INTERRES
   165   84   85 1    
   166   84  205 1    
   167   85   86 1    
   168   85   87 1    
   169   85  206 1    
   170   86  207 1    
   171   86  208 1    
   172   86  209 1    
   173   87   88 2    
   174   87   89 am   BACKBONE|DICT|INTERRES
   175   89   90 1    
   176   89  210 1    
   177   90   91 1    
   178   90   92 1    
   179   90  211 1    
   180   91  212 1    
   181   91  213 1    
   182   91  214 1    
   183   92   93 2    
   184   92   94 am   BACKBONE|DICT|INTERRES
   185   94   95 1    
   186   94  215 1    
   187   95   96 1    
   188   95   97 1    
   189   95  216 1    
   190   96  217 1    
   191   96  218 1    
   192   96  219 1    
   193   97   98 2    
   194   97   99 am   BACKBONE|DICT|INTERRES
   195   99  100 1    
   196   99  220 1    
   197  100  101 1    
   198  100  102 1    
   199  100  221 1    
   200  101  222 1    
   201  101  223 1    
   202  101  224 1    
   203  102  103 2    
   204  102  104 am   BACKBONE|DICT|INTERRES
   205  104  105 1    
   206  104  225 1    
   207  105  106 1    
   208  105  107 1    
   209  105  226 1    
   210  106  227 1    
   211  106  228 1    
   212  106  229 1    
   213  107  108 2    
   214  107  109 am   BACKBONE|DICT|INTERRES
   215  109  110 1    
   216  109  230 1    
   217  110  111 1    
   218  110  112 1    
   219  110  231 1    
   220  111  232 1    
   221  111  233 1    
   222  111  234 1    
   223  112  113 2    
   224  112  114 am   BACKBONE|DICT|INTERRES
   225  114  115 1    
   226  114  235 1    
   227  115  116 1    
   228  115  117 1    
   229  115  236 1    
   230  116  237 1    
   231  116  238 1    
   232  116  239 1    
   233  117  118 2    
   234  117  119 am   BACKBONE|DICT|INTERRES
   235  119  120 1    
   236  119  240 1    
   237  120  121 1    
   238  120  124 1    
   239  120  241 1    
   240  121  122 am   BACKBONE|DICT|INTERRES
   241  121  123 2    
   242  122  242 1    
   243  122  243 1    
   244  124  125 1    
   245  124  244 1    
   246  124  245 1    
   247  125  126 1    
   248  126  246 1    
   249  126  247 1    
@<TRIPOS>SUBSTRUCTURE
     1 UNK         1 GROUP             0       ****    0 ROOT    
