@<TRIPOS>MOLECULE
3R540
247   249    1
SMALL
USER_CHARGES


@<TRIPOS>ATOM
      1 CA          4.3781  -13.9975  -43.6196 C.3       0 UNK        -0.1800 
      2 C           3.8222  -14.6320  -44.8851 C.2       0 UNK         0.5000 
      3 O           2.6455  -14.4377  -45.1959 O.2       0 UNK        -0.5000 
      4 N           4.6636  -15.3681  -45.6268 N.am      1 UNK        -0.5000 
      5 CA          4.3411  -16.0994  -46.8632 C.3       1 UNK         0.1400 
      6 C6          5.3752  -17.2327  -47.1427 C.3       23 UNK        -0.0398 
      7 S7          4.6107  -18.7926  -47.7097 S.3       23 UNK        -0.2404 
      8 C8          4.6930  -18.6634  -49.5254 C.3       23 UNK        -0.0205 
      9 C9          3.3168  -18.8257  -50.1563 C.ar      23 UNK        -0.0193 
     10 C10         2.3444  -17.8367  -49.9825 C.ar      23 UNK        -0.1150 
     11 C11         1.0742  -17.9743  -50.5449 C.ar      23 UNK        -0.0193 
     12 C12         0.7816  -19.1100  -51.3015 C.ar      23 UNK        -0.1150 
     13 C13         1.7449  -20.1029  -51.4972 C.ar      23 UNK        -0.0193 
     14 C14         3.0111  -19.9574  -50.9196 C.ar      23 UNK        -0.1150 
     15 C15         1.4147  -21.3195  -52.3504 C.3       23 UNK        -0.0205 
     16 S16         1.4315  -22.8740  -51.4040 S.3       23 UNK        -0.2404 
     17 C17         0.0699  -22.6255  -50.2139 C.3       23 UNK        -0.0398 
     18 CA          0.3517  -23.3738  -48.8905 C.3       11 UNK         0.1400 
     19 N           1.5403  -22.8623  -48.2076 N.am      11 UNK        -0.5000 
     20 C           2.2567  -23.5583  -47.3160 C.2       10 UNK         0.5000 
     21 O           2.0078  -24.7210  -46.9973 O.2       10 UNK        -0.5000 
     22 CA          3.3965  -22.7922  -46.6161 C.3       10 UNK         0.1400 
     23 CB          4.6692  -22.8141  -47.4756 C.3       10 UNK        -0.1800 
     24 N           3.0451  -21.4002  -46.3133 N.am      10 UNK        -0.5000 
     25 C           2.0056  -21.0233  -45.5580 C.2       9 UNK         0.5000 
     26 O           1.2390  -21.8253  -45.0193 O.2       9 UNK        -0.5000 
     27 CA          1.7361  -19.5079  -45.4762 C.3       9 UNK         0.1400 
     28 CB          1.0581  -19.0223  -46.7694 C.3       9 UNK        -0.1800 
     29 N           0.8806  -19.1256  -44.3562 N.am      9 UNK        -0.5000 
     30 C           1.1190  -19.3179  -43.0560 C.2       8 UNK         0.5000 
     31 O           2.1549  -19.8264  -42.6243 O.2       8 UNK        -0.5000 
     32 CA          0.0378  -18.8624  -42.0486 C.3       8 UNK         0.1400 
     33 CB          0.4610  -17.5431  -41.3781 C.3       8 UNK        -0.1800 
     34 N          -1.3547  -18.7658  -42.5298 N.am      8 UNK        -0.5000 
     35 C          -1.8782  -17.9943  -43.4948 C.2       7 UNK         0.5000 
     36 O          -1.2091  -17.3165  -44.2737 O.2       7 UNK        -0.5000 
     37 CA         -3.4129  -17.9682  -43.5814 C.3       7 UNK         0.1400 
     38 CB         -3.9877  -17.0617  -42.4810 C.3       7 UNK        -0.1800 
     39 N          -3.8409  -17.4414  -44.8755 N.am      7 UNK        -0.5000 
     40 C          -4.4597  -18.1444  -45.8323 C.2       6 UNK         0.5000 
     41 O          -4.7821  -19.3261  -45.7059 O.2       6 UNK        -0.5000 
     42 CA         -4.8048  -17.4188  -47.1502 C.3       6 UNK         0.1400 
     43 CB         -6.3205  -17.1972  -47.2705 C.3       6 UNK        -0.1800 
     44 N          -4.1277  -16.1356  -47.3320 N.am      6 UNK        -0.5000 
     45 C          -2.8246  -15.9849  -47.6022 C.2       5 UNK         0.5000 
     46 O          -2.0414  -16.9275  -47.7123 O.2       5 UNK        -0.5000 
     47 CA         -2.3070  -14.5407  -47.7763 C.3       5 UNK         0.1400 
     48 CB         -3.4210  -13.5049  -48.0536 C.3       5 UNK        -0.1800 
     49 N          -1.4904  -14.0931  -46.6458 N.am      5 UNK        -0.5000 
     50 C          -1.8322  -14.0628  -45.3477 C.2       4 UNK         0.5000 
     51 O          -2.9044  -14.4847  -44.9095 O.2       4 UNK        -0.5000 
     52 CA         -0.8274  -13.4144  -44.3718 C.3       4 UNK         0.1400 
     53 CB         -0.1993  -14.4518  -43.4353 C.3       4 UNK        -0.1800 
     54 N           0.2462  -12.6827  -45.0476 N.am      4 UNK        -0.5000 
     55 C           0.1272  -11.4255  -45.4954 C.2       3 UNK         0.5000 
     56 O          -0.8986  -10.7534  -45.3821 O.2       3 UNK        -0.5000 
     57 CA          1.3561  -10.8122  -46.1891 C.3       3 UNK         0.1400 
     58 CB          2.2995  -10.1847  -45.1513 C.3       3 UNK        -0.1800 
     59 N           2.1123  -11.7627  -47.0052 N.am      3 UNK        -0.5000 
     60 C           1.6692  -12.3416  -48.1307 C.2       2 UNK         0.5000 
     61 O           0.5271  -12.2143  -48.5692 O.2       2 UNK        -0.5000 
     62 CA          2.6783  -13.2347  -48.8620 C.3       2 UNK         0.1400 
     63 CB          3.7995  -12.3725  -49.4807 C.3       2 UNK        -0.1800 
     64 N           3.1822  -14.2147  -47.9037 N.am      2 UNK        -0.5000 
     65 C           4.1245  -15.1458  -48.0676 C.2       1 UNK         0.5000 
     66 O           4.7932  -15.2653  -49.0937 O.2       1 UNK        -0.5000 
     67 C          -0.8898  -23.3759  -47.9747 C.2       11 UNK         0.5000 
     68 O          -1.8238  -24.1263  -48.2506 O.2       11 UNK        -0.5000 
     69 N          -0.9065  -22.5646  -46.9056 N.am      12 UNK        -0.5000 
     70 CA         -1.9886  -22.5484  -45.9160 C.3       12 UNK         0.1400 
     71 CB         -1.9982  -21.2225  -45.1417 C.3       12 UNK        -0.1800 
     72 C          -1.8820  -23.7462  -44.9629 C.2       12 UNK         0.5000 
     73 O          -2.9034  -24.3472  -44.6339 O.2       12 UNK        -0.5000 
     74 N          -0.6462  -24.1266  -44.6085 N.am      13 UNK        -0.5000 
     75 CA         -0.3323  -25.3589  -43.8800 C.3       13 UNK         0.1400 
     76 CB          1.1574  -25.3604  -43.5064 C.3       13 UNK        -0.1800 
     77 C          -0.7051  -26.6310  -44.6718 C.2       13 UNK         0.5000 
     78 O          -1.0998  -27.6298  -44.0700 O.2       13 UNK        -0.5000 
     79 N          -0.6165  -26.5524  -46.0071 N.am      14 UNK        -0.5000 
     80 CA         -1.0597  -27.5847  -46.9475 C.3       14 UNK         0.1400 
     81 CB         -0.2628  -27.4294  -48.2531 C.3       14 UNK        -0.1800 
     82 C          -2.5771  -27.5416  -47.2388 C.2       14 UNK         0.5000 
     83 O          -3.0749  -28.4336  -47.9263 O.2       14 UNK        -0.5000 
     84 N          -3.2760  -26.5075  -46.7427 N.am      15 UNK        -0.5000 
     85 CA         -4.6997  -26.1979  -46.9363 C.3       15 UNK         0.1400 
     86 CB         -5.5940  -27.3012  -46.3341 C.3       15 UNK        -0.1800 
     87 C          -5.0816  -25.8480  -48.3932 C.2       15 UNK         0.5000 
     88 O          -6.2586  -25.9129  -48.7512 O.2       15 UNK        -0.5000 
     89 N          -4.0912  -25.4554  -49.2029 N.am      16 UNK        -0.5000 
     90 CA         -4.2474  -25.0463  -50.5971 C.3       16 UNK         0.1400 
     91 CB         -2.9895  -25.4557  -51.3777 C.3       16 UNK        -0.1800 
     92 C          -4.4911  -23.5338  -50.7320 C.2       16 UNK         0.5000 
     93 O          -5.1282  -23.1090  -51.6982 O.2       16 UNK        -0.5000 
     94 N          -4.0102  -22.7366  -49.7631 N.am      17 UNK        -0.5000 
     95 CA         -4.1076  -21.2702  -49.7758 C.3       17 UNK         0.1400 
     96 CB         -3.1485  -20.6433  -48.7579 C.3       17 UNK        -0.1800 
     97 C          -5.5345  -20.7115  -49.6109 C.2       17 UNK         0.5000 
     98 O          -5.7371  -19.5142  -49.8018 O.2       17 UNK        -0.5000 
     99 N          -6.5098  -21.5828  -49.3188 N.am      18 UNK        -0.5000 
    100 CA        -7.9397  -21.2856  -49.4175 C.3       18 UNK         0.1400 
    101 CB        -8.7364  -22.4801  -48.8721 C.3       18 UNK        -0.1800 
    102 C         -8.3762  -20.9511  -50.8612 C.2       18 UNK         0.5000 
    103 O         -9.3112  -20.1705  -51.0426 O.2       18 UNK        -0.5000 
    104 N         -7.6749  -21.5236  -51.8507 N.am      19 UNK        -0.5000 
    105 CA        -7.7917  -21.1852  -53.2662 C.3       19 UNK         0.1400 
    106 CB        -7.8703  -22.4781  -54.0943 C.3       19 UNK        -0.1800 
    107 C         -6.5931  -20.3260  -53.7016 C.2       19 UNK         0.5000 
    108 O         -6.7858  -19.2521  -54.2732 O.2       19 UNK        -0.5000 
    109 N         -5.3730  -20.7956  -53.4058 N.am      20 UNK        -0.5000 
    110 CA        -4.1056  -20.1562  -53.7653 C.3       20 UNK         0.1400 
    111 CB        -3.0245  -21.2474  -53.8856 C.3       20 UNK        -0.1800 
    112 C         -3.7168  -19.0498  -52.7631 C.2       20 UNK         0.5000 
    113 O         -2.6584  -19.1262  -52.1405 O.2       20 UNK        -0.5000 
    114 N         -4.5906  -18.0495  -52.5984 N.am      21 UNK        -0.5000 
    115 CA        -4.4659  -16.9809  -51.5989 C.3       21 UNK         0.1400 
    116 CB        -5.8124  -16.2502  -51.4843 C.3       21 UNK        -0.1800 
    117 C         -3.3165  -15.9826  -51.8524 C.2       21 UNK         0.5000 
    118 O         -3.0287  -15.1760  -50.9709 O.2       21 UNK        -0.5000 
    119 N         -2.7057  -16.0418  -53.0427 N.am      22 UNK        -0.5000 
    120 CA        -1.5056  -15.3299  -53.5264 C.3       22 UNK         0.1400 
    121 C         -1.5247  -13.7693  -53.5316 C.2       22 UNK         0.5000 
    122 N         -2.4344  -13.1065  -52.8331 N.am      22 UNK        -0.7600 
    123 O         -0.7198  -13.1508  -54.2229 O.2       22 UNK        -0.5000 
    124 C124       -0.1793  -15.9280  -52.9712 C.3       23 UNK        -0.0398 
    125 S125        0.2999  -15.4040  -51.2850 S.3       23 UNK        -0.2404 
    126 C126        0.0147  -16.9102  -50.3039 C.3       23 UNK        -0.0205 
    127 H127        3.8009  -14.3243  -42.7547 H         1 UNK         0.0600 
    128 H128        4.3108  -12.9117  -43.6846 H         1 UNK         0.0600 
    129 H129        5.4217  -14.2664  -43.4547 H         1 UNK         0.0600 
    130 H130        5.6255  -15.4403  -45.3271 H         1 UNK         0.3000 
    131 H131        3.3737  -16.5746  -46.6842 H         1 UNK         0.0600 
    132 H132        5.8902  -17.4946  -46.2174 H         1 UNK         0.0800 
    133 H133        6.1743  -16.9273  -47.8200 H         1 UNK         0.0800 
    134 H134        5.3773  -19.4279  -49.8958 H         1 UNK         0.0800 
    135 H135        5.1172  -17.7083  -49.8326 H         1 UNK         0.0800 
    136 H136        2.5669  -16.9601  -49.3965 H         1 UNK         0.1150 
    137 H137       -0.1986  -19.2214  -51.7396 H         1 UNK         0.1150 
    138 H138        3.7556  -20.7271  -51.0675 H         1 UNK         0.1150 
    139 H139        0.4402  -21.2080  -52.8292 H         1 UNK         0.0800 
    140 H140        2.1448  -21.3920  -53.1575 H         1 UNK         0.0800 
    141 H141       -0.8496  -22.9808  -50.6817 H         1 UNK         0.0800 
    142 H142       -0.0743  -21.5613  -50.0251 H         1 UNK         0.0800 
    143 H143        0.5388  -24.4185  -49.1466 H         1 UNK         0.0600 
    144 H144        1.8249  -21.9205  -48.4330 H         1 UNK         0.3000 
    145 H145        3.6057  -23.2980  -45.6713 H         1 UNK         0.0600 
    146 H146        5.5040  -22.3433  -46.9560 H         1 UNK         0.0600 
    147 H147        4.9666  -23.8376  -47.7076 H         1 UNK         0.0600 
    148 H148        4.5259  -22.2902  -48.4218 H         1 UNK         0.0600 
    149 H149        3.6224  -20.6873  -46.7415 H         1 UNK         0.3000 
    150 H150        2.6918  -18.9953  -45.3550 H         1 UNK         0.0600 
    151 H151        0.0558  -19.4372  -46.8814 H         1 UNK         0.0600 
    152 H152        1.6263  -19.3106  -47.6531 H         1 UNK         0.0600 
    153 H153        0.9679  -17.9356  -46.7838 H         1 UNK         0.0600 
    154 H154        0.0365  -18.6080  -44.5868 H         1 UNK         0.3000 
    155 H155        0.0162  -19.6279  -41.2715 H         1 UNK         0.0600 
    156 H156        0.5825  -16.7458  -42.1090 H         1 UNK         0.0600 
    157 H157        1.4155  -17.6561  -40.8627 H         1 UNK         0.0600 
    158 H158       -0.2713  -17.2174  -40.6392 H         1 UNK         0.0600 
    159 H159       -2.0063  -19.3129  -41.9850 H         1 UNK         0.3000 
    160 H160       -3.7848  -18.9835  -43.4314 H         1 UNK         0.0600 
    161 H161       -3.6205  -16.0383  -42.5719 H         1 UNK         0.0600 
    162 H162       -3.7151  -17.4216  -41.4883 H         1 UNK         0.0600 
    163 H163       -5.0765  -17.0307  -42.5266 H         1 UNK         0.0600 
    164 H164       -3.5374  -16.4943  -45.0795 H         1 UNK         0.3000 
    165 H165       -4.4986  -18.0718  -47.9658 H         1 UNK         0.0600 
    166 H166       -6.5790  -16.7654  -48.2378 H         1 UNK         0.0600 
    167 H167       -6.8602  -18.1417  -47.1881 H         1 UNK         0.0600 
    168 H168       -6.6944  -16.5332  -46.4904 H         1 UNK         0.0600 
    169 H169       -4.6916  -15.3061  -47.2199 H         1 UNK         0.3000 
    170 H170       -1.6486  -14.5557  -48.6464 H         1 UNK         0.0600 
    171 H171       -4.0435  -13.8071  -48.8964 H         1 UNK         0.0600 
    172 H172       -4.0742  -13.3559  -47.1934 H         1 UNK         0.0600 
    173 H173       -2.9893  -12.5368  -48.3085 H         1 UNK         0.0600 
    174 H174       -0.5890  -13.7110  -46.8933 H         1 UNK         0.3000 
    175 H175       -1.3932  -12.7165  -43.7509 H         1 UNK         0.0600 
    176 H176       -0.9676  -14.9711  -42.8616 H         1 UNK         0.0600 
    177 H177        0.3638  -15.2007  -43.9926 H         1 UNK         0.0600 
    178 H178        0.4794  -13.9845  -42.7219 H         1 UNK         0.0600 
    179 H179        1.1257  -13.1776  -45.1634 H         1 UNK         0.3000 
    180 H180        0.9990  -10.0182  -46.8483 H         1 UNK         0.0600 
    181 H181        2.7151  -10.9364  -44.4790 H         1 UNK         0.0600 
    182 H182        1.7738   -9.4511  -44.5386 H         1 UNK         0.0600 
    183 H183        3.1298   -9.6681  -45.6332 H         1 UNK         0.0600 
    184 H184        3.0645  -11.9372  -46.7198 H         1 UNK         0.3000 
    185 H185        2.1554  -13.7662  -49.6577 H         1 UNK         0.0600 
    186 H186        3.3831  -11.5411  -50.0512 H         1 UNK         0.0600 
    187 H187        4.4568  -11.9523  -48.7189 H         1 UNK         0.0600 
    188 H188        4.4137  -12.9482  -50.1722 H         1 UNK         0.0600 
    189 H189        2.7230  -14.2051  -46.9945 H         1 UNK         0.3000 
    190 H190       -0.0783  -22.0341  -46.6713 H         1 UNK         0.3000 
    191 H191       -2.9427  -22.6345  -46.4393 H         1 UNK         0.0600 
    192 H192       -1.9862  -20.3644  -45.8135 H         1 UNK         0.0600 
    193 H193       -2.8998  -21.1444  -44.5337 H         1 UNK         0.0600 
    194 H194       -1.1497  -21.1344  -44.4656 H         1 UNK         0.0600 
    195 H195        0.1352  -23.5364  -44.8756 H         1 UNK         0.3000 
    196 H196       -0.9163  -25.3600  -42.9574 H         1 UNK         0.0600 
    197 H197        1.4116  -26.2448  -42.9209 H         1 UNK         0.0600 
    198 H198        1.4143  -24.4871  -42.9064 H         1 UNK         0.0600 
    199 H199        1.7955  -25.3576  -44.3902 H         1 UNK         0.0600 
    200 H200       -0.2330  -25.7087  -46.4095 H         1 UNK         0.3000 
    201 H201       -0.8334  -28.5661  -46.5259 H         1 UNK         0.0600 
    202 H202       -0.4668  -28.2560  -48.9347 H         1 UNK         0.0600 
    203 H203        0.8113  -27.4209  -48.0656 H         1 UNK         0.0600 
    204 H204       -0.5213  -26.5087  -48.7751 H         1 UNK         0.0600 
    205 H205       -2.7766  -25.8375  -46.1717 H         1 UNK         0.3000 
    206 H206       -4.8819  -25.2880  -46.3631 H         1 UNK         0.0600 
    207 H207       -5.3101  -27.5198  -45.3046 H         1 UNK         0.0600 
    208 H208       -6.6403  -26.9939  -46.3214 H         1 UNK         0.0600 
    209 H209       -5.5349  -28.2287  -46.9038 H         1 UNK         0.0600 
    210 H210       -3.1633  -25.3438  -48.8048 H         1 UNK         0.3000 
    211 H211       -5.1033  -25.5610  -51.0387 H         1 UNK         0.0600 
    212 H212       -2.0888  -25.0067  -50.9595 H         1 UNK         0.0600 
    213 H213       -3.0578  -25.1488  -52.4223 H         1 UNK         0.0600 
    214 H214       -2.8568  -26.5377  -51.3646 H         1 UNK         0.0600 
    215 H215       -3.4787  -23.1619  -49.0131 H         1 UNK         0.3000 
    216 H216       -3.7692  -20.9608  -50.7606 H         1 UNK         0.0600 
    217 H217       -3.0885  -19.5645  -48.9009 H         1 UNK         0.0600 
    218 H218       -2.1359  -21.0171  -48.8792 H         1 UNK         0.0600 
    219 H219       -3.4753  -20.8213  -47.7350 H         1 UNK         0.0600 
    220 H220       -6.2560  -22.5468  -49.1624 H         1 UNK         0.3000 
    221 H221       -8.1494  -20.4138  -48.7941 H         1 UNK         0.0600 
    222 H222       -8.5430  -23.3886  -49.4444 H         1 UNK         0.0600 
    223 H223       -8.4844  -22.6799  -47.8304 H         1 UNK         0.0600 
    224 H224       -9.8090  -22.2862  -48.9150 H         1 UNK         0.0600 
    225 H225       -6.9099  -22.1417  -51.6049 H         1 UNK         0.3000 
    226 H226       -8.7017  -20.6108  -53.4516 H         1 UNK         0.0600 
    227 H227       -7.9356  -22.2557  -55.1601 H         1 UNK         0.0600 
    228 H228       -6.9968  -23.1137  -53.9430 H         1 UNK         0.0600 
    229 H229       -8.7537  -23.0588  -53.8287 H         1 UNK         0.0600 
    230 H230       -5.2970  -21.6739  -52.9001 H         1 UNK         0.3000 
    231 H231       -4.2084  -19.6844  -54.7447 H         1 UNK         0.0600 
    232 H232       -2.8616  -21.7643  -52.9392 H         1 UNK         0.0600 
    233 H233       -2.0694  -20.8207  -54.1947 H         1 UNK         0.0600 
    234 H234       -3.3007  -21.9948  -54.6295 H         1 UNK         0.0600 
    235 H235       -5.4500  -18.0798  -53.1352 H         1 UNK         0.3000 
    236 H236       -4.2558  -17.4492  -50.6351 H         1 UNK         0.0600 
    237 H237       -6.6090  -16.9403  -51.2046 H         1 UNK         0.0600 
    238 H238       -5.7747  -15.4751  -50.7175 H         1 UNK         0.0600 
    239 H239       -6.0922  -15.7730  -52.4242 H         1 UNK         0.0600 
    240 H240       -3.0798  -16.7165  -53.6926 H         1 UNK         0.3000 
    241 H241       -1.5066  -15.5764  -54.5889 H         1 UNK         0.0600 
    242 H242       -2.4513  -12.0995  -52.8480 H         1 UNK         0.3800 
    243 H243       -2.9920  -13.6229  -52.1625 H         1 UNK         0.3800 
    244 H244       -0.2218  -17.0163  -53.0166 H         1 UNK         0.0800 
    245 H245        0.6426  -15.6489  -53.6321 H         1 UNK         0.0800 
    246 H246        0.0324  -16.6370  -49.2488 H         1 UNK         0.0800 
    247 H247       -0.9847  -17.3010  -50.5015 H         1 UNK         0.0800 
@<TRIPOS>BOND
     1    1    2 1    
     2    1  127 1    
     3    1  128 1    
     4    1  129 1    
     5    2    3 2    
     6    2    4 am   BACKBONE|DICT|INTERRES
     7    4    5 1    
     8    4  130 1    
     9    5    6 1    
    10    5   65 1    
    11    5  131 1    
    12    6    7 1    
    13    6  132 1    
    14    6  133 1    
    15    7    8 1    
    16    8    9 1    
    17    8  134 1    
    18    8  135 1    
    19    9   10 ar   
    20    9   14 ar   
    21   10   11 ar   
    22   10  136 1    
    23   11   12 ar   
    24   11  126 1    
    25   12   13 ar   
    26   12  137 1    
    27   13   14 ar   
    28   13   15 1    
    29   14  138 1    
    30   15   16 1    
    31   15  139 1    
    32   15  140 1    
    33   16   17 1    
    34   17   18 1    
    35   17  141 1    
    36   17  142 1    
    37   18   19 1    
    38   18   67 1    
    39   18  143 1    
    40   19   20 am   BACKBONE|DICT|INTERRES
    41   19  144 1    
    42   20   21 2    
    43   20   22 1    
    44   22   23 1    
    45   22   24 1    
    46   22  145 1    
    47   23  146 1    
    48   23  147 1    
    49   23  148 1    
    50   24   25 am   BACKBONE|DICT|INTERRES
    51   24  149 1    
    52   25   26 2    
    53   25   27 1    
    54   27   28 1    
    55   27   29 1    
    56   27  150 1    
    57   28  151 1    
    58   28  152 1    
    59   28  153 1    
    60   29   30 am   BACKBONE|DICT|INTERRES
    61   29  154 1    
    62   30   31 2    
    63   30   32 1    
    64   32   33 1    
    65   32   34 1    
    66   32  155 1    
    67   33  156 1    
    68   33  157 1    
    69   33  158 1    
    70   34   35 am   BACKBONE|DICT|INTERRES
    71   34  159 1    
    72   35   36 2    
    73   35   37 1    
    74   37   38 1    
    75   37   39 1    
    76   37  160 1    
    77   38  161 1    
    78   38  162 1    
    79   38  163 1    
    80   39   40 am   BACKBONE|DICT|INTERRES
    81   39  164 1    
    82   40   41 2    
    83   40   42 1    
    84   42   43 1    
    85   42   44 1    
    86   42  165 1    
    87   43  166 1    
    88   43  167 1    
    89   43  168 1    
    90   44   45 am   BACKBONE|DICT|INTERRES
    91   44  169 1    
    92   45   46 2    
    93   45   47 1    
    94   47   48 1    
    95   47   49 1    
    96   47  170 1    
    97   48  171 1    
    98   48  172 1    
    99   48  173 1    
   100   49   50 am   BACKBONE|DICT|INTERRES
   101   49  174 1    
   102   50   51 2    
   103   50   52 1    
   104   52   53 1    
   105   52   54 1    
   106   52  175 1    
   107   53  176 1    
   108   53  177 1    
   109   53  178 1    
   110   54   55 am   BACKBONE|DICT|INTERRES
   111   54  179 1    
   112   55   56 2    
   113   55   57 1    
   114   57   58 1    
   115   57   59 1    
   116   57  180 1    
   117   58  181 1    
   118   58  182 1    
   119   58  183 1    
   120   59   60 am   BACKBONE|DICT|INTERRES
   121   59  184 1    
   122   60   61 2    
   123   60   62 1    
   124   62   63 1    
   125   62   64 1    
   126   62  185 1    
   127   63  186 1    
   128   63  187 1    
   129   63  188 1    
   130   64   65 am   BACKBONE|DICT|INTERRES
   131   64  189 1    
   132   65   66 2    
   133   67   68 2    
   134   67   69 am   BACKBONE|DICT|INTERRES
   135   69   70 1    
   136   69  190 1    
   137   70   71 1    
   138   70   72 1    
   139   70  191 1    
   140   71  192 1    
   141   71  193 1    
   142   71  194 1    
   143   72   73 2    
   144   72   74 am   BACKBONE|DICT|INTERRES
   145   74   75 1    
   146   74  195 1    
   147   75   76 1    
   148   75   77 1    
   149   75  196 1    
   150   76  197 1    
   151   76  198 1    
   152   76  199 1    
   153   77   78 2    
   154   77   79 am   BACKBONE|DICT|INTERRES
   155   79   80 1    
   156   79  200 1    
   157   80   81 1    
   158   80   82 1    
   159   80  201 1    
   160   81  202 1    
   161   81  203 1    
   162   81  204 1    
   163   82   83 2    
   164   82   84 am   BACKBONE|DICT|INTERRES
   165   84   85 1    
   166   84  205 1    
   167   85   86 1    
   168   85   87 1    
   169   85  206 1    
   170   86  207 1    
   171   86  208 1    
   172   86  209 1    
   173   87   88 2    
   174   87   89 am   BACKBONE|DICT|INTERRES
   175   89   90 1    
   176   89  210 1    
   177   90   91 1    
   178   90   92 1    
   179   90  211 1    
   180   91  212 1    
   181   91  213 1    
   182   91  214 1    
   183   92   93 2    
   184   92   94 am   BACKBONE|DICT|INTERRES
   185   94   95 1    
   186   94  215 1    
   187   95   96 1    
   188   95   97 1    
   189   95  216 1    
   190   96  217 1    
   191   96  218 1    
   192   96  219 1    
   193   97   98 2    
   194   97   99 am   BACKBONE|DICT|INTERRES
   195   99  100 1    
   196   99  220 1    
   197  100  101 1    
   198  100  102 1    
   199  100  221 1    
   200  101  222 1    
   201  101  223 1    
   202  101  224 1    
   203  102  103 2    
   204  102  104 am   BACKBONE|DICT|INTERRES
   205  104  105 1    
   206  104  225 1    
   207  105  106 1    
   208  105  107 1    
   209  105  226 1    
   210  106  227 1    
   211  106  228 1    
   212  106  229 1    
   213  107  108 2    
   214  107  109 am   BACKBONE|DICT|INTERRES
   215  109  110 1    
   216  109  230 1    
   217  110  111 1    
   218  110  112 1    
   219  110  231 1    
   220  111  232 1    
   221  111  233 1    
   222  111  234 1    
   223  112  113 2    
   224  112  114 am   BACKBONE|DICT|INTERRES
   225  114  115 1    
   226  114  235 1    
   227  115  116 1    
   228  115  117 1    
   229  115  236 1    
   230  116  237 1    
   231  116  238 1    
   232  116  239 1    
   233  117  118 2    
   234  117  119 am   BACKBONE|DICT|INTERRES
   235  119  120 1    
   236  119  240 1    
   237  120  121 1    
   238  120  124 1    
   239  120  241 1    
   240  121  122 am   BACKBONE|DICT|INTERRES
   241  121  123 2    
   242  122  242 1    
   243  122  243 1    
   244  124  125 1    
   245  124  244 1    
   246  124  245 1    
   247  125  126 1    
   248  126  246 1    
   249  126  247 1    
@<TRIPOS>SUBSTRUCTURE
     1 UNK         1 GROUP             0       ****    0 ROOT    
