@<TRIPOS>MOLECULE
3R540
247   249    1
SMALL
USER_CHARGES


@<TRIPOS>ATOM
      1 CA         -1.9610  -15.2406  -44.1753 C.3       0 UNK        -0.1800 
      2 C          -2.2189  -13.8358  -44.6981 C.2       0 UNK         0.5000 
      3 O          -1.8506  -12.8577  -44.0470 O.2       0 UNK        -0.5000 
      4 N          -2.8660  -13.7317  -45.8629 N.am      1 UNK        -0.5000 
      5 CA         -3.2698  -12.4644  -46.4752 C.3       1 UNK         0.1400 
      6 C6         -4.3866  -12.6498  -47.5301 C.3       23 UNK        -0.0398 
      7 S7         -5.8380  -13.5401  -46.8696 S.3       23 UNK        -0.2404 
      8 C8         -5.9490  -14.9658  -47.9963 C.3       23 UNK        -0.0205 
      9 C9         -4.8012  -15.9525  -47.8261 C.ar      23 UNK        -0.0193 
     10 C10        -3.7364  -15.9593  -48.7329 C.ar      23 UNK        -0.1150 
     11 C11        -2.7295  -16.9234  -48.6384 C.ar      23 UNK        -0.0193 
     12 C12        -2.7846  -17.8750  -47.6191 C.ar      23 UNK        -0.1150 
     13 C13        -3.8451  -17.8863  -46.7072 C.ar      23 UNK        -0.0193 
     14 C14        -4.8437  -16.9121  -46.8094 C.ar      23 UNK        -0.1150 
     15 C15        -3.9743  -19.0104  -45.6862 C.3       23 UNK        -0.0205 
     16 S16        -2.4163  -19.3627  -44.8118 S.3       23 UNK        -0.2404 
     17 C17        -2.4440  -21.1825  -44.6908 C.3       23 UNK        -0.0398 
     18 CA         -1.8085  -21.8991  -45.9156 C.3       11 UNK         0.1400 
     19 N          -0.4037  -21.5127  -46.1299 N.am      11 UNK        -0.5000 
     20 C           0.2719  -21.6333  -47.2841 C.2       10 UNK         0.5000 
     21 O          -0.2217  -22.1325  -48.2935 O.2       10 UNK        -0.5000 
     22 CA          1.7361  -21.1573  -47.3457 C.3       10 UNK         0.1400 
     23 CB          1.9263  -20.1022  -48.4493 C.3       10 UNK        -0.1800 
     24 N           2.2060  -20.6007  -46.0797 N.am      10 UNK        -0.5000 
     25 C           2.9590  -21.2471  -45.1800 C.2       9 UNK         0.5000 
     26 O           3.3155  -22.4189  -45.3084 O.2       9 UNK        -0.5000 
     27 CA          3.4043  -20.4623  -43.9268 C.3       9 UNK         0.1400 
     28 CB          4.8794  -20.0507  -44.0519 C.3       9 UNK        -0.1800 
     29 N           2.6096  -19.2626  -43.6649 N.am      9 UNK        -0.5000 
     30 C           1.3194  -19.2574  -43.3055 C.2       8 UNK         0.5000 
     31 O           0.6655  -20.2775  -43.0874 O.2       8 UNK        -0.5000 
     32 CA          0.6399  -17.8777  -43.2433 C.3       8 UNK         0.1400 
     33 CB          0.8877  -17.2176  -41.8798 C.3       8 UNK        -0.1800 
     34 N           1.0690  -16.9773  -44.3193 N.am      8 UNK        -0.5000 
     35 C           0.9348  -17.2210  -45.6324 C.2       7 UNK         0.5000 
     36 O           0.4570  -18.2555  -46.0880 O.2       7 UNK        -0.5000 
     37 CA          1.4690  -16.1611  -46.6066 C.3       7 UNK         0.1400 
     38 CB          0.4354  -15.0514  -46.8437 C.3       7 UNK        -0.1800 
     39 N           2.7290  -15.5928  -46.1313 N.am      7 UNK        -0.5000 
     40 C           3.9191  -16.1899  -46.2879 C.2       6 UNK         0.5000 
     41 O           4.0865  -17.2193  -46.9419 O.2       6 UNK        -0.5000 
     42 CA          5.1233  -15.5519  -45.5703 C.3       6 UNK         0.1400 
     43 CB          5.8347  -14.5429  -46.4824 C.3       6 UNK        -0.1800 
     44 N           4.7567  -14.8974  -44.3139 N.am      6 UNK        -0.5000 
     45 C           4.3800  -15.5565  -43.2089 C.2       5 UNK         0.5000 
     46 O           4.3109  -16.7840  -43.1367 O.2       5 UNK        -0.5000 
     47 CA          3.9729  -14.7020  -41.9921 C.3       5 UNK         0.1400 
     48 CB          5.2016  -14.3830  -41.1278 C.3       5 UNK        -0.1800 
     49 N           3.2883  -13.4519  -42.3335 N.am      5 UNK        -0.5000 
     50 C           2.1729  -13.3464  -43.0691 C.2       4 UNK         0.5000 
     51 O           1.6088  -14.3094  -43.5876 O.2       4 UNK        -0.5000 
     52 CA          1.5975  -11.9362  -43.3019 C.3       4 UNK         0.1400 
     53 CB          2.2851  -10.8237  -42.4785 C.3       4 UNK        -0.1800 
     54 N           1.5927  -11.5879  -44.7247 N.am      4 UNK        -0.5000 
     55 C           2.6463  -11.5390  -45.5547 C.2       3 UNK         0.5000 
     56 O           3.7943  -11.8358  -45.2191 O.2       3 UNK        -0.5000 
     57 CA          2.3841  -11.0850  -47.0052 C.3       3 UNK         0.1400 
     58 CB          2.8665  -12.1360  -48.0174 C.3       3 UNK        -0.1800 
     59 N           0.9759  -10.7759  -47.2706 N.am      3 UNK        -0.5000 
     60 C           0.4000   -9.5862  -47.0655 C.2       2 UNK         0.5000 
     61 O           0.9874   -8.6241  -46.5699 O.2       2 UNK        -0.5000 
     62 CA         -1.0755   -9.4327  -47.4843 C.3       2 UNK         0.1400 
     63 CB         -1.2129   -9.3735  -49.0182 C.3       2 UNK        -0.1800 
     64 N          -2.0026  -10.4157  -46.9051 N.am      2 UNK        -0.5000 
     65 C          -2.0642  -11.7398  -47.1049 C.2       1 UNK         0.5000 
     66 O          -1.2571  -12.3764  -47.7858 O.2       1 UNK        -0.5000 
     67 C          -2.0020  -23.4387  -45.8471 C.2       11 UNK         0.5000 
     68 O          -2.5857  -23.9481  -44.8888 O.2       11 UNK        -0.5000 
     69 N          -1.5086  -24.1634  -46.8581 N.am      12 UNK        -0.5000 
     70 CA         -1.6237  -25.6115  -47.0065 C.3       12 UNK         0.1400 
     71 CB         -0.4640  -26.1181  -47.8798 C.3       12 UNK        -0.1800 
     72 C          -2.9867  -25.9722  -47.6191 C.2       12 UNK         0.5000 
     73 O          -3.1711  -25.8179  -48.8274 O.2       12 UNK        -0.5000 
     74 N          -3.9219  -26.4343  -46.7775 N.am      13 UNK        -0.5000 
     75 CA         -5.3096  -26.7613  -47.1322 C.3       13 UNK         0.1400 
     76 CB         -6.0507  -27.2490  -45.8789 C.3       13 UNK        -0.1800 
     77 C          -5.4558  -27.7776  -48.2786 C.2       13 UNK         0.5000 
     78 O          -6.3397  -27.6181  -49.1212 O.2       13 UNK        -0.5000 
     79 N          -4.5508  -28.7640  -48.3230 N.am      14 UNK        -0.5000 
     80 CA         -4.4756  -29.7940  -49.3623 C.3       14 UNK         0.1400 
     81 CB         -3.4524  -30.8555  -48.9295 C.3       14 UNK        -0.1800 
     82 C          -4.1265  -29.2527  -50.7651 C.2       14 UNK         0.5000 
     83 O          -4.4056  -29.9307  -51.7546 O.2       14 UNK        -0.5000 
     84 N          -3.5324  -28.0541  -50.8286 N.am      15 UNK        -0.5000 
     85 CA         -3.1392  -27.3670  -52.0576 C.3       15 UNK         0.1400 
     86 CB         -1.6581  -26.9663  -51.9313 C.3       15 UNK        -0.1800 
     87 C          -4.0353  -26.1471  -52.3546 C.2       15 UNK         0.5000 
     88 O          -3.6944  -25.3726  -53.2465 O.2       15 UNK        -0.5000 
     89 N          -5.1495  -25.9962  -51.6180 N.am      16 UNK        -0.5000 
     90 CA         -6.0699  -24.8529  -51.6057 C.3       16 UNK         0.1400 
     91 CB         -6.6744  -24.5773  -52.9980 C.3       16 UNK        -0.1800 
     92 C          -5.3848  -23.6202  -50.9854 C.2       16 UNK         0.5000 
     93 O          -4.8142  -22.7933  -51.7012 O.2       16 UNK        -0.5000 
     94 N          -5.4337  -23.5695  -49.6461 N.am      17 UNK        -0.5000 
     95 CA         -4.6775  -22.6951  -48.7426 C.3       17 UNK         0.1400 
     96 CB         -5.2564  -22.8218  -47.3223 C.3       17 UNK        -0.1800 
     97 C          -4.5910  -21.2106  -49.1302 C.2       17 UNK         0.5000 
     98 O          -3.5104  -20.6365  -49.0399 O.2       17 UNK        -0.5000 
     99 N          -5.7256  -20.6248  -49.5266 N.am      18 UNK        -0.5000 
    100 CA        -5.8493  -19.2039  -49.8598 C.3       18 UNK         0.1400 
    101 CB        -7.1223  -18.6598  -49.1880 C.3       18 UNK        -0.1800 
    102 C         -5.8594  -18.9458  -51.3797 C.2       18 UNK         0.5000 
    103 O         -6.1695  -17.8275  -51.7946 O.2       18 UNK        -0.5000 
    104 N         -5.5577  -19.9717  -52.1852 N.am      19 UNK        -0.5000 
    105 CA        -5.5569  -19.9210  -53.6416 C.3       19 UNK         0.1400 
    106 CB        -6.7660  -20.7170  -54.1721 C.3       19 UNK        -0.1800 
    107 C         -4.1955  -20.4112  -54.1596 C.2       19 UNK         0.5000 
    108 O         -3.1998  -19.7055  -53.9942 O.2       19 UNK        -0.5000 
    109 N         -4.1663  -21.5903  -54.7949 N.am      20 UNK        -0.5000 
    110 CA        -2.9980  -22.1568  -55.4725 C.3       20 UNK         0.1400 
    111 CB        -3.4227  -23.4178  -56.2399 C.3       20 UNK        -0.1800 
    112 C         -1.7944  -22.4445  -54.5542 C.2       20 UNK         0.5000 
    113 O         -0.6587  -22.4120  -55.0327 O.2       20 UNK        -0.5000 
    114 N         -2.0431  -22.6787  -53.2577 N.am      21 UNK        -0.5000 
    115 CA        -1.0088  -22.9182  -52.2492 C.3       21 UNK         0.1400 
    116 CB        -1.6694  -23.3401  -50.9333 C.3       21 UNK        -0.1800 
    117 C         -0.0824  -21.7081  -52.0123 C.2       21 UNK         0.5000 
    118 O          1.0652  -21.9046  -51.6118 O.2       21 UNK        -0.5000 
    119 N         -0.5759  -20.4927  -52.2923 N.am      22 UNK        -0.5000 
    120 CA         0.1762  -19.2314  -52.1849 C.3       22 UNK         0.1400 
    121 C          1.3147  -19.0663  -53.2369 C.2       22 UNK         0.5000 
    122 N          1.3906  -19.8861  -54.2802 N.am      22 UNK        -0.7600 
    123 O          2.1479  -18.1746  -53.1025 O.2       22 UNK        -0.5000 
    124 C124       -0.7504  -17.9858  -52.2062 C.3       23 UNK        -0.0398 
    125 S125       -2.1527  -18.0831  -51.0442 S.3       23 UNK        -0.2404 
    126 C126       -1.6298  -16.9946  -49.6847 C.3       23 UNK        -0.0205 
    127 H127       -1.9771  -15.9810  -44.9757 H         1 UNK         0.0600 
    128 H128       -0.9880  -15.2822  -43.6894 H         1 UNK         0.0600 
    129 H129       -2.7184  -15.5138  -43.4410 H         1 UNK         0.0600 
    130 H130       -3.1368  -14.5649  -46.3662 H         1 UNK         0.3000 
    131 H131       -3.6733  -11.8320  -45.6810 H         1 UNK         0.0600 
    132 H132       -4.7324  -11.6772  -47.8848 H         1 UNK         0.0800 
    133 H133       -4.0033  -13.1660  -48.4107 H         1 UNK         0.0800 
    134 H134       -6.8931  -15.4803  -47.8113 H         1 UNK         0.0800 
    135 H135       -6.0006  -14.6111  -49.0270 H         1 UNK         0.0800 
    136 H136       -3.7127  -15.2451  -49.5438 H         1 UNK         0.1150 
    137 H137       -2.0280  -18.6467  -47.5721 H         1 UNK         0.1150 
    138 H138       -5.6818  -16.9265  -46.1268 H         1 UNK         0.1150 
    139 H139       -4.7443  -18.7819  -44.9480 H         1 UNK         0.0800 
    140 H140       -4.3085  -19.8972  -46.2219 H         1 UNK         0.0800 
    141 H141       -3.4790  -21.4965  -44.5452 H         1 UNK         0.0800 
    142 H142       -1.9143  -21.4626  -43.7787 H         1 UNK         0.0800 
    143 H143       -2.3649  -21.5695  -46.7941 H         1 UNK         0.0600 
    144 H144        0.0619  -21.0804  -45.3435 H         1 UNK         0.3000 
    145 H145        2.3418  -22.0250  -47.6141 H         1 UNK         0.0600 
    146 H146        2.9408  -19.7033  -48.4496 H         1 UNK         0.0600 
    147 H147        1.7508  -20.5390  -49.4316 H         1 UNK         0.0600 
    148 H148        1.2358  -19.2662  -48.3405 H         1 UNK         0.0600 
    149 H149        1.8926  -19.6567  -45.8807 H         1 UNK         0.3000 
    150 H150        3.3039  -21.1299  -43.0688 H         1 UNK         0.0600 
    151 H151        5.5172  -20.9184  -44.2252 H         1 UNK         0.0600 
    152 H152        5.2320  -19.5654  -43.1415 H         1 UNK         0.0600 
    153 H153        5.0322  -19.3576  -44.8806 H         1 UNK         0.0600 
    154 H154        3.0839  -18.3723  -43.7728 H         1 UNK         0.3000 
    155 H155       -0.4344  -18.0209  -43.3491 H         1 UNK         0.0600 
    156 H156        0.4411  -16.2247  -41.8272 H         1 UNK         0.0600 
    157 H157        1.9520  -17.1235  -41.6698 H         1 UNK         0.0600 
    158 H158        0.4511  -17.8139  -41.0778 H         1 UNK         0.0600 
    159 H159        1.4247  -16.0681  -44.0329 H         1 UNK         0.3000 
    160 H160        1.6368  -16.6584  -47.5646 H         1 UNK         0.0600 
    161 H161        0.3771  -14.3608  -46.0031 H         1 UNK         0.0600 
    162 H162       -0.5604  -15.4670  -47.0023 H         1 UNK         0.0600 
    163 H163        0.6743  -14.4753  -47.7358 H         1 UNK         0.0600 
    164 H164        2.6634  -14.7936  -45.5152 H         1 UNK         0.3000 
    165 H165        5.8290  -16.3538  -45.3421 H         1 UNK         0.0600 
    166 H166        5.1965  -13.6907  -46.7106 H         1 UNK         0.0600 
    167 H167        6.7442  -14.1639  -46.0162 H         1 UNK         0.0600 
    168 H168        6.1213  -15.0035  -47.4287 H         1 UNK         0.0600 
    169 H169        4.7448  -13.8854  -44.3091 H         1 UNK         0.3000 
    170 H170        3.2833  -15.2924  -41.3884 H         1 UNK         0.0600 
    171 H171        5.7217  -15.2965  -40.8360 H         1 UNK         0.0600 
    172 H172        5.9160  -13.7541  -41.6605 H         1 UNK         0.0600 
    173 H173        4.9167  -13.8666  -40.2110 H         1 UNK         0.0600 
    174 H174        3.7016  -12.6033  -41.9755 H         1 UNK         0.3000 
    175 H175        0.5537  -11.9807  -42.9888 H         1 UNK         0.0600 
    176 H176        1.7922   -9.8647  -42.6390 H         1 UNK         0.0600 
    177 H177        2.2315  -11.0332  -41.4094 H         1 UNK         0.0600 
    178 H178        3.3354  -10.6991  -42.7443 H         1 UNK         0.0600 
    179 H179        0.6869  -11.3738  -45.1155 H         1 UNK         0.3000 
    180 H180        2.9762  -10.1818  -47.1666 H         1 UNK         0.0600 
    181 H181        2.4679  -13.1246  -47.7991 H         1 UNK         0.0600 
    182 H182        3.9535  -12.2122  -48.0043 H         1 UNK         0.0600 
    183 H183        2.5781  -11.8718  -49.0349 H         1 UNK         0.0600 
    184 H184        0.3900  -11.5250  -47.6337 H         1 UNK         0.3000 
    185 H185       -1.4037   -8.4660  -47.0987 H         1 UNK         0.0600 
    186 H186       -2.2411   -9.1642  -49.3133 H         1 UNK         0.0600 
    187 H187       -0.5886   -8.5818  -49.4342 H         1 UNK         0.0600 
    188 H188       -0.9120  -10.3072  -49.4941 H         1 UNK         0.0600 
    189 H189       -2.7004  -10.0090  -46.2972 H         1 UNK         0.3000 
    190 H190       -1.0559  -23.6570  -47.6155 H         1 UNK         0.3000 
    191 H191       -1.5360  -26.0856  -46.0267 H         1 UNK         0.0600 
    192 H192        0.4984  -25.9153  -47.4097 H         1 UNK         0.0600 
    193 H193       -0.5316  -27.1959  -48.0329 H         1 UNK         0.0600 
    194 H194       -0.4587  -25.6471  -48.8629 H         1 UNK         0.0600 
    195 H195       -3.6883  -26.5041  -45.7970 H         1 UNK         0.3000 
    196 H196       -5.7922  -25.8441  -47.4691 H         1 UNK         0.0600 
    197 H197       -7.0912  -27.4856  -46.1059 H         1 UNK         0.0600 
    198 H198       -6.0557  -26.4845  -45.1016 H         1 UNK         0.0600 
    199 H199       -5.5923  -28.1475  -45.4640 H         1 UNK         0.0600 
    200 H200       -3.8513  -28.8030  -47.5962 H         1 UNK         0.3000 
    201 H201       -5.4555  -30.2708  -49.4330 H         1 UNK         0.0600 
    202 H202       -3.7302  -31.3073  -47.9771 H         1 UNK         0.0600 
    203 H203       -2.4535  -30.4304  -48.8225 H         1 UNK         0.0600 
    204 H204       -3.3894  -31.6608  -49.6626 H         1 UNK         0.0600 
    205 H205       -3.3731  -27.5341  -49.9721 H         1 UNK         0.3000 
    206 H206       -3.2315  -28.0336  -52.9170 H         1 UNK         0.0600 
    207 H207       -1.4888  -26.3222  -51.0689 H         1 UNK         0.0600 
    208 H208       -1.0245  -27.8457  -51.8164 H         1 UNK         0.0600 
    209 H209       -1.3109  -26.4322  -52.8167 H         1 UNK         0.0600 
    210 H210       -5.3316  -26.6966  -50.9103 H         1 UNK         0.3000 
    211 H211       -6.8965  -25.1388  -50.9531 H         1 UNK         0.0600 
    212 H212       -5.9396  -24.1898  -53.7037 H         1 UNK         0.0600 
    213 H213       -7.4761  -23.8423  -52.9266 H         1 UNK         0.0600 
    214 H214       -7.1034  -25.4829  -53.4266 H         1 UNK         0.0600 
    215 H215       -5.9398  -24.3098  -49.1856 H         1 UNK         0.3000 
    216 H216       -3.6554  -23.0752  -48.7204 H         1 UNK         0.0600 
    217 H217       -5.0664  -23.8043  -46.8977 H         1 UNK         0.0600 
    218 H218       -6.3329  -22.6484  -47.3081 H         1 UNK         0.0600 
    219 H219       -4.8055  -22.1025  -46.6406 H         1 UNK         0.0600 
    220 H220       -6.5634  -21.1834  -49.5989 H         1 UNK         0.3000 
    221 H221       -5.0007  -18.6483  -49.4580 H         1 UNK         0.0600 
    222 H222       -8.0197  -19.1461  -49.5716 H         1 UNK         0.0600 
    223 H223       -7.0907  -18.8110  -48.1088 H         1 UNK         0.0600 
    224 H224       -7.2293  -17.5878  -49.3572 H         1 UNK         0.0600 
    225 H225       -5.2600  -20.8530  -51.7766 H         1 UNK         0.3000 
    226 H226       -5.6561  -18.8922  -53.9932 H         1 UNK         0.0600 
    227 H227       -7.7010  -20.2681  -53.8366 H         1 UNK         0.0600 
    228 H228       -6.7887  -20.7250  -55.2626 H         1 UNK         0.0600 
    229 H229       -6.7569  -21.7495  -53.8255 H         1 UNK         0.0600 
    230 H230       -5.0201  -22.1247  -54.8530 H         1 UNK         0.3000 
    231 H231       -2.6627  -21.4196  -56.2049 H         1 UNK         0.0600 
    232 H232       -3.8447  -24.1707  -55.5747 H         1 UNK         0.0600 
    233 H233       -2.5726  -23.8710  -56.7516 H         1 UNK         0.0600 
    234 H234       -4.1703  -23.1846  -56.9981 H         1 UNK         0.0600 
    235 H235       -3.0060  -22.7157  -52.9408 H         1 UNK         0.3000 
    236 H236       -0.3939  -23.7487  -52.6018 H         1 UNK         0.0600 
    237 H237       -0.9249  -23.7142  -50.2322 H         1 UNK         0.0600 
    238 H238       -2.1744  -22.4982  -50.4624 H         1 UNK         0.0600 
    239 H239       -2.4007  -24.1316  -51.0778 H         1 UNK         0.0600 
    240 H240       -1.5255  -20.4129  -52.6353 H         1 UNK         0.3000 
    241 H241        0.6690  -19.2445  -51.2116 H         1 UNK         0.0600 
    242 H242        2.1341  -19.7686  -54.9502 H         1 UNK         0.3800 
    243 H243        0.7203  -20.6333  -54.4003 H         1 UNK         0.3800 
    244 H244       -0.1789  -17.0799  -51.9971 H         1 UNK         0.0800 
    245 H245       -1.1706  -17.8527  -53.2047 H         1 UNK         0.0800 
    246 H246       -0.7094  -17.3775  -49.2404 H         1 UNK         0.0800 
    247 H247       -1.4079  -15.9977  -50.0683 H         1 UNK         0.0800 
@<TRIPOS>BOND
     1    1    2 1    
     2    1  127 1    
     3    1  128 1    
     4    1  129 1    
     5    2    3 2    
     6    2    4 am   BACKBONE|DICT|INTERRES
     7    4    5 1    
     8    4  130 1    
     9    5    6 1    
    10    5   65 1    
    11    5  131 1    
    12    6    7 1    
    13    6  132 1    
    14    6  133 1    
    15    7    8 1    
    16    8    9 1    
    17    8  134 1    
    18    8  135 1    
    19    9   10 ar   
    20    9   14 ar   
    21   10   11 ar   
    22   10  136 1    
    23   11   12 ar   
    24   11  126 1    
    25   12   13 ar   
    26   12  137 1    
    27   13   14 ar   
    28   13   15 1    
    29   14  138 1    
    30   15   16 1    
    31   15  139 1    
    32   15  140 1    
    33   16   17 1    
    34   17   18 1    
    35   17  141 1    
    36   17  142 1    
    37   18   19 1    
    38   18   67 1    
    39   18  143 1    
    40   19   20 am   BACKBONE|DICT|INTERRES
    41   19  144 1    
    42   20   21 2    
    43   20   22 1    
    44   22   23 1    
    45   22   24 1    
    46   22  145 1    
    47   23  146 1    
    48   23  147 1    
    49   23  148 1    
    50   24   25 am   BACKBONE|DICT|INTERRES
    51   24  149 1    
    52   25   26 2    
    53   25   27 1    
    54   27   28 1    
    55   27   29 1    
    56   27  150 1    
    57   28  151 1    
    58   28  152 1    
    59   28  153 1    
    60   29   30 am   BACKBONE|DICT|INTERRES
    61   29  154 1    
    62   30   31 2    
    63   30   32 1    
    64   32   33 1    
    65   32   34 1    
    66   32  155 1    
    67   33  156 1    
    68   33  157 1    
    69   33  158 1    
    70   34   35 am   BACKBONE|DICT|INTERRES
    71   34  159 1    
    72   35   36 2    
    73   35   37 1    
    74   37   38 1    
    75   37   39 1    
    76   37  160 1    
    77   38  161 1    
    78   38  162 1    
    79   38  163 1    
    80   39   40 am   BACKBONE|DICT|INTERRES
    81   39  164 1    
    82   40   41 2    
    83   40   42 1    
    84   42   43 1    
    85   42   44 1    
    86   42  165 1    
    87   43  166 1    
    88   43  167 1    
    89   43  168 1    
    90   44   45 am   BACKBONE|DICT|INTERRES
    91   44  169 1    
    92   45   46 2    
    93   45   47 1    
    94   47   48 1    
    95   47   49 1    
    96   47  170 1    
    97   48  171 1    
    98   48  172 1    
    99   48  173 1    
   100   49   50 am   BACKBONE|DICT|INTERRES
   101   49  174 1    
   102   50   51 2    
   103   50   52 1    
   104   52   53 1    
   105   52   54 1    
   106   52  175 1    
   107   53  176 1    
   108   53  177 1    
   109   53  178 1    
   110   54   55 am   BACKBONE|DICT|INTERRES
   111   54  179 1    
   112   55   56 2    
   113   55   57 1    
   114   57   58 1    
   115   57   59 1    
   116   57  180 1    
   117   58  181 1    
   118   58  182 1    
   119   58  183 1    
   120   59   60 am   BACKBONE|DICT|INTERRES
   121   59  184 1    
   122   60   61 2    
   123   60   62 1    
   124   62   63 1    
   125   62   64 1    
   126   62  185 1    
   127   63  186 1    
   128   63  187 1    
   129   63  188 1    
   130   64   65 am   BACKBONE|DICT|INTERRES
   131   64  189 1    
   132   65   66 2    
   133   67   68 2    
   134   67   69 am   BACKBONE|DICT|INTERRES
   135   69   70 1    
   136   69  190 1    
   137   70   71 1    
   138   70   72 1    
   139   70  191 1    
   140   71  192 1    
   141   71  193 1    
   142   71  194 1    
   143   72   73 2    
   144   72   74 am   BACKBONE|DICT|INTERRES
   145   74   75 1    
   146   74  195 1    
   147   75   76 1    
   148   75   77 1    
   149   75  196 1    
   150   76  197 1    
   151   76  198 1    
   152   76  199 1    
   153   77   78 2    
   154   77   79 am   BACKBONE|DICT|INTERRES
   155   79   80 1    
   156   79  200 1    
   157   80   81 1    
   158   80   82 1    
   159   80  201 1    
   160   81  202 1    
   161   81  203 1    
   162   81  204 1    
   163   82   83 2    
   164   82   84 am   BACKBONE|DICT|INTERRES
   165   84   85 1    
   166   84  205 1    
   167   85   86 1    
   168   85   87 1    
   169   85  206 1    
   170   86  207 1    
   171   86  208 1    
   172   86  209 1    
   173   87   88 2    
   174   87   89 am   BACKBONE|DICT|INTERRES
   175   89   90 1    
   176   89  210 1    
   177   90   91 1    
   178   90   92 1    
   179   90  211 1    
   180   91  212 1    
   181   91  213 1    
   182   91  214 1    
   183   92   93 2    
   184   92   94 am   BACKBONE|DICT|INTERRES
   185   94   95 1    
   186   94  215 1    
   187   95   96 1    
   188   95   97 1    
   189   95  216 1    
   190   96  217 1    
   191   96  218 1    
   192   96  219 1    
   193   97   98 2    
   194   97   99 am   BACKBONE|DICT|INTERRES
   195   99  100 1    
   196   99  220 1    
   197  100  101 1    
   198  100  102 1    
   199  100  221 1    
   200  101  222 1    
   201  101  223 1    
   202  101  224 1    
   203  102  103 2    
   204  102  104 am   BACKBONE|DICT|INTERRES
   205  104  105 1    
   206  104  225 1    
   207  105  106 1    
   208  105  107 1    
   209  105  226 1    
   210  106  227 1    
   211  106  228 1    
   212  106  229 1    
   213  107  108 2    
   214  107  109 am   BACKBONE|DICT|INTERRES
   215  109  110 1    
   216  109  230 1    
   217  110  111 1    
   218  110  112 1    
   219  110  231 1    
   220  111  232 1    
   221  111  233 1    
   222  111  234 1    
   223  112  113 2    
   224  112  114 am   BACKBONE|DICT|INTERRES
   225  114  115 1    
   226  114  235 1    
   227  115  116 1    
   228  115  117 1    
   229  115  236 1    
   230  116  237 1    
   231  116  238 1    
   232  116  239 1    
   233  117  118 2    
   234  117  119 am   BACKBONE|DICT|INTERRES
   235  119  120 1    
   236  119  240 1    
   237  120  121 1    
   238  120  124 1    
   239  120  241 1    
   240  121  122 am   BACKBONE|DICT|INTERRES
   241  121  123 2    
   242  122  242 1    
   243  122  243 1    
   244  124  125 1    
   245  124  244 1    
   246  124  245 1    
   247  125  126 1    
   248  126  246 1    
   249  126  247 1    
@<TRIPOS>SUBSTRUCTURE
     1 UNK         1 GROUP             0       ****    0 ROOT    
