@<TRIPOS>MOLECULE
3R540
247   249    1
SMALL
USER_CHARGES


@<TRIPOS>ATOM
      1 CA          0.5785  -12.7416  -47.2096 C.3       0 UNK        -0.1800 
      2 C          -0.6907  -13.4265  -47.6962 C.2       0 UNK         0.5000 
      3 O          -1.7141  -12.7658  -47.8702 O.2       0 UNK        -0.5000 
      4 N          -0.6215  -14.7473  -47.9163 N.am      1 UNK        -0.5000 
      5 CA         -1.7285  -15.6070  -48.3679 C.3       1 UNK         0.1400 
      6 C6         -2.2156  -15.2545  -49.8005 C.3       23 UNK        -0.0398 
      7 S7         -2.6881  -16.7293  -50.7651 S.3       23 UNK        -0.2404 
      8 C8         -1.2122  -17.0319  -51.7918 C.3       23 UNK        -0.0205 
      9 C9         -0.1672  -17.8687  -51.0653 C.ar      23 UNK        -0.0193 
     10 C10        -0.0366  -19.2319  -51.3444 C.ar      23 UNK        -0.1150 
     11 C11         0.9359  -20.0040  -50.7031 C.ar      23 UNK        -0.0193 
     12 C12         1.7588  -19.4067  -49.7447 C.ar      23 UNK        -0.1150 
     13 C13         1.6158  -18.0516  -49.4273 C.ar      23 UNK        -0.0193 
     14 C14         0.6791  -17.2823  -50.1218 C.ar      23 UNK        -0.1150 
     15 C15         2.4728  -17.4084  -48.3449 C.3       23 UNK        -0.0205 
     16 S16         2.4951  -18.3569  -46.7880 S.3       23 UNK        -0.2404 
     17 C17         0.7574  -18.3335  -46.2183 C.3       23 UNK        -0.0398 
     18 CA         -0.0245  -19.6309  -46.5339 C.3       11 UNK         0.1400 
     19 N           0.6845  -20.8398  -46.1038 N.am      11 UNK        -0.5000 
     20 C           0.3696  -22.0801  -46.5006 C.2       10 UNK         0.5000 
     21 O          -0.6483  -22.3566  -47.1364 O.2       10 UNK        -0.5000 
     22 CA          1.3539  -23.1952  -46.1179 C.3       10 UNK         0.1400 
     23 CB          2.6248  -23.1083  -46.9784 C.3       10 UNK        -0.1800 
     24 N           1.7171  -23.0947  -44.7070 N.am      10 UNK        -0.5000 
     25 C           1.1619  -23.8171  -43.7250 C.2       9 UNK         0.5000 
     26 O           0.3549  -24.7271  -43.9163 O.2       9 UNK        -0.5000 
     27 CA          1.5524  -23.4516  -42.2763 C.3       9 UNK         0.1400 
     28 CB          2.7320  -24.3152  -41.8047 C.3       9 UNK        -0.1800 
     29 N           1.8896  -22.0381  -42.0826 N.am      9 UNK        -0.5000 
     30 C           1.0688  -21.0107  -42.3416 C.2       8 UNK         0.5000 
     31 O          -0.0802  -21.1473  -42.7533 O.2       8 UNK        -0.5000 
     32 CA          1.6357  -19.5889  -42.1761 C.3       8 UNK         0.1400 
     33 CB          1.3953  -19.0966  -40.7416 C.3       8 UNK        -0.1800 
     34 N           3.0568  -19.4325  -42.5093 N.am      8 UNK        -0.5000 
     35 C           3.6828  -19.8725  -43.6119 C.2       7 UNK         0.5000 
     36 O           3.1391  -20.5675  -44.4734 O.2       7 UNK        -0.5000 
     37 CA          5.1568  -19.4542  -43.7677 C.3       7 UNK         0.1400 
     38 CB          5.7180  -19.7488  -45.1707 C.3       7 UNK        -0.1800 
     39 N           5.3150  -18.0274  -43.4799 N.am      7 UNK        -0.5000 
     40 C           5.8475  -17.5155  -42.3628 C.2       6 UNK         0.5000 
     41 O           6.2796  -18.2009  -41.4358 O.2       6 UNK        -0.5000 
     42 CA          5.8894  -15.9780  -42.2497 C.3       6 UNK         0.1400 
     43 CB          7.2274  -15.4391  -42.7787 C.3       6 UNK        -0.1800 
     44 N           4.7912  -15.3003  -42.9466 N.am      6 UNK        -0.5000 
     45 C           3.5042  -15.3682  -42.5813 C.2       5 UNK         0.5000 
     46 O           3.1011  -16.0478  -41.6356 O.2       5 UNK        -0.5000 
     47 CA          2.5091  -14.5742  -43.4506 C.3       5 UNK         0.1400 
     48 CB          2.1950  -15.3538  -44.7325 C.3       5 UNK        -0.1800 
     49 N           1.2506  -14.3090  -42.7536 N.am      5 UNK        -0.5000 
     50 C           1.1031  -13.4269  -41.7543 C.2       4 UNK         0.5000 
     51 O           2.0106  -12.6949  -41.3558 O.2       4 UNK        -0.5000 
     52 CA         -0.2904  -13.3174  -41.0978 C.3       4 UNK         0.1400 
     53 CB         -1.0191  -12.0597  -41.5974 C.3       4 UNK        -0.1800 
     54 N          -1.1463  -14.4786  -41.3439 N.am      4 UNK        -0.5000 
     55 C          -0.9799  -15.6903  -40.7972 C.2       3 UNK         0.5000 
     56 O          -0.1379  -15.9333  -39.9334 O.2       3 UNK        -0.5000 
     57 CA         -1.8996  -16.8267  -41.2965 C.3       3 UNK         0.1400 
     58 CB         -2.8583  -17.2763  -40.1824 C.3       3 UNK        -0.1800 
     59 N          -2.6869  -16.5071  -42.4955 N.am      3 UNK        -0.5000 
     60 C          -2.1777  -16.2741  -43.7116 C.2       2 UNK         0.5000 
     61 O          -0.9655  -16.2900  -43.9531 O.2       2 UNK        -0.5000 
     62 CA         -3.1801  -15.9180  -44.8243 C.3       2 UNK         0.1400 
     63 CB         -3.9407  -14.6160  -44.5057 C.3       2 UNK        -0.1800 
     64 N          -2.4130  -15.7604  -46.0473 N.am      2 UNK        -0.5000 
     65 C          -2.8507  -15.7096  -47.3093 C.2       1 UNK         0.5000 
     66 O          -4.0396  -15.7389  -47.6382 O.2       1 UNK        -0.5000 
     67 C          -1.4671  -19.5382  -45.9940 C.2       11 UNK         0.5000 
     68 O          -2.3058  -18.9486  -46.6692 O.2       11 UNK        -0.5000 
     69 N          -1.7483  -20.1083  -44.8116 N.am      12 UNK        -0.5000 
     70 CA         -3.1008  -20.1773  -44.2500 C.3       12 UNK         0.1400 
     71 CB         -3.0334  -20.2776  -42.7195 C.3       12 UNK        -0.1800 
     72 C          -3.9032  -21.3631  -44.8128 C.2       12 UNK         0.5000 
     73 O          -5.1290  -21.2799  -44.8879 O.2       12 UNK        -0.5000 
     74 N          -3.2092  -22.4482  -45.1846 N.am      13 UNK        -0.5000 
     75 CA         -3.8096  -23.6545  -45.7558 C.3       13 UNK         0.1400 
     76 CB         -2.8043  -24.8141  -45.6806 C.3       13 UNK        -0.1800 
     77 C          -4.2830  -23.4260  -47.2011 C.2       13 UNK         0.5000 
     78 O          -5.3771  -23.8587  -47.5635 O.2       13 UNK        -0.5000 
     79 N          -3.4612  -22.7170  -47.9809 N.am      14 UNK        -0.5000 
     80 CA         -3.7321  -22.2996  -49.3523 C.3       14 UNK         0.1400 
     81 CB         -2.5884  -22.8111  -50.2432 C.3       14 UNK        -0.1800 
     82 C          -3.8958  -20.7694  -49.3944 C.2       14 UNK         0.5000 
     83 O          -3.2229  -20.0952  -50.1718 O.2       14 UNK        -0.5000 
     84 N          -4.7770  -20.2503  -48.5313 N.am      15 UNK        -0.5000 
     85 CA         -5.0724  -18.8247  -48.3914 C.3       15 UNK         0.1400 
     86 CB         -5.7621  -18.6037  -47.0340 C.3       15 UNK        -0.1800 
     87 C          -5.9499  -18.2689  -49.5275 C.2       15 UNK         0.5000 
     88 O          -6.5199  -19.0346  -50.3087 O.2       15 UNK        -0.5000 
     89 N          -6.0760  -16.9333  -49.5524 N.am      16 UNK        -0.5000 
     90 CA         -6.9909  -16.1419  -50.3855 C.3       16 UNK         0.1400 
     91 CB         -8.4495  -16.3679  -49.9358 C.3       16 UNK        -0.1800 
     92 C          -6.7851  -16.3697  -51.8972 C.2       16 UNK         0.5000 
     93 O          -7.7246  -16.7182  -52.6138 O.2       16 UNK        -0.5000 
     94 N          -5.5316  -16.1905  -52.3340 N.am      17 UNK        -0.5000 
     95 CA         -5.0057  -16.3908  -53.6911 C.3       17 UNK         0.1400 
     96 CB         -5.7575  -15.5357  -54.7326 C.3       17 UNK        -0.1800 
     97 C          -4.8916  -17.8718  -54.1103 C.2       17 UNK         0.5000 
     98 O          -4.6218  -18.1481  -55.2802 O.2       17 UNK        -0.5000 
     99 N          -5.0681  -18.7960  -53.1550 N.am      18 UNK        -0.5000 
    100 CA        -4.8539  -20.2475  -53.2044 C.3       18 UNK         0.1400 
    101 CB        -3.3807  -20.5627  -53.5256 C.3       18 UNK        -0.1800 
    102 C         -5.7718  -21.0551  -54.1391 C.2       18 UNK         0.5000 
    103 O         -5.9927  -22.2334  -53.8656 O.2       18 UNK        -0.5000 
    104 N         -6.2361  -20.4554  -55.2431 N.am      19 UNK        -0.5000 
    105 CA        -6.9077  -21.1046  -56.3765 C.3       19 UNK         0.1400 
    106 CB        -8.2921  -21.6521  -55.9703 C.3       19 UNK        -0.1800 
    107 C         -5.9957  -22.1629  -57.0385 C.2       19 UNK         0.5000 
    108 O         -6.4412  -23.2667  -57.3549 O.2       19 UNK        -0.5000 
    109 N         -4.7144  -21.7927  -57.1931 N.am      20 UNK        -0.5000 
    110 CA        -3.5952  -22.5700  -57.7404 C.3       20 UNK         0.1400 
    111 CB        -3.8865  -23.0485  -59.1781 C.3       20 UNK        -0.1800 
    112 C         -3.0890  -23.7153  -56.8355 C.2       20 UNK         0.5000 
    113 O         -2.1950  -24.4524  -57.2555 O.2       20 UNK        -0.5000 
    114 N         -3.6008  -23.8292  -55.5987 N.am      21 UNK        -0.5000 
    115 CA        -3.2153  -24.8623  -54.6255 C.3       21 UNK         0.1400 
    116 CB        -4.1500  -24.8001  -53.4083 C.3       21 UNK        -0.1800 
    117 C         -1.7416  -24.7990  -54.1710 C.2       21 UNK         0.5000 
    118 O         -1.2095  -25.8127  -53.7170 O.2       21 UNK        -0.5000 
    119 N         -1.1060  -23.6285  -54.3189 N.am      22 UNK        -0.5000 
    120 CA         0.3376  -23.4282  -54.1115 C.3       22 UNK         0.1400 
    121 C          1.2316  -23.9811  -55.2662 C.2       22 UNK         0.5000 
    122 N          0.6824  -24.4146  -56.3963 N.am      22 UNK        -0.7600 
    123 O          2.4509  -24.0318  -55.1334 O.2       22 UNK        -0.5000 
    124 C124        0.6575  -21.9421  -53.7838 C.3       23 UNK        -0.0398 
    125 S125        2.0115  -21.7626  -52.5676 S.3       23 UNK        -0.2404 
    126 C126        1.0882  -21.4841  -51.0233 C.3       23 UNK        -0.0205 
    127 H127        1.4540  -13.3810  -47.3249 H         1 UNK         0.0600 
    128 H128        0.4818  -12.4773  -46.1564 H         1 UNK         0.0600 
    129 H129        0.7541  -11.8275  -47.7769 H         1 UNK         0.0600 
    130 H130        0.2562  -15.2163  -47.7535 H         1 UNK         0.3000 
    131 H131       -1.3057  -16.6114  -48.3963 H         1 UNK         0.0600 
    132 H132       -3.0542  -14.5567  -49.7754 H         1 UNK         0.0800 
    133 H133       -1.4320  -14.7311  -50.3490 H         1 UNK         0.0800 
    134 H134       -1.5320  -17.5481  -52.6983 H         1 UNK         0.0800 
    135 H135       -0.7763  -16.0890  -52.1240 H         1 UNK         0.0800 
    136 H136       -0.6888  -19.6906  -52.0688 H         1 UNK         0.1150 
    137 H137        2.4998  -20.0009  -49.2286 H         1 UNK         0.1150 
    138 H138        0.5942  -16.2256  -49.9191 H         1 UNK         0.1150 
    139 H139        3.4950  -17.3283  -48.7164 H         1 UNK         0.0800 
    140 H140        2.1436  -16.3909  -48.1323 H         1 UNK         0.0800 
    141 H141        0.2549  -17.4652  -46.6448 H         1 UNK         0.0800 
    142 H142        0.7685  -18.1797  -45.1395 H         1 UNK         0.0800 
    143 H143       -0.1167  -19.6948  -47.6202 H         1 UNK         0.0600 
    144 H144        1.5505  -20.6913  -45.5936 H         1 UNK         0.3000 
    145 H145        0.8739  -24.1545  -46.3225 H         1 UNK         0.0600 
    146 H146        3.3119  -23.9217  -46.7455 H         1 UNK         0.0600 
    147 H147        2.3829  -23.1802  -48.0394 H         1 UNK         0.0600 
    148 H148        3.1572  -22.1683  -46.8255 H         1 UNK         0.0600 
    149 H149        2.3392  -22.3312  -44.4586 H         1 UNK         0.3000 
    150 H150        0.6910  -23.6725  -41.6428 H         1 UNK         0.0600 
    151 H151        2.9578  -24.1359  -40.7534 H         1 UNK         0.0600 
    152 H152        2.5060  -25.3771  -41.9105 H         1 UNK         0.0600 
    153 H153        3.6344  -24.1122  -42.3829 H         1 UNK         0.0600 
    154 H154        2.8258  -21.8336  -41.7667 H         1 UNK         0.3000 
    155 H155        1.0770  -18.9399  -42.8527 H         1 UNK         0.0600 
    156 H156        1.9975  -19.6504  -40.0206 H         1 UNK         0.0600 
    157 H157        0.3498  -19.2137  -40.4535 H         1 UNK         0.0600 
    158 H158        1.6388  -18.0396  -40.6396 H         1 UNK         0.0600 
    159 H159        3.5905  -18.8550  -41.8748 H         1 UNK         0.3000 
    160 H160        5.7267  -20.0544  -43.0560 H         1 UNK         0.0600 
    161 H161        5.1963  -19.1842  -45.9428 H         1 UNK         0.0600 
    162 H162        5.6266  -20.8072  -45.4180 H         1 UNK         0.0600 
    163 H163        6.7760  -19.4937  -45.2301 H         1 UNK         0.0600 
    164 H164        4.9486  -17.3895  -44.1715 H         1 UNK         0.3000 
    165 H165        5.8186  -15.7270  -41.1891 H         1 UNK         0.0600 
    166 H166        7.3087  -14.3630  -42.6241 H         1 UNK         0.0600 
    167 H167        8.0679  -15.9041  -42.2615 H         1 UNK         0.0600 
    168 H168        7.3484  -15.6366  -43.8445 H         1 UNK         0.0600 
    169 H169        5.0477  -14.7299  -43.7396 H         1 UNK         0.3000 
    170 H170        2.9615  -13.6179  -43.7214 H         1 UNK         0.0600 
    171 H171        3.0795  -15.4615  -45.3613 H         1 UNK         0.0600 
    172 H172        1.8391  -16.3528  -44.4901 H         1 UNK         0.0600 
    173 H173        1.4269  -14.8597  -45.3256 H         1 UNK         0.0600 
    174 H174        0.4694  -14.9047  -42.9976 H         1 UNK         0.3000 
    175 H175       -0.1394  -13.2220  -40.0205 H         1 UNK         0.0600 
    176 H176       -1.2068  -12.1033  -42.6711 H         1 UNK         0.0600 
    177 H177       -1.9770  -11.9316  -41.0929 H         1 UNK         0.0600 
    178 H178       -0.4294  -11.1627  -41.4035 H         1 UNK         0.0600 
    179 H179       -1.8739  -14.3657  -42.0329 H         1 UNK         0.3000 
    180 H180       -1.2439  -17.6628  -41.5442 H         1 UNK         0.0600 
    181 H181       -3.5392  -16.4752  -39.8925 H         1 UNK         0.0600 
    182 H182       -2.3085  -17.5788  -39.2902 H         1 UNK         0.0600 
    183 H183       -3.4588  -18.1307  -40.4945 H         1 UNK         0.0600 
    184 H184       -3.6872  -16.4561  -42.3660 H         1 UNK         0.3000 
    185 H185       -3.8800  -16.7466  -44.9462 H         1 UNK         0.0600 
    186 H186       -4.5315  -14.7107  -43.5943 H         1 UNK         0.0600 
    187 H187       -3.2579  -13.7758  -44.3725 H         1 UNK         0.0600 
    188 H188       -4.6334  -14.3554  -45.3059 H         1 UNK         0.0600 
    189 H189       -1.4161  -15.7477  -45.8728 H         1 UNK         0.3000 
    190 H190       -1.0127  -20.5533  -44.2678 H         1 UNK         0.3000 
    191 H191       -3.6315  -19.2554  -44.4913 H         1 UNK         0.0600 
    192 H192       -2.3709  -19.5230  -42.3020 H         1 UNK         0.0600 
    193 H193       -4.0195  -20.1310  -42.2775 H         1 UNK         0.0600 
    194 H194       -2.6732  -21.2536  -42.3921 H         1 UNK         0.0600 
    195 H195       -2.2020  -22.4248  -45.1218 H         1 UNK         0.3000 
    196 H196       -4.6811  -23.9241  -45.1553 H         1 UNK         0.0600 
    197 H197       -3.2399  -25.7332  -46.0743 H         1 UNK         0.0600 
    198 H198       -2.5060  -25.0109  -44.6507 H         1 UNK         0.0600 
    199 H199       -1.9007  -24.6081  -46.2550 H         1 UNK         0.0600 
    200 H200       -2.5691  -22.4158  -47.5979 H         1 UNK         0.3000 
    201 H201       -4.6657  -22.7300  -49.7200 H         1 UNK         0.0600 
    202 H202       -2.5741  -23.9004  -50.2779 H         1 UNK         0.0600 
    203 H203       -1.6263  -22.4783  -49.8571 H         1 UNK         0.0600 
    204 H204       -2.6829  -22.4536  -51.2680 H         1 UNK         0.0600 
    205 H205       -5.2943  -20.8774  -47.9336 H         1 UNK         0.3000 
    206 H206       -4.1287  -18.2783  -48.4059 H         1 UNK         0.0600 
    207 H207       -5.1101  -18.8987  -46.2157 H         1 UNK         0.0600 
    208 H208       -6.0101  -17.5540  -46.8736 H         1 UNK         0.0600 
    209 H209       -6.6865  -19.1765  -46.9525 H         1 UNK         0.0600 
    210 H210       -5.5218  -16.4030  -48.8849 H         1 UNK         0.3000 
    211 H211       -6.7501  -15.0946  -50.1977 H         1 UNK         0.0600 
    212 H212       -8.7727  -17.3952  -50.1074 H         1 UNK         0.0600 
    213 H213       -9.1321  -15.7146  -50.4806 H         1 UNK         0.0600 
    214 H214       -8.5721  -16.1516  -48.8745 H         1 UNK         0.0600 
    215 H215       -4.8286  -15.9633  -51.6421 H         1 UNK         0.3000 
    216 H216       -3.9795  -16.0222  -53.6584 H         1 UNK         0.0600 
    217 H217       -5.2364  -15.5422  -55.6906 H         1 UNK         0.0600 
    218 H218       -5.8306  -14.4964  -54.4125 H         1 UNK         0.0600 
    219 H219       -6.7670  -15.9053  -54.9133 H         1 UNK         0.0600 
    220 H220       -5.3520  -18.4584  -52.2443 H         1 UNK         0.3000 
    221 H221       -5.0590  -20.6065  -52.1955 H         1 UNK         0.0600 
    222 H222       -3.1029  -20.2524  -54.5330 H         1 UNK         0.0600 
    223 H223       -2.7205  -20.0559  -52.8256 H         1 UNK         0.0600 
    224 H224       -3.1812  -21.6305  -53.4467 H         1 UNK         0.0600 
    225 H225       -5.9289  -19.4985  -55.3953 H         1 UNK         0.3000 
    226 H226       -7.0687  -20.3277  -57.1251 H         1 UNK         0.0600 
    227 H227       -8.8992  -20.8778  -55.5015 H         1 UNK         0.0600 
    228 H228       -8.8393  -22.0096  -56.8431 H         1 UNK         0.0600 
    229 H229       -8.2145  -22.4859  -55.2722 H         1 UNK         0.0600 
    230 H230       -4.4699  -20.8624  -56.8820 H         1 UNK         0.3000 
    231 H231       -2.7634  -21.8670  -57.8032 H         1 UNK         0.0600 
    232 H232       -4.6467  -23.8295  -59.2022 H         1 UNK         0.0600 
    233 H233       -2.9890  -23.4585  -59.6427 H         1 UNK         0.0600 
    234 H234       -4.2276  -22.2263  -59.8072 H         1 UNK         0.0600 
    235 H235       -4.3522  -23.2110  -55.3243 H         1 UNK         0.3000 
    236 H236       -3.3583  -25.8313  -55.1079 H         1 UNK         0.0600 
    237 H237       -5.1926  -24.9177  -53.7043 H         1 UNK         0.0600 
    238 H238       -3.9236  -25.5976  -52.6995 H         1 UNK         0.0600 
    239 H239       -4.0559  -23.8547  -52.8745 H         1 UNK         0.0600 
    240 H240       -1.6152  -22.8581  -54.7227 H         1 UNK         0.3000 
    241 H241        0.6008  -24.0217  -53.2336 H         1 UNK         0.0600 
    242 H242       -0.3214  -24.4063  -56.5413 H         1 UNK         0.3800 
    243 H243        1.2806  -24.7730  -57.1238 H         1 UNK         0.3800 
    244 H244        0.9153  -21.3828  -54.6849 H         1 UNK         0.0800 
    245 H245       -0.2265  -21.4456  -53.3861 H         1 UNK         0.0800 
    246 H246        0.1101  -21.9553  -51.0945 H         1 UNK         0.0800 
    247 H247        1.6078  -21.9916  -50.2093 H         1 UNK         0.0800 
@<TRIPOS>BOND
     1    1    2 1    
     2    1  127 1    
     3    1  128 1    
     4    1  129 1    
     5    2    3 2    
     6    2    4 am   BACKBONE|DICT|INTERRES
     7    4    5 1    
     8    4  130 1    
     9    5    6 1    
    10    5   65 1    
    11    5  131 1    
    12    6    7 1    
    13    6  132 1    
    14    6  133 1    
    15    7    8 1    
    16    8    9 1    
    17    8  134 1    
    18    8  135 1    
    19    9   10 ar   
    20    9   14 ar   
    21   10   11 ar   
    22   10  136 1    
    23   11   12 ar   
    24   11  126 1    
    25   12   13 ar   
    26   12  137 1    
    27   13   14 ar   
    28   13   15 1    
    29   14  138 1    
    30   15   16 1    
    31   15  139 1    
    32   15  140 1    
    33   16   17 1    
    34   17   18 1    
    35   17  141 1    
    36   17  142 1    
    37   18   19 1    
    38   18   67 1    
    39   18  143 1    
    40   19   20 am   BACKBONE|DICT|INTERRES
    41   19  144 1    
    42   20   21 2    
    43   20   22 1    
    44   22   23 1    
    45   22   24 1    
    46   22  145 1    
    47   23  146 1    
    48   23  147 1    
    49   23  148 1    
    50   24   25 am   BACKBONE|DICT|INTERRES
    51   24  149 1    
    52   25   26 2    
    53   25   27 1    
    54   27   28 1    
    55   27   29 1    
    56   27  150 1    
    57   28  151 1    
    58   28  152 1    
    59   28  153 1    
    60   29   30 am   BACKBONE|DICT|INTERRES
    61   29  154 1    
    62   30   31 2    
    63   30   32 1    
    64   32   33 1    
    65   32   34 1    
    66   32  155 1    
    67   33  156 1    
    68   33  157 1    
    69   33  158 1    
    70   34   35 am   BACKBONE|DICT|INTERRES
    71   34  159 1    
    72   35   36 2    
    73   35   37 1    
    74   37   38 1    
    75   37   39 1    
    76   37  160 1    
    77   38  161 1    
    78   38  162 1    
    79   38  163 1    
    80   39   40 am   BACKBONE|DICT|INTERRES
    81   39  164 1    
    82   40   41 2    
    83   40   42 1    
    84   42   43 1    
    85   42   44 1    
    86   42  165 1    
    87   43  166 1    
    88   43  167 1    
    89   43  168 1    
    90   44   45 am   BACKBONE|DICT|INTERRES
    91   44  169 1    
    92   45   46 2    
    93   45   47 1    
    94   47   48 1    
    95   47   49 1    
    96   47  170 1    
    97   48  171 1    
    98   48  172 1    
    99   48  173 1    
   100   49   50 am   BACKBONE|DICT|INTERRES
   101   49  174 1    
   102   50   51 2    
   103   50   52 1    
   104   52   53 1    
   105   52   54 1    
   106   52  175 1    
   107   53  176 1    
   108   53  177 1    
   109   53  178 1    
   110   54   55 am   BACKBONE|DICT|INTERRES
   111   54  179 1    
   112   55   56 2    
   113   55   57 1    
   114   57   58 1    
   115   57   59 1    
   116   57  180 1    
   117   58  181 1    
   118   58  182 1    
   119   58  183 1    
   120   59   60 am   BACKBONE|DICT|INTERRES
   121   59  184 1    
   122   60   61 2    
   123   60   62 1    
   124   62   63 1    
   125   62   64 1    
   126   62  185 1    
   127   63  186 1    
   128   63  187 1    
   129   63  188 1    
   130   64   65 am   BACKBONE|DICT|INTERRES
   131   64  189 1    
   132   65   66 2    
   133   67   68 2    
   134   67   69 am   BACKBONE|DICT|INTERRES
   135   69   70 1    
   136   69  190 1    
   137   70   71 1    
   138   70   72 1    
   139   70  191 1    
   140   71  192 1    
   141   71  193 1    
   142   71  194 1    
   143   72   73 2    
   144   72   74 am   BACKBONE|DICT|INTERRES
   145   74   75 1    
   146   74  195 1    
   147   75   76 1    
   148   75   77 1    
   149   75  196 1    
   150   76  197 1    
   151   76  198 1    
   152   76  199 1    
   153   77   78 2    
   154   77   79 am   BACKBONE|DICT|INTERRES
   155   79   80 1    
   156   79  200 1    
   157   80   81 1    
   158   80   82 1    
   159   80  201 1    
   160   81  202 1    
   161   81  203 1    
   162   81  204 1    
   163   82   83 2    
   164   82   84 am   BACKBONE|DICT|INTERRES
   165   84   85 1    
   166   84  205 1    
   167   85   86 1    
   168   85   87 1    
   169   85  206 1    
   170   86  207 1    
   171   86  208 1    
   172   86  209 1    
   173   87   88 2    
   174   87   89 am   BACKBONE|DICT|INTERRES
   175   89   90 1    
   176   89  210 1    
   177   90   91 1    
   178   90   92 1    
   179   90  211 1    
   180   91  212 1    
   181   91  213 1    
   182   91  214 1    
   183   92   93 2    
   184   92   94 am   BACKBONE|DICT|INTERRES
   185   94   95 1    
   186   94  215 1    
   187   95   96 1    
   188   95   97 1    
   189   95  216 1    
   190   96  217 1    
   191   96  218 1    
   192   96  219 1    
   193   97   98 2    
   194   97   99 am   BACKBONE|DICT|INTERRES
   195   99  100 1    
   196   99  220 1    
   197  100  101 1    
   198  100  102 1    
   199  100  221 1    
   200  101  222 1    
   201  101  223 1    
   202  101  224 1    
   203  102  103 2    
   204  102  104 am   BACKBONE|DICT|INTERRES
   205  104  105 1    
   206  104  225 1    
   207  105  106 1    
   208  105  107 1    
   209  105  226 1    
   210  106  227 1    
   211  106  228 1    
   212  106  229 1    
   213  107  108 2    
   214  107  109 am   BACKBONE|DICT|INTERRES
   215  109  110 1    
   216  109  230 1    
   217  110  111 1    
   218  110  112 1    
   219  110  231 1    
   220  111  232 1    
   221  111  233 1    
   222  111  234 1    
   223  112  113 2    
   224  112  114 am   BACKBONE|DICT|INTERRES
   225  114  115 1    
   226  114  235 1    
   227  115  116 1    
   228  115  117 1    
   229  115  236 1    
   230  116  237 1    
   231  116  238 1    
   232  116  239 1    
   233  117  118 2    
   234  117  119 am   BACKBONE|DICT|INTERRES
   235  119  120 1    
   236  119  240 1    
   237  120  121 1    
   238  120  124 1    
   239  120  241 1    
   240  121  122 am   BACKBONE|DICT|INTERRES
   241  121  123 2    
   242  122  242 1    
   243  122  243 1    
   244  124  125 1    
   245  124  244 1    
   246  124  245 1    
   247  125  126 1    
   248  126  246 1    
   249  126  247 1    
@<TRIPOS>SUBSTRUCTURE
     1 UNK         1 GROUP             0       ****    0 ROOT    
