@<TRIPOS>MOLECULE
3R540
247   249    1
SMALL
USER_CHARGES


@<TRIPOS>ATOM
      1 CA         -5.2908  -14.9953  -48.2325 C.3       0 UNK        -0.1800 
      2 C          -4.1371  -14.0431  -47.9581 C.2       0 UNK         0.5000 
      3 O          -4.3284  -13.0166  -47.3047 O.2       0 UNK        -0.5000 
      4 N          -2.9370  -14.3763  -48.4489 N.am      1 UNK        -0.5000 
      5 CA         -1.7162  -13.5638  -48.3507 C.3       1 UNK         0.1400 
      6 C6         -0.7286  -13.8457  -49.5117 C.3       23 UNK        -0.0398 
      7 S7         -1.4791  -13.5144  -51.1430 S.3       23 UNK        -0.2404 
      8 C8         -0.5198  -14.6263  -52.2284 C.3       23 UNK        -0.0205 
      9 C9         -0.6433  -16.1175  -51.9155 C.ar      23 UNK        -0.0193 
     10 C10         0.4149  -16.9662  -52.2533 C.ar      23 UNK        -0.1150 
     11 C11         0.3432  -18.3408  -52.0097 C.ar      23 UNK        -0.0193 
     12 C12        -0.8009  -18.8638  -51.3991 C.ar      23 UNK        -0.1150 
     13 C13        -1.8688  -18.0322  -51.0578 C.ar      23 UNK        -0.0193 
     14 C14        -1.7931  -16.6658  -51.3348 C.ar      23 UNK        -0.1150 
     15 C15        -3.1226  -18.6168  -50.4305 C.3       23 UNK        -0.0205 
     16 S16        -3.3996  -18.0334  -48.7267 S.3       23 UNK        -0.2404 
     17 C17        -1.8921  -18.5670  -47.8391 C.3       23 UNK        -0.0398 
     18 CA         -1.5122  -20.0669  -47.9393 C.3       11 UNK         0.1400 
     19 N          -0.2803  -20.3390  -47.1961 N.am      11 UNK        -0.5000 
     20 C           0.4172  -21.4809  -47.2573 C.2       10 UNK         0.5000 
     21 O           0.1055  -22.4395  -47.9596 O.2       10 UNK        -0.5000 
     22 CA          1.6394  -21.5966  -46.3309 C.3       10 UNK         0.1400 
     23 CB          2.8332  -20.8148  -46.8998 C.3       10 UNK        -0.1800 
     24 N           1.3516  -21.1527  -44.9658 N.am      10 UNK        -0.5000 
     25 C           0.4410  -21.7210  -44.1612 C.2       9 UNK         0.5000 
     26 O          -0.2240  -22.7087  -44.4711 O.2       9 UNK        -0.5000 
     27 CA          0.1926  -21.0494  -42.8000 C.3       9 UNK         0.1400 
     28 CB          1.2894  -21.4286  -41.7939 C.3       9 UNK        -0.1800 
     29 N           0.0880  -19.5935  -42.8978 N.am      9 UNK        -0.5000 
     30 C          -0.8564  -18.9410  -43.5925 C.2       8 UNK         0.5000 
     31 O          -1.7643  -19.4980  -44.2090 O.2       8 UNK        -0.5000 
     32 CA         -0.7343  -17.4082  -43.6501 C.3       8 UNK         0.1400 
     33 CB         -1.1788  -16.7768  -42.3213 C.3       8 UNK        -0.1800 
     34 N           0.6267  -16.9788  -43.9676 N.am      8 UNK        -0.5000 
     35 C           1.2806  -17.2749  -45.1007 C.2       7 UNK         0.5000 
     36 O           0.7809  -17.8937  -46.0403 O.2       7 UNK        -0.5000 
     37 CA          2.7636  -16.8688  -45.1621 C.3       7 UNK         0.1400 
     38 CB          2.9224  -15.3944  -45.5626 C.3       7 UNK        -0.1800 
     39 N           3.4460  -17.1108  -43.8896 N.am      7 UNK        -0.5000 
     40 C           3.7203  -18.3285  -43.3997 C.2       6 UNK         0.5000 
     41 O           3.4470  -19.3768  -43.9826 O.2       6 UNK        -0.5000 
     42 CA          4.3780  -18.3842  -42.0086 C.3       6 UNK         0.1400 
     43 CB          5.8979  -18.1909  -42.1194 C.3       6 UNK        -0.1800 
     44 N           3.8282  -17.3890  -41.0877 N.am      6 UNK        -0.5000 
     45 C           2.5749  -17.4094  -40.6118 C.2       5 UNK         0.5000 
     46 O           1.7598  -18.2942  -40.8699 O.2       5 UNK        -0.5000 
     47 CA          2.1458  -16.2067  -39.7496 C.3       5 UNK         0.1400 
     48 CB          2.5391  -16.4253  -38.2809 C.3       5 UNK        -0.1800 
     49 N           2.6989  -14.9317  -40.2208 N.am      5 UNK        -0.5000 
     50 C           2.4551  -14.4080  -41.4286 C.2       4 UNK         0.5000 
     51 O           1.7398  -14.9530  -42.2761 O.2       4 UNK        -0.5000 
     52 CA          3.1537  -13.0845  -41.7688 C.3       4 UNK         0.1400 
     53 CB          4.6488  -13.3041  -42.0612 C.3       4 UNK        -0.1800 
     54 N           2.4953  -12.5529  -42.9513 N.am      4 UNK        -0.5000 
     55 C           2.4213  -11.2796  -43.3447 C.2       3 UNK         0.5000 
     56 O           2.9930  -10.3489  -42.7758 O.2       3 UNK        -0.5000 
     57 CA          1.5465  -11.0043  -44.5854 C.3       3 UNK         0.1400 
     58 CB          2.4235  -10.8576  -45.8386 C.3       3 UNK        -0.1800 
     59 N           0.5535  -12.0558  -44.8304 N.am      3 UNK        -0.5000 
     60 C          -0.5418  -12.2784  -44.0925 C.2       2 UNK         0.5000 
     61 O          -0.8706  -11.5693  -43.1400 O.2       2 UNK        -0.5000 
     62 CA         -1.4049  -13.4931  -44.4996 C.3       2 UNK         0.1400 
     63 CB         -2.6657  -13.6496  -43.6304 C.3       2 UNK        -0.1800 
     64 N          -1.8149  -13.4412  -45.9025 N.am      2 UNK        -0.5000 
     65 C          -1.0501  -13.7152  -46.9651 C.2       1 UNK         0.5000 
     66 O           0.1283  -14.0615  -46.8700 O.2       1 UNK        -0.5000 
     67 C          -2.6610  -21.0160  -47.5307 C.2       11 UNK         0.5000 
     68 O          -3.3889  -21.4895  -48.4004 O.2       11 UNK        -0.5000 
     69 N          -2.7900  -21.3123  -46.2298 N.am      12 UNK        -0.5000 
     70 CA         -3.7619  -22.2736  -45.7089 C.3       12 UNK         0.1400 
     71 CB         -3.8230  -22.1669  -44.1773 C.3       12 UNK        -0.1800 
     72 C          -3.4613  -23.7193  -46.1495 C.2       12 UNK         0.5000 
     73 O          -4.3793  -24.4331  -46.5562 O.2       12 UNK        -0.5000 
     74 N          -2.1859  -24.1218  -46.0621 N.am      13 UNK        -0.5000 
     75 CA         -1.7102  -25.4565  -46.4244 C.3       13 UNK         0.1400 
     76 CB         -0.2918  -25.6599  -45.8694 C.3       13 UNK        -0.1800 
     77 C          -1.7362  -25.7226  -47.9400 C.2       13 UNK         0.5000 
     78 O          -2.0909  -26.8278  -48.3520 O.2       13 UNK        -0.5000 
     79 N          -1.3601  -24.7176  -48.7373 N.am      14 UNK        -0.5000 
     80 CA         -1.2373  -24.7928  -50.1870 C.3       14 UNK         0.1400 
     81 CB          0.2508  -24.9767  -50.5361 C.3       14 UNK        -0.1800 
     82 C          -1.8461  -23.5215  -50.8134 C.2       14 UNK         0.5000 
     83 O          -1.1033  -22.6077  -51.1646 O.2       14 UNK        -0.5000 
     84 N          -3.1718  -23.4296  -50.9698 N.am      15 UNK        -0.5000 
     85 CA         -4.1978  -24.4076  -50.6194 C.3       15 UNK         0.1400 
     86 CB         -4.4019  -25.3868  -51.7924 C.3       15 UNK        -0.1800 
     87 C          -5.5071  -23.6916  -50.2494 C.2       15 UNK         0.5000 
     88 O          -5.6465  -22.4854  -50.4730 O.2       15 UNK        -0.5000 
     89 N          -6.4444  -24.4732  -49.6948 N.am      16 UNK        -0.5000 
     90 CA         -7.7597  -24.0605  -49.1987 C.3       16 UNK         0.1400 
     91 CB         -8.5404  -25.3141  -48.7769 C.3       16 UNK        -0.1800 
     92 C          -8.5869  -23.2241  -50.1957 C.2       16 UNK         0.5000 
     93 O          -8.4729  -23.4120  -51.4087 O.2       16 UNK        -0.5000 
     94 N          -9.3989  -22.3128  -49.6400 N.am      17 UNK        -0.5000 
     95 CA        -10.1454  -21.2497  -50.3285 C.3       17 UNK         0.1400 
     96 CB        -11.1525  -21.8205  -51.3499 C.3       17 UNK        -0.1800 
     97 C          -9.2237  -20.1611  -50.9240 C.2       17 UNK         0.5000 
     98 O          -9.6190  -19.4706  -51.8650 O.2       17 UNK        -0.5000 
     99 N          -8.0230  -20.0183  -50.3382 N.am      18 UNK        -0.5000 
    100 CA        -6.9603  -19.0693  -50.6800 C.3       18 UNK         0.1400 
    101 CB        -7.3792  -17.6279  -50.3220 C.3       18 UNK        -0.1800 
    102 C         -6.4664  -19.2159  -52.1338 C.2       18 UNK         0.5000 
    103 O         -6.3172  -18.2203  -52.8455 O.2       18 UNK        -0.5000 
    104 N         -6.2116  -20.4624  -52.5461 N.am      19 UNK        -0.5000 
    105 CA        -5.5969  -20.7871  -53.8288 C.3       19 UNK         0.1400 
    106 CB        -5.9689  -22.2264  -54.2102 C.3       19 UNK        -0.1800 
    107 C         -4.0727  -20.6275  -53.7196 C.2       19 UNK         0.5000 
    108 O         -3.4841  -21.1064  -52.7494 O.2       19 UNK        -0.5000 
    109 N         -3.4537  -19.9823  -54.7148 N.am      20 UNK        -0.5000 
    110 CA        -2.0099  -19.7483  -54.7818 C.3       20 UNK         0.1400 
    111 CB        -1.7428  -18.4814  -55.6128 C.3       20 UNK        -0.1800 
    112 C         -1.2686  -20.9890  -55.3161 C.2       20 UNK         0.5000 
    113 O         -0.7281  -20.9614  -56.4229 O.2       20 UNK        -0.5000 
    114 N         -1.2929  -22.0705  -54.5301 N.am      21 UNK        -0.5000 
    115 CA        -0.7975  -23.3962  -54.9043 C.3       21 UNK         0.1400 
    116 CB        -1.8788  -24.4346  -54.5565 C.3       21 UNK        -0.1800 
    117 C          0.5582  -23.7399  -54.2541 C.2       21 UNK         0.5000 
    118 O          0.9250  -24.9156  -54.2284 O.2       21 UNK        -0.5000 
    119 N          1.2782  -22.7315  -53.7399 N.am      22 UNK        -0.5000 
    120 CA         2.5691  -22.8723  -53.0346 C.3       22 UNK         0.1400 
    121 C          3.7262  -23.5108  -53.8622 C.2       22 UNK         0.5000 
    122 N          3.6805  -23.5005  -55.1889 N.am      22 UNK        -0.7600 
    123 O          4.6852  -24.0181  -53.2871 O.2       22 UNK        -0.5000 
    124 C124        3.0669  -21.5352  -52.4207 C.3       23 UNK        -0.0398 
    125 S125        1.8333  -20.6594  -51.3998 S.3       23 UNK        -0.2404 
    126 C126        1.4736  -19.2435  -52.4920 C.3       23 UNK        -0.0205 
    127 H127       -5.1065  -15.5885  -49.1275 H         1 UNK         0.0600 
    128 H128       -6.2160  -14.4394  -48.3847 H         1 UNK         0.0600 
    129 H129       -5.4306  -15.6726  -47.3902 H         1 UNK         0.0600 
    130 H130       -2.8348  -15.2534  -48.9386 H         1 UNK         0.3000 
    131 H131       -2.0022  -12.5126  -48.4310 H         1 UNK         0.0600 
    132 H132       -0.3777  -14.8778  -49.4653 H         1 UNK         0.0800 
    133 H133        0.1588  -13.2164  -49.4236 H         1 UNK         0.0800 
    134 H134        0.5270  -14.3226  -52.1827 H         1 UNK         0.0800 
    135 H135       -0.8427  -14.4658  -53.2571 H         1 UNK         0.0800 
    136 H136        1.2927  -16.5553  -52.7327 H         1 UNK         0.1150 
    137 H137       -0.8800  -19.9283  -51.2287 H         1 UNK         0.1150 
    138 H138       -2.6366  -16.0353  -51.0950 H         1 UNK         0.1150 
    139 H139       -3.9740  -18.3200  -51.0408 H         1 UNK         0.0800 
    140 H140       -3.1034  -19.7075  -50.4493 H         1 UNK         0.0800 
    141 H141       -2.0184  -18.2889  -46.7916 H         1 UNK         0.0800 
    142 H142       -1.0632  -17.9590  -48.2053 H         1 UNK         0.0800 
    143 H143       -1.2876  -20.2883  -48.9829 H         1 UNK         0.0600 
    144 H144        0.0678  -19.5847  -46.6101 H         1 UNK         0.3000 
    145 H145        1.9192  -22.6510  -46.2826 H         1 UNK         0.0600 
    146 H146        3.7294  -20.9721  -46.2995 H         1 UNK         0.0600 
    147 H147        3.0611  -21.1366  -47.9170 H         1 UNK         0.0600 
    148 H148        2.6358  -19.7433  -46.9319 H         1 UNK         0.0600 
    149 H149        1.8971  -20.3693  -44.6181 H         1 UNK         0.3000 
    150 H150       -0.7596  -21.4226  -42.4173 H         1 UNK         0.0600 
    151 H151        1.3751  -22.5118  -41.6990 H         1 UNK         0.0600 
    152 H152        1.0681  -21.0321  -40.8028 H         1 UNK         0.0600 
    153 H153        2.2646  -21.0465  -42.0965 H         1 UNK         0.0600 
    154 H154        0.7764  -19.0554  -42.3796 H         1 UNK         0.3000 
    155 H155       -1.3905  -17.0422  -44.4428 H         1 UNK         0.0600 
    156 H156       -0.6193  -17.1750  -41.4750 H         1 UNK         0.0600 
    157 H157       -2.2358  -16.9704  -42.1346 H         1 UNK         0.0600 
    158 H158       -1.0385  -15.6972  -42.3239 H         1 UNK         0.0600 
    159 H159        1.1071  -16.4282  -43.2610 H         1 UNK         0.3000 
    160 H160        3.2483  -17.4794  -45.9268 H         1 UNK         0.0600 
    161 H161        2.3822  -14.7289  -44.8905 H         1 UNK         0.0600 
    162 H162        2.5344  -15.2267  -46.5679 H         1 UNK         0.0600 
    163 H163        3.9701  -15.0931  -45.5664 H         1 UNK         0.0600 
    164 H164        3.6554  -16.3027  -43.3243 H         1 UNK         0.3000 
    165 H165        4.1898  -19.3755  -41.5905 H         1 UNK         0.0600 
    166 H166        6.3815  -18.3067  -41.1491 H         1 UNK         0.0600 
    167 H167        6.3369  -18.9306  -42.7904 H         1 UNK         0.0600 
    168 H168        6.1531  -17.2037  -42.5068 H         1 UNK         0.0600 
    169 H169        4.4320  -16.6249  -40.8234 H         1 UNK         0.3000 
    170 H170        1.0571  -16.1367  -39.8038 H         1 UNK         0.0600 
    171 H171        2.1242  -17.3602  -37.9010 H         1 UNK         0.0600 
    172 H172        3.6217  -16.4712  -38.1551 H         1 UNK         0.0600 
    173 H173        2.1605  -15.6228  -37.6476 H         1 UNK         0.0600 
    174 H174        3.2979  -14.4334  -39.5781 H         1 UNK         0.3000 
    175 H175        3.0267  -12.3930  -40.9335 H         1 UNK         0.0600 
    176 H176        4.7991  -13.9997  -42.8879 H         1 UNK         0.0600 
    177 H177        5.1408  -12.3669  -42.3225 H         1 UNK         0.0600 
    178 H178        5.1669  -13.7081  -41.1906 H         1 UNK         0.0600 
    179 H179        1.9398  -13.2433  -43.4397 H         1 UNK         0.3000 
    180 H180        1.0198  -10.0623  -44.4187 H         1 UNK         0.0600 
    181 H181        2.9623  -11.7797  -46.0617 H         1 UNK         0.0600 
    182 H182        3.1639  -10.0671  -45.7081 H         1 UNK         0.0600 
    183 H183        1.8237  -10.5994  -46.7117 H         1 UNK         0.0600 
    184 H184        0.7267  -12.6830  -45.6104 H         1 UNK         0.3000 
    185 H185       -0.7860  -14.3804  -44.3541 H         1 UNK         0.0600 
    186 H186       -2.4125  -13.7046  -42.5710 H         1 UNK         0.0600 
    187 H187       -3.3498  -12.8102  -43.7611 H         1 UNK         0.0600 
    188 H188       -3.2046  -14.5635  -43.8814 H         1 UNK         0.0600 
    189 H189       -2.7702  -13.1498  -46.0864 H         1 UNK         0.3000 
    190 H190       -2.1972  -20.8430  -45.5511 H         1 UNK         0.3000 
    191 H191       -4.7442  -22.0047  -46.1034 H         1 UNK         0.0600 
    192 H192       -2.8601  -22.3916  -43.7177 H         1 UNK         0.0600 
    193 H193       -4.5546  -22.8634  -43.7659 H         1 UNK         0.0600 
    194 H194       -4.1154  -21.1644  -43.8644 H         1 UNK         0.0600 
    195 H195       -1.4945  -23.4850  -45.6742 H         1 UNK         0.3000 
    196 H196       -2.3659  -26.1885  -45.9480 H         1 UNK         0.0600 
    197 H197        0.0867  -26.6531  -46.1140 H         1 UNK         0.0600 
    198 H198       -0.2762  -25.5639  -44.7834 H         1 UNK         0.0600 
    199 H199        0.4077  -24.9301  -46.2795 H         1 UNK         0.0600 
    200 H200       -1.0529  -23.8371  -48.3267 H         1 UNK         0.3000 
    201 H201       -1.7673  -25.6613  -50.5771 H         1 UNK         0.0600 
    202 H202        0.6527  -25.8848  -50.0867 H         1 UNK         0.0600 
    203 H203        0.8552  -24.1371  -50.1893 H         1 UNK         0.0600 
    204 H204        0.3865  -25.0622  -51.6126 H         1 UNK         0.0600 
    205 H205       -3.5451  -22.5536  -51.3250 H         1 UNK         0.3000 
    206 H206       -3.8960  -24.9636  -49.7324 H         1 UNK         0.0600 
    207 H207       -4.6864  -24.8660  -52.7058 H         1 UNK         0.0600 
    208 H208       -3.4995  -25.9559  -52.0102 H         1 UNK         0.0600 
    209 H209       -5.1862  -26.1120  -51.5736 H         1 UNK         0.0600 
    210 H210       -6.2315  -25.4523  -49.5784 H         1 UNK         0.3000 
    211 H211       -7.5795  -23.4513  -48.3112 H         1 UNK         0.0600 
    212 H212       -8.7053  -25.9851  -49.6206 H         1 UNK         0.0600 
    213 H213       -9.5181  -25.0509  -48.3714 H         1 UNK         0.0600 
    214 H214       -8.0097  -25.8701  -48.0038 H         1 UNK         0.0600 
    215 H215       -9.4454  -22.2746  -48.6309 H         1 UNK         0.3000 
    216 H216      -10.7271  -20.7481  -49.5535 H         1 UNK         0.0600 
    217 H217      -11.8324  -21.0431  -51.7010 H         1 UNK         0.0600 
    218 H218      -11.7624  -22.6070  -50.9063 H         1 UNK         0.0600 
    219 H219      -10.6551  -22.2337  -52.2277 H         1 UNK         0.0600 
    220 H220       -7.7910  -20.6683  -49.6010 H         1 UNK         0.3000 
    221 H221       -6.1095  -19.3289  -50.0474 H         1 UNK         0.0600 
    222 H222       -8.2310  -17.2929  -50.9153 H         1 UNK         0.0600 
    223 H223       -7.6483  -17.5452  -49.2688 H         1 UNK         0.0600 
    224 H224       -6.5618  -16.9298  -50.5024 H         1 UNK         0.0600 
    225 H225       -6.2589  -21.2177  -51.8675 H         1 UNK         0.3000 
    226 H226       -5.9806  -20.1158  -54.6003 H         1 UNK         0.0600 
    227 H227       -7.0476  -22.3354  -54.3275 H         1 UNK         0.0600 
    228 H228       -5.5032  -22.5176  -55.1528 H         1 UNK         0.0600 
    229 H229       -5.6458  -22.9346  -53.4478 H         1 UNK         0.0600 
    230 H230       -3.9971  -19.6446  -55.4959 H         1 UNK         0.3000 
    231 H231       -1.6357  -19.5607  -53.7780 H         1 UNK         0.0600 
    232 H232       -2.2189  -17.6106  -55.1616 H         1 UNK         0.0600 
    233 H233       -2.1153  -18.5789  -56.6331 H         1 UNK         0.0600 
    234 H234       -0.6739  -18.2704  -55.6687 H         1 UNK         0.0600 
    235 H235       -1.7565  -21.9983  -53.6288 H         1 UNK         0.3000 
    236 H236       -0.6405  -23.4429  -55.9835 H         1 UNK         0.0600 
    237 H237       -1.6084  -25.4248  -54.9247 H         1 UNK         0.0600 
    238 H238       -2.0262  -24.5152  -53.4816 H         1 UNK         0.0600 
    239 H239       -2.8371  -24.1741  -55.0061 H         1 UNK         0.0600 
    240 H240        0.8796  -21.8060  -53.7604 H         1 UNK         0.3000 
    241 H241        2.3832  -23.5569  -52.2057 H         1 UNK         0.0600 
    242 H242        2.8967  -23.0925  -55.6724 H         1 UNK         0.3800 
    243 H243        4.4322  -23.9176  -55.7153 H         1 UNK         0.3800 
    244 H244        3.9325  -21.7206  -51.7822 H         1 UNK         0.0800 
    245 H245        3.4211  -20.8680  -53.2084 H         1 UNK         0.0800 
    246 H246        1.2111  -19.6116  -53.4836 H         1 UNK         0.0800 
    247 H247        2.3897  -18.6628  -52.6076 H         1 UNK         0.0800 
@<TRIPOS>BOND
     1    1    2 1    
     2    1  127 1    
     3    1  128 1    
     4    1  129 1    
     5    2    3 2    
     6    2    4 am   BACKBONE|DICT|INTERRES
     7    4    5 1    
     8    4  130 1    
     9    5    6 1    
    10    5   65 1    
    11    5  131 1    
    12    6    7 1    
    13    6  132 1    
    14    6  133 1    
    15    7    8 1    
    16    8    9 1    
    17    8  134 1    
    18    8  135 1    
    19    9   10 ar   
    20    9   14 ar   
    21   10   11 ar   
    22   10  136 1    
    23   11   12 ar   
    24   11  126 1    
    25   12   13 ar   
    26   12  137 1    
    27   13   14 ar   
    28   13   15 1    
    29   14  138 1    
    30   15   16 1    
    31   15  139 1    
    32   15  140 1    
    33   16   17 1    
    34   17   18 1    
    35   17  141 1    
    36   17  142 1    
    37   18   19 1    
    38   18   67 1    
    39   18  143 1    
    40   19   20 am   BACKBONE|DICT|INTERRES
    41   19  144 1    
    42   20   21 2    
    43   20   22 1    
    44   22   23 1    
    45   22   24 1    
    46   22  145 1    
    47   23  146 1    
    48   23  147 1    
    49   23  148 1    
    50   24   25 am   BACKBONE|DICT|INTERRES
    51   24  149 1    
    52   25   26 2    
    53   25   27 1    
    54   27   28 1    
    55   27   29 1    
    56   27  150 1    
    57   28  151 1    
    58   28  152 1    
    59   28  153 1    
    60   29   30 am   BACKBONE|DICT|INTERRES
    61   29  154 1    
    62   30   31 2    
    63   30   32 1    
    64   32   33 1    
    65   32   34 1    
    66   32  155 1    
    67   33  156 1    
    68   33  157 1    
    69   33  158 1    
    70   34   35 am   BACKBONE|DICT|INTERRES
    71   34  159 1    
    72   35   36 2    
    73   35   37 1    
    74   37   38 1    
    75   37   39 1    
    76   37  160 1    
    77   38  161 1    
    78   38  162 1    
    79   38  163 1    
    80   39   40 am   BACKBONE|DICT|INTERRES
    81   39  164 1    
    82   40   41 2    
    83   40   42 1    
    84   42   43 1    
    85   42   44 1    
    86   42  165 1    
    87   43  166 1    
    88   43  167 1    
    89   43  168 1    
    90   44   45 am   BACKBONE|DICT|INTERRES
    91   44  169 1    
    92   45   46 2    
    93   45   47 1    
    94   47   48 1    
    95   47   49 1    
    96   47  170 1    
    97   48  171 1    
    98   48  172 1    
    99   48  173 1    
   100   49   50 am   BACKBONE|DICT|INTERRES
   101   49  174 1    
   102   50   51 2    
   103   50   52 1    
   104   52   53 1    
   105   52   54 1    
   106   52  175 1    
   107   53  176 1    
   108   53  177 1    
   109   53  178 1    
   110   54   55 am   BACKBONE|DICT|INTERRES
   111   54  179 1    
   112   55   56 2    
   113   55   57 1    
   114   57   58 1    
   115   57   59 1    
   116   57  180 1    
   117   58  181 1    
   118   58  182 1    
   119   58  183 1    
   120   59   60 am   BACKBONE|DICT|INTERRES
   121   59  184 1    
   122   60   61 2    
   123   60   62 1    
   124   62   63 1    
   125   62   64 1    
   126   62  185 1    
   127   63  186 1    
   128   63  187 1    
   129   63  188 1    
   130   64   65 am   BACKBONE|DICT|INTERRES
   131   64  189 1    
   132   65   66 2    
   133   67   68 2    
   134   67   69 am   BACKBONE|DICT|INTERRES
   135   69   70 1    
   136   69  190 1    
   137   70   71 1    
   138   70   72 1    
   139   70  191 1    
   140   71  192 1    
   141   71  193 1    
   142   71  194 1    
   143   72   73 2    
   144   72   74 am   BACKBONE|DICT|INTERRES
   145   74   75 1    
   146   74  195 1    
   147   75   76 1    
   148   75   77 1    
   149   75  196 1    
   150   76  197 1    
   151   76  198 1    
   152   76  199 1    
   153   77   78 2    
   154   77   79 am   BACKBONE|DICT|INTERRES
   155   79   80 1    
   156   79  200 1    
   157   80   81 1    
   158   80   82 1    
   159   80  201 1    
   160   81  202 1    
   161   81  203 1    
   162   81  204 1    
   163   82   83 2    
   164   82   84 am   BACKBONE|DICT|INTERRES
   165   84   85 1    
   166   84  205 1    
   167   85   86 1    
   168   85   87 1    
   169   85  206 1    
   170   86  207 1    
   171   86  208 1    
   172   86  209 1    
   173   87   88 2    
   174   87   89 am   BACKBONE|DICT|INTERRES
   175   89   90 1    
   176   89  210 1    
   177   90   91 1    
   178   90   92 1    
   179   90  211 1    
   180   91  212 1    
   181   91  213 1    
   182   91  214 1    
   183   92   93 2    
   184   92   94 am   BACKBONE|DICT|INTERRES
   185   94   95 1    
   186   94  215 1    
   187   95   96 1    
   188   95   97 1    
   189   95  216 1    
   190   96  217 1    
   191   96  218 1    
   192   96  219 1    
   193   97   98 2    
   194   97   99 am   BACKBONE|DICT|INTERRES
   195   99  100 1    
   196   99  220 1    
   197  100  101 1    
   198  100  102 1    
   199  100  221 1    
   200  101  222 1    
   201  101  223 1    
   202  101  224 1    
   203  102  103 2    
   204  102  104 am   BACKBONE|DICT|INTERRES
   205  104  105 1    
   206  104  225 1    
   207  105  106 1    
   208  105  107 1    
   209  105  226 1    
   210  106  227 1    
   211  106  228 1    
   212  106  229 1    
   213  107  108 2    
   214  107  109 am   BACKBONE|DICT|INTERRES
   215  109  110 1    
   216  109  230 1    
   217  110  111 1    
   218  110  112 1    
   219  110  231 1    
   220  111  232 1    
   221  111  233 1    
   222  111  234 1    
   223  112  113 2    
   224  112  114 am   BACKBONE|DICT|INTERRES
   225  114  115 1    
   226  114  235 1    
   227  115  116 1    
   228  115  117 1    
   229  115  236 1    
   230  116  237 1    
   231  116  238 1    
   232  116  239 1    
   233  117  118 2    
   234  117  119 am   BACKBONE|DICT|INTERRES
   235  119  120 1    
   236  119  240 1    
   237  120  121 1    
   238  120  124 1    
   239  120  241 1    
   240  121  122 am   BACKBONE|DICT|INTERRES
   241  121  123 2    
   242  122  242 1    
   243  122  243 1    
   244  124  125 1    
   245  124  244 1    
   246  124  245 1    
   247  125  126 1    
   248  126  246 1    
   249  126  247 1    
@<TRIPOS>SUBSTRUCTURE
     1 UNK         1 GROUP             0       ****    0 ROOT    
