@<TRIPOS>MOLECULE
3R540
247   249    1
SMALL
USER_CHARGES


@<TRIPOS>ATOM
      1 CA          8.3809  -14.5124  -46.1344 C.3       0 UNK        -0.1800 
      2 C           7.0077  -14.9132  -45.6161 C.2       0 UNK         0.5000 
      3 O           6.8485  -15.1465  -44.4177 O.2       0 UNK        -0.5000 
      4 N           6.0092  -14.9762  -46.5086 N.am      1 UNK        -0.5000 
      5 CA          4.6281  -15.3975  -46.2181 C.3       1 UNK         0.1400 
      6 C6          3.7676  -15.5513  -47.4976 C.3       23 UNK        -0.0398 
      7 S7          4.5608  -16.6303  -48.7374 S.3       23 UNK        -0.2404 
      8 C8          3.7748  -16.0754  -50.2835 C.3       23 UNK        -0.0205 
      9 C9          2.6148  -16.9783  -50.6706 C.ar      23 UNK        -0.0193 
     10 C10         1.2901  -16.5663  -50.4955 C.ar      23 UNK        -0.1150 
     11 C11         0.2327  -17.4045  -50.8676 C.ar      23 UNK        -0.0193 
     12 C12         0.5124  -18.6691  -51.3948 C.ar      23 UNK        -0.1150 
     13 C13         1.8319  -19.0815  -51.5957 C.ar      23 UNK        -0.0193 
     14 C14         2.8772  -18.2308  -51.2307 C.ar      23 UNK        -0.1150 
     15 C15         2.1387  -20.4377  -52.2182 C.3       23 UNK        -0.0205 
     16 S16         1.3925  -21.8328  -51.3158 S.3       23 UNK        -0.2404 
     17 C17         2.0884  -21.6290  -49.6316 C.3       23 UNK        -0.0398 
     18 CA          1.1765  -21.9643  -48.4084 C.3       11 UNK         0.1400 
     19 N           1.4325  -21.0755  -47.2727 N.am      11 UNK        -0.5000 
     20 C           2.4370  -21.2471  -46.4011 C.2       10 UNK         0.5000 
     21 O           3.2620  -22.1578  -46.4843 O.2       10 UNK        -0.5000 
     22 CA          2.5482  -20.2450  -45.2324 C.3       10 UNK         0.1400 
     23 CB          3.5741  -19.1525  -45.5748 C.3       10 UNK        -0.1800 
     24 N           1.2804  -19.6034  -44.8864 N.am      10 UNK        -0.5000 
     25 C           0.1693  -20.2239  -44.4676 C.2       9 UNK         0.5000 
     26 O           0.1186  -21.4228  -44.1929 O.2       9 UNK        -0.5000 
     27 CA         -1.1211  -19.3797  -44.3978 C.3       9 UNK         0.1400 
     28 CB         -1.6107  -19.2371  -42.9507 C.3       9 UNK        -0.1800 
     29 N          -1.0501  -18.0480  -45.0202 N.am      9 UNK        -0.5000 
     30 C          -0.8061  -17.8139  -46.3202 C.2       8 UNK         0.5000 
     31 O          -0.4792  -18.6992  -47.1135 O.2       8 UNK        -0.5000 
     32 CA         -0.9330  -16.3744  -46.8330 C.3       8 UNK         0.1400 
     33 CB         -2.3698  -16.0995  -47.3060 C.3       8 UNK        -0.1800 
     34 N          -0.5736  -15.3718  -45.8324 N.am      8 UNK        -0.5000 
     35 C           0.1139  -14.2532  -46.1074 C.2       7 UNK         0.5000 
     36 O           0.6821  -14.0517  -47.1824 O.2       7 UNK        -0.5000 
     37 CA          0.1440  -13.1622  -45.0117 C.3       7 UNK         0.1400 
     38 CB          0.3546  -11.7436  -45.5817 C.3       7 UNK        -0.1800 
     39 N          -1.0229  -13.2032  -44.1271 N.am      7 UNK        -0.5000 
     40 C          -2.3167  -13.0832  -44.4681 C.2       6 UNK         0.5000 
     41 O          -2.6984  -12.7328  -45.5853 O.2       6 UNK        -0.5000 
     42 CA         -3.3642  -13.4480  -43.3893 C.3       6 UNK         0.1400 
     43 CB         -4.5331  -14.2639  -43.9800 C.3       6 UNK        -0.1800 
     44 N          -2.8136  -14.1348  -42.2104 N.am      6 UNK        -0.5000 
     45 C          -2.1537  -15.3018  -42.1781 C.2       5 UNK         0.5000 
     46 O          -1.9159  -15.9944  -43.1739 O.2       5 UNK        -0.5000 
     47 CA         -1.6243  -15.7277  -40.7955 C.3       5 UNK         0.1400 
     48 CB         -2.5631  -16.7548  -40.1459 C.3       5 UNK        -0.1800 
     49 N          -0.2676  -16.2756  -40.8540 N.am      5 UNK        -0.5000 
     50 C           0.8073  -15.6332  -41.3318 C.2       4 UNK         0.5000 
     51 O           0.7771  -14.4806  -41.7736 O.2       4 UNK        -0.5000 
     52 CA          2.1215  -16.4331  -41.3197 C.3       4 UNK         0.1400 
     53 CB          2.1070  -17.5176  -42.4066 C.3       4 UNK        -0.1800 
     54 N           3.2671  -15.5597  -41.5583 N.am      4 UNK        -0.5000 
     55 C           4.0480  -15.0388  -40.6024 C.2       3 UNK         0.5000 
     56 O           3.9016  -15.2723  -39.4016 O.2       3 UNK        -0.5000 
     57 CA          5.1990  -14.1122  -41.0485 C.3       3 UNK         0.1400 
     58 CB          6.5355  -14.8695  -41.0233 C.3       3 UNK        -0.1800 
     59 N           5.0004  -13.5470  -42.3834 N.am      3 UNK        -0.5000 
     60 C           4.1207  -12.5755  -42.6675 C.2       2 UNK         0.5000 
     61 O           3.4651  -11.9830  -41.8102 O.2       2 UNK        -0.5000 
     62 CA          3.9253  -12.1991  -44.1510 C.3       2 UNK         0.1400 
     63 CB          4.6477  -10.8816  -44.4706 C.3       2 UNK        -0.1800 
     64 N           4.3654  -13.2174  -45.1082 N.am      2 UNK        -0.5000 
     65 C           3.9183  -14.4794  -45.2006 C.2       1 UNK         0.5000 
     66 O           3.0261  -14.9417  -44.4920 O.2       1 UNK        -0.5000 
     67 C          -0.3357  -22.1231  -48.6836 C.2       11 UNK         0.5000 
     68 O          -0.7275  -23.1740  -49.1917 O.2       11 UNK        -0.5000 
     69 N          -1.1818  -21.1482  -48.3055 N.am      12 UNK        -0.5000 
     70 CA         -2.6356  -21.1949  -48.5184 C.3       12 UNK         0.1400 
     71 CB         -3.2913  -19.9042  -48.0135 C.3       12 UNK        -0.1800 
     72 C          -3.3329  -22.4133  -47.8874 C.2       12 UNK         0.5000 
     73 O          -4.2910  -22.9226  -48.4677 O.2       12 UNK        -0.5000 
     74 N          -2.8219  -22.8783  -46.7392 N.am      13 UNK        -0.5000 
     75 CA         -3.2880  -24.0826  -46.0516 C.3       13 UNK         0.1400 
     76 CB         -2.6267  -24.1612  -44.6675 C.3       13 UNK        -0.1800 
     77 C          -3.0221  -25.3660  -46.8619 C.2       13 UNK         0.5000 
     78 O          -3.9022  -26.2226  -46.9510 O.2       13 UNK        -0.5000 
     79 N          -1.8331  -25.4528  -47.4760 N.am      14 UNK        -0.5000 
     80 CA         -1.4347  -26.5422  -48.3716 C.3       14 UNK         0.1400 
     81 CB          0.0862  -26.5010  -48.5861 C.3       14 UNK        -0.1800 
     82 C          -2.1818  -26.4897  -49.7173 C.2       14 UNK         0.5000 
     83 O          -2.4826  -27.5371  -50.2895 O.2       14 UNK        -0.5000 
     84 N          -2.5184  -25.2729  -50.1655 N.am      15 UNK        -0.5000 
     85 CA         -3.3406  -24.9850  -51.3414 C.3       15 UNK         0.1400 
     86 CB         -2.9955  -23.5776  -51.8579 C.3       15 UNK        -0.1800 
     87 C          -4.8594  -25.1404  -51.0936 C.2       15 UNK         0.5000 
     88 O          -5.6467  -24.6729  -51.9182 O.2       15 UNK        -0.5000 
     89 N          -5.2479  -25.7839  -49.9819 N.am      16 UNK        -0.5000 
     90 CA         -6.6136  -26.1308  -49.5770 C.3       16 UNK         0.1400 
     91 CB         -7.2343  -27.1415  -50.5647 C.3       16 UNK        -0.1800 
     92 C          -7.4963  -24.8909  -49.3367 C.2       16 UNK         0.5000 
     93 O          -8.5796  -24.7767  -49.9108 O.2       16 UNK        -0.5000 
     94 N          -6.9916  -23.9812  -48.4919 N.am      17 UNK        -0.5000 
     95 CA         -7.5607  -22.6738  -48.1454 C.3       17 UNK         0.1400 
     96 CB         -8.9409  -22.8115  -47.4681 C.3       17 UNK        -0.1800 
     97 C          -7.5534  -21.7155  -49.3527 C.2       17 UNK         0.5000 
     98 O          -8.5477  -21.0398  -49.6235 O.2       17 UNK        -0.5000 
     99 N          -6.4084  -21.6945  -50.0504 N.am      18 UNK        -0.5000 
    100 CA        -6.1039  -20.9089  -51.2498 C.3       18 UNK         0.1400 
    101 CB        -6.0225  -19.4051  -50.9132 C.3       18 UNK        -0.1800 
    102 C         -7.0410  -21.2106  -52.4411 C.2       18 UNK         0.5000 
    103 O         -7.4057  -20.3026  -53.1908 O.2       18 UNK        -0.5000 
    104 N         -7.4180  -22.4851  -52.5977 N.am      19 UNK        -0.5000 
    105 CA        -8.2496  -22.9676  -53.6971 C.3       19 UNK         0.1400 
    106 CB        -9.0856  -24.1619  -53.2142 C.3       19 UNK        -0.1800 
    107 C         -7.3956  -23.3629  -54.9122 C.2       19 UNK         0.5000 
    108 O         -7.7697  -23.0539  -56.0442 O.2       19 UNK        -0.5000 
    109 N         -6.2691  -24.0436  -54.6598 N.am      20 UNK        -0.5000 
    110 CA        -5.3685  -24.5588  -55.6937 C.3       20 UNK         0.1400 
    111 CB        -4.5604  -25.7277  -55.1107 C.3       20 UNK        -0.1800 
    112 C         -4.4205  -23.4878  -56.2656 C.2       20 UNK         0.5000 
    113 O         -3.9484  -23.6386  -57.3933 O.2       20 UNK        -0.5000 
    114 N         -4.1506  -22.4383  -55.4836 N.am      21 UNK        -0.5000 
    115 CA        -3.2551  -21.3305  -55.7976 C.3       21 UNK         0.1400 
    116 CB        -1.7888  -21.7802  -55.6482 C.3       21 UNK        -0.1800 
    117 C         -3.5653  -20.1770  -54.8357 C.2       21 UNK         0.5000 
    118 O         -4.1884  -20.4062  -53.7983 O.2       21 UNK        -0.5000 
    119 N         -3.1152  -18.9649  -55.1795 N.am      22 UNK        -0.5000 
    120 CA        -3.2216  -17.7262  -54.3807 C.3       22 UNK         0.1400 
    121 C         -4.6476  -17.1004  -54.2977 C.2       22 UNK         0.5000 
    122 N         -5.7218  -17.8659  -54.4293 N.am      22 UNK        -0.7600 
    123 O         -4.7824  -15.8885  -54.1549 O.2       22 UNK        -0.5000 
    124 C124       -2.5699  -17.8853  -52.9784 C.3       23 UNK        -0.0398 
    125 S125       -1.9274  -16.3368  -52.2587 S.3       23 UNK        -0.2404 
    126 C126       -1.2076  -16.9435  -50.6972 C.3       23 UNK        -0.0205 
    127 H127        9.1031  -15.3027  -45.9302 H         1 UNK         0.0600 
    128 H128        8.7186  -13.6034  -45.6368 H         1 UNK         0.0600 
    129 H129        8.3711  -14.3294  -47.2091 H         1 UNK         0.0600 
    130 H130        6.2059  -14.7879  -47.4816 H         1 UNK         0.3000 
    131 H131        4.6975  -16.3801  -45.7477 H         1 UNK         0.0600 
    132 H132        2.7908  -15.9752  -47.2563 H         1 UNK         0.0800 
    133 H133        3.5768  -14.5727  -47.9417 H         1 UNK         0.0800 
    134 H134        4.5213  -16.0961  -51.0788 H         1 UNK         0.0800 
    135 H135        3.4513  -15.0367  -50.2048 H         1 UNK         0.0800 
    136 H136        1.0829  -15.5920  -50.0746 H         1 UNK         0.1150 
    137 H137       -0.2925  -19.3400  -51.6538 H         1 UNK         0.1150 
    138 H138        3.9021  -18.5428  -51.3763 H         1 UNK         0.1150 
    139 H139        1.7670  -20.4446  -53.2436 H         1 UNK         0.0800 
    140 H140        3.2156  -20.6017  -52.2812 H         1 UNK         0.0800 
    141 H141        2.4422  -20.6030  -49.5353 H         1 UNK         0.0800 
    142 H142        2.9939  -22.2344  -49.5757 H         1 UNK         0.0800 
    143 H143        1.4605  -22.9711  -48.0926 H         1 UNK         0.0600 
    144 H144        0.8111  -20.2838  -47.1528 H         1 UNK         0.3000 
    145 H145        2.8988  -20.7928  -44.3555 H         1 UNK         0.0600 
    146 H146        3.7331  -18.4771  -44.7352 H         1 UNK         0.0600 
    147 H147        3.2540  -18.5565  -46.4305 H         1 UNK         0.0600 
    148 H148        4.5424  -19.5883  -45.8245 H         1 UNK         0.0600 
    149 H149        1.2036  -18.6213  -45.1026 H         1 UNK         0.3000 
    150 H150       -1.8784  -19.9469  -44.9409 H         1 UNK         0.0600 
    151 H151       -0.9376  -18.6194  -42.3591 H         1 UNK         0.0600 
    152 H152       -1.6875  -20.2075  -42.4587 H         1 UNK         0.0600 
    153 H153       -2.5999  -18.7803  -42.9186 H         1 UNK         0.0600 
    154 H154       -1.3248  -17.2764  -44.4181 H         1 UNK         0.3000 
    155 H155       -0.2651  -16.3011  -47.6936 H         1 UNK         0.0600 
    156 H156       -2.6865  -16.8175  -48.0608 H         1 UNK         0.0600 
    157 H157       -2.4544  -15.1068  -47.7489 H         1 UNK         0.0600 
    158 H158       -3.0806  -16.1563  -46.4810 H         1 UNK         0.0600 
    159 H159       -0.9980  -15.4649  -44.9159 H         1 UNK         0.3000 
    160 H160        0.9938  -13.3961  -44.3737 H         1 UNK         0.0600 
    161 H161       -0.4457  -11.4579  -46.2646 H         1 UNK         0.0600 
    162 H162        1.2912  -11.6780  -46.1365 H         1 UNK         0.0600 
    163 H163        0.3977  -11.0012  -44.7849 H         1 UNK         0.0600 
    164 H164       -0.8172  -13.5032  -43.1821 H         1 UNK         0.3000 
    165 H165       -3.7683  -12.5004  -43.0306 H         1 UNK         0.0600 
    166 H166       -5.2764  -14.4961  -43.2173 H         1 UNK         0.0600 
    167 H167       -5.0434  -13.7087  -44.7678 H         1 UNK         0.0600 
    168 H168       -4.1928  -15.2049  -44.4128 H         1 UNK         0.0600 
    169 H169       -2.9307  -13.6354  -41.3393 H         1 UNK         0.3000 
    170 H170       -1.5860  -14.8468  -40.1514 H         1 UNK         0.0600 
    171 H171       -2.6183  -17.6773  -40.7230 H         1 UNK         0.0600 
    172 H172       -2.2335  -17.0092  -39.1384 H         1 UNK         0.0600 
    173 H173       -3.5767  -16.3603  -40.0641 H         1 UNK         0.0600 
    174 H174       -0.1596  -17.2229  -40.5241 H         1 UNK         0.3000 
    175 H175        2.2198  -16.9219  -40.3482 H         1 UNK         0.0600 
    176 H176        1.8873  -17.1015  -43.3903 H         1 UNK         0.0600 
    177 H177        3.0674  -18.0296  -42.4626 H         1 UNK         0.0600 
    178 H178        1.3560  -18.2768  -42.1929 H         1 UNK         0.0600 
    179 H179        3.3856  -15.2504  -42.5171 H         1 UNK         0.3000 
    180 H180        5.2603  -13.2921  -40.3300 H         1 UNK         0.0600 
    181 H181        7.3644  -14.2189  -41.3028 H         1 UNK         0.0600 
    182 H182        6.5290  -15.7176  -41.7092 H         1 UNK         0.0600 
    183 H183        6.7473  -15.2562  -40.0257 H         1 UNK         0.0600 
    184 H184        5.5141  -13.9849  -43.1398 H         1 UNK         0.3000 
    185 H185        2.8584  -12.0410  -44.2985 H         1 UNK         0.0600 
    186 H186        5.7290  -10.9814  -44.3669 H         1 UNK         0.0600 
    187 H187        4.4353  -10.5511  -45.4875 H         1 UNK         0.0600 
    188 H188        4.3256  -10.0847  -43.7988 H         1 UNK         0.0600 
    189 H189        5.1195  -12.9484  -45.7232 H         1 UNK         0.3000 
    190 H190       -0.8247  -20.2812  -47.9124 H         1 UNK         0.3000 
    191 H191       -2.8007  -21.2461  -49.5949 H         1 UNK         0.0600 
    192 H192       -2.9396  -19.0445  -48.5804 H         1 UNK         0.0600 
    193 H193       -3.0829  -19.7284  -46.9592 H         1 UNK         0.0600 
    194 H194       -4.3755  -19.9443  -48.1223 H         1 UNK         0.0600 
    195 H195       -2.0263  -22.4037  -46.3394 H         1 UNK         0.3000 
    196 H196       -4.3674  -23.9954  -45.9100 H         1 UNK         0.0600 
    197 H197       -2.8773  -23.2903  -44.0613 H         1 UNK         0.0600 
    198 H198       -1.5396  -24.2146  -44.7406 H         1 UNK         0.0600 
    199 H199       -2.9640  -25.0440  -44.1228 H         1 UNK         0.0600 
    200 H200       -1.1973  -24.6710  -47.4123 H         1 UNK         0.3000 
    201 H201       -1.6839  -27.4897  -47.8890 H         1 UNK         0.0600 
    202 H202        0.6206  -26.5743  -47.6388 H         1 UNK         0.0600 
    203 H203        0.4029  -25.5823  -49.0804 H         1 UNK         0.0600 
    204 H204        0.4128  -27.3350  -49.2085 H         1 UNK         0.0600 
    205 H205       -2.1616  -24.4684  -49.6594 H         1 UNK         0.3000 
    206 H206       -3.0747  -25.7005  -52.1210 H         1 UNK         0.0600 
    207 H207       -1.9237  -23.4668  -52.0251 H         1 UNK         0.0600 
    208 H208       -3.3044  -22.8103  -51.1515 H         1 UNK         0.0600 
    209 H209       -3.4932  -23.3679  -52.8045 H         1 UNK         0.0600 
    210 H210       -4.5222  -26.0889  -49.3482 H         1 UNK         0.3000 
    211 H211       -6.5267  -26.6324  -48.6120 H         1 UNK         0.0600 
    212 H212       -7.3680  -26.7135  -51.5581 H         1 UNK         0.0600 
    213 H213       -8.2134  -27.4744  -50.2185 H         1 UNK         0.0600 
    214 H214       -6.6076  -28.0276  -50.6651 H         1 UNK         0.0600 
    215 H215       -6.0462  -24.1294  -48.1596 H         1 UNK         0.3000 
    216 H216       -6.8837  -22.2362  -47.4102 H         1 UNK         0.0600 
    217 H217       -9.2808  -21.8492  -47.0838 H         1 UNK         0.0600 
    218 H218       -8.8993  -23.5010  -46.6251 H         1 UNK         0.0600 
    219 H219       -9.7034  -23.1707  -48.1594 H         1 UNK         0.0600 
    220 H220       -5.6580  -22.2875  -49.7085 H         1 UNK         0.3000 
    221 H221       -5.1096  -21.2281  -51.5595 H         1 UNK         0.0600 
    222 H222       -6.9901  -19.0045  -50.6103 H         1 UNK         0.0600 
    223 H223       -5.3121  -19.2136  -50.1116 H         1 UNK         0.0600 
    224 H224       -5.6877  -18.8302  -51.7761 H         1 UNK         0.0600 
    225 H225       -7.0358  -23.1905  -51.9774 H         1 UNK         0.3000 
    226 H226       -8.9406  -22.1815  -54.0090 H         1 UNK         0.0600 
    227 H227       -9.7344  -23.8769  -52.3857 H         1 UNK         0.0600 
    228 H228       -9.7236  -24.5424  -54.0127 H         1 UNK         0.0600 
    229 H229       -8.4554  -24.9844  -52.8748 H         1 UNK         0.0600 
    230 H230       -6.0395  -24.2681  -53.6942 H         1 UNK         0.3000 
    231 H231       -5.9695  -24.9447  -56.5199 H         1 UNK         0.0600 
    232 H232       -3.9455  -26.1978  -55.8792 H         1 UNK         0.0600 
    233 H233       -3.8925  -25.3947  -54.3174 H         1 UNK         0.0600 
    234 H234       -5.2144  -26.4974  -54.7002 H         1 UNK         0.0600 
    235 H235       -4.6171  -22.3482  -54.5898 H         1 UNK         0.3000 
    236 H236       -3.4422  -20.9939  -56.8192 H         1 UNK         0.0600 
    237 H237       -1.5802  -22.1331  -54.6371 H         1 UNK         0.0600 
    238 H238       -1.5460  -22.5869  -56.3397 H         1 UNK         0.0600 
    239 H239       -1.1011  -20.9601  -55.8579 H         1 UNK         0.0600 
    240 H240       -2.6412  -18.8615  -56.0655 H         1 UNK         0.3000 
    241 H241       -2.6213  -17.0047  -54.9368 H         1 UNK         0.0600 
    242 H242       -6.6390  -17.4518  -54.3863 H         1 UNK         0.3800 
    243 H243       -5.6276  -18.8725  -54.4388 H         1 UNK         0.3800 
    244 H244       -1.7258  -18.5652  -53.0693 H         1 UNK         0.0800 
    245 H245       -3.2601  -18.3539  -52.2750 H         1 UNK         0.0800 
    246 H246       -1.8148  -17.7521  -50.2893 H         1 UNK         0.0800 
    247 H247       -1.2502  -16.1312  -49.9716 H         1 UNK         0.0800 
@<TRIPOS>BOND
     1    1    2 1    
     2    1  127 1    
     3    1  128 1    
     4    1  129 1    
     5    2    3 2    
     6    2    4 am   BACKBONE|DICT|INTERRES
     7    4    5 1    
     8    4  130 1    
     9    5    6 1    
    10    5   65 1    
    11    5  131 1    
    12    6    7 1    
    13    6  132 1    
    14    6  133 1    
    15    7    8 1    
    16    8    9 1    
    17    8  134 1    
    18    8  135 1    
    19    9   10 ar   
    20    9   14 ar   
    21   10   11 ar   
    22   10  136 1    
    23   11   12 ar   
    24   11  126 1    
    25   12   13 ar   
    26   12  137 1    
    27   13   14 ar   
    28   13   15 1    
    29   14  138 1    
    30   15   16 1    
    31   15  139 1    
    32   15  140 1    
    33   16   17 1    
    34   17   18 1    
    35   17  141 1    
    36   17  142 1    
    37   18   19 1    
    38   18   67 1    
    39   18  143 1    
    40   19   20 am   BACKBONE|DICT|INTERRES
    41   19  144 1    
    42   20   21 2    
    43   20   22 1    
    44   22   23 1    
    45   22   24 1    
    46   22  145 1    
    47   23  146 1    
    48   23  147 1    
    49   23  148 1    
    50   24   25 am   BACKBONE|DICT|INTERRES
    51   24  149 1    
    52   25   26 2    
    53   25   27 1    
    54   27   28 1    
    55   27   29 1    
    56   27  150 1    
    57   28  151 1    
    58   28  152 1    
    59   28  153 1    
    60   29   30 am   BACKBONE|DICT|INTERRES
    61   29  154 1    
    62   30   31 2    
    63   30   32 1    
    64   32   33 1    
    65   32   34 1    
    66   32  155 1    
    67   33  156 1    
    68   33  157 1    
    69   33  158 1    
    70   34   35 am   BACKBONE|DICT|INTERRES
    71   34  159 1    
    72   35   36 2    
    73   35   37 1    
    74   37   38 1    
    75   37   39 1    
    76   37  160 1    
    77   38  161 1    
    78   38  162 1    
    79   38  163 1    
    80   39   40 am   BACKBONE|DICT|INTERRES
    81   39  164 1    
    82   40   41 2    
    83   40   42 1    
    84   42   43 1    
    85   42   44 1    
    86   42  165 1    
    87   43  166 1    
    88   43  167 1    
    89   43  168 1    
    90   44   45 am   BACKBONE|DICT|INTERRES
    91   44  169 1    
    92   45   46 2    
    93   45   47 1    
    94   47   48 1    
    95   47   49 1    
    96   47  170 1    
    97   48  171 1    
    98   48  172 1    
    99   48  173 1    
   100   49   50 am   BACKBONE|DICT|INTERRES
   101   49  174 1    
   102   50   51 2    
   103   50   52 1    
   104   52   53 1    
   105   52   54 1    
   106   52  175 1    
   107   53  176 1    
   108   53  177 1    
   109   53  178 1    
   110   54   55 am   BACKBONE|DICT|INTERRES
   111   54  179 1    
   112   55   56 2    
   113   55   57 1    
   114   57   58 1    
   115   57   59 1    
   116   57  180 1    
   117   58  181 1    
   118   58  182 1    
   119   58  183 1    
   120   59   60 am   BACKBONE|DICT|INTERRES
   121   59  184 1    
   122   60   61 2    
   123   60   62 1    
   124   62   63 1    
   125   62   64 1    
   126   62  185 1    
   127   63  186 1    
   128   63  187 1    
   129   63  188 1    
   130   64   65 am   BACKBONE|DICT|INTERRES
   131   64  189 1    
   132   65   66 2    
   133   67   68 2    
   134   67   69 am   BACKBONE|DICT|INTERRES
   135   69   70 1    
   136   69  190 1    
   137   70   71 1    
   138   70   72 1    
   139   70  191 1    
   140   71  192 1    
   141   71  193 1    
   142   71  194 1    
   143   72   73 2    
   144   72   74 am   BACKBONE|DICT|INTERRES
   145   74   75 1    
   146   74  195 1    
   147   75   76 1    
   148   75   77 1    
   149   75  196 1    
   150   76  197 1    
   151   76  198 1    
   152   76  199 1    
   153   77   78 2    
   154   77   79 am   BACKBONE|DICT|INTERRES
   155   79   80 1    
   156   79  200 1    
   157   80   81 1    
   158   80   82 1    
   159   80  201 1    
   160   81  202 1    
   161   81  203 1    
   162   81  204 1    
   163   82   83 2    
   164   82   84 am   BACKBONE|DICT|INTERRES
   165   84   85 1    
   166   84  205 1    
   167   85   86 1    
   168   85   87 1    
   169   85  206 1    
   170   86  207 1    
   171   86  208 1    
   172   86  209 1    
   173   87   88 2    
   174   87   89 am   BACKBONE|DICT|INTERRES
   175   89   90 1    
   176   89  210 1    
   177   90   91 1    
   178   90   92 1    
   179   90  211 1    
   180   91  212 1    
   181   91  213 1    
   182   91  214 1    
   183   92   93 2    
   184   92   94 am   BACKBONE|DICT|INTERRES
   185   94   95 1    
   186   94  215 1    
   187   95   96 1    
   188   95   97 1    
   189   95  216 1    
   190   96  217 1    
   191   96  218 1    
   192   96  219 1    
   193   97   98 2    
   194   97   99 am   BACKBONE|DICT|INTERRES
   195   99  100 1    
   196   99  220 1    
   197  100  101 1    
   198  100  102 1    
   199  100  221 1    
   200  101  222 1    
   201  101  223 1    
   202  101  224 1    
   203  102  103 2    
   204  102  104 am   BACKBONE|DICT|INTERRES
   205  104  105 1    
   206  104  225 1    
   207  105  106 1    
   208  105  107 1    
   209  105  226 1    
   210  106  227 1    
   211  106  228 1    
   212  106  229 1    
   213  107  108 2    
   214  107  109 am   BACKBONE|DICT|INTERRES
   215  109  110 1    
   216  109  230 1    
   217  110  111 1    
   218  110  112 1    
   219  110  231 1    
   220  111  232 1    
   221  111  233 1    
   222  111  234 1    
   223  112  113 2    
   224  112  114 am   BACKBONE|DICT|INTERRES
   225  114  115 1    
   226  114  235 1    
   227  115  116 1    
   228  115  117 1    
   229  115  236 1    
   230  116  237 1    
   231  116  238 1    
   232  116  239 1    
   233  117  118 2    
   234  117  119 am   BACKBONE|DICT|INTERRES
   235  119  120 1    
   236  119  240 1    
   237  120  121 1    
   238  120  124 1    
   239  120  241 1    
   240  121  122 am   BACKBONE|DICT|INTERRES
   241  121  123 2    
   242  122  242 1    
   243  122  243 1    
   244  124  125 1    
   245  124  244 1    
   246  124  245 1    
   247  125  126 1    
   248  126  246 1    
   249  126  247 1    
@<TRIPOS>SUBSTRUCTURE
     1 UNK         1 GROUP             0       ****    0 ROOT    
