@<TRIPOS>MOLECULE
3R540
247   249    1
SMALL
USER_CHARGES


@<TRIPOS>ATOM
      1 CA          4.0570  -18.4071  -43.1720 C.3       0 UNK        -0.1800 
      2 C           3.3424  -17.1766  -43.7124 C.2       0 UNK         0.5000 
      3 O           2.1686  -16.9723  -43.4050 O.2       0 UNK        -0.5000 
      4 N           4.0437  -16.3725  -44.5223 N.am      1 UNK        -0.5000 
      5 CA          3.5390  -15.1681  -45.1914 C.3       1 UNK         0.1400 
      6 C6          4.5956  -14.5184  -46.1243 C.3       23 UNK        -0.0398 
      7 S7          5.4741  -15.6772  -47.2260 S.3       23 UNK        -0.2404 
      8 C8          4.5752  -15.4897  -48.8027 C.3       23 UNK        -0.0205 
      9 C9          3.3819  -16.4290  -48.9472 C.ar      23 UNK        -0.0193 
     10 C10         2.2082  -15.9735  -49.5536 C.ar      23 UNK        -0.1150 
     11 C11         1.1263  -16.8335  -49.7721 C.ar      23 UNK        -0.0193 
     12 C12         1.2257  -18.1690  -49.3518 C.ar      23 UNK        -0.1150 
     13 C13         2.3870  -18.6347  -48.7278 C.ar      23 UNK        -0.0193 
     14 C14         3.4634  -17.7654  -48.5441 C.ar      23 UNK        -0.1150 
     15 C15         2.5026  -20.0797  -48.2684 C.3       23 UNK        -0.0205 
     16 S16         2.3911  -20.2205  -46.4517 S.3       23 UNK        -0.2404 
     17 C17         3.5837  -21.5636  -46.1103 C.3       23 UNK        -0.0398 
     18 CA          2.9790  -22.9834  -45.9728 C.3       11 UNK         0.1400 
     19 N           2.0796  -23.1146  -44.8204 N.am      11 UNK        -0.5000 
     20 C           1.9900  -24.2305  -44.0809 C.2       10 UNK         0.5000 
     21 O           2.6670  -25.2397  -44.2806 O.2       10 UNK        -0.5000 
     22 CA          0.9668  -24.2366  -42.9291 C.3       10 UNK         0.1400 
     23 CB          1.5457  -23.5355  -41.6904 C.3       10 UNK        -0.1800 
     24 N          -0.3165  -23.6236  -43.2693 N.am      10 UNK        -0.5000 
     25 C          -1.1329  -24.0144  -44.2581 C.2       9 UNK         0.5000 
     26 O          -0.8878  -24.9516  -45.0153 O.2       9 UNK        -0.5000 
     27 CA         -2.4357  -23.2126  -44.4527 C.3       9 UNK         0.1400 
     28 CB         -3.6322  -23.9757  -43.8657 C.3       9 UNK        -0.1800 
     29 N          -2.4033  -21.8616  -43.8839 N.am      9 UNK        -0.5000 
     30 C          -1.5715  -20.8873  -44.2731 C.2       8 UNK         0.5000 
     31 O          -0.7070  -21.0336  -45.1425 O.2       8 UNK        -0.5000 
     32 CA         -1.7177  -19.5460  -43.5430 C.3       8 UNK         0.1400 
     33 CB         -1.0987  -19.6141  -42.1363 C.3       8 UNK        -0.1800 
     34 N          -1.0354  -18.5206  -44.3163 N.am      8 UNK        -0.5000 
     35 C          -1.4124  -17.2460  -44.4497 C.2       7 UNK         0.5000 
     36 O          -2.3970  -16.7604  -43.8887 O.2       7 UNK        -0.5000 
     37 CA         -0.5390  -16.3611  -45.3540 C.3       7 UNK         0.1400 
     38 CB          0.3692  -17.1633  -46.3057 C.3       7 UNK        -0.1800 
     39 N          -1.3792  -15.4429  -46.1158 N.am      7 UNK        -0.5000 
     40 C          -0.9402  -14.3299  -46.7053 C.2       6 UNK         0.5000 
     41 O           0.2304  -13.9470  -46.6544 O.2       6 UNK        -0.5000 
     42 CA         -1.9670  -13.4840  -47.4617 C.3       6 UNK         0.1400 
     43 CB         -2.4024  -12.2669  -46.6288 C.3       6 UNK        -0.1800 
     44 N          -1.3633  -13.0511  -48.7178 N.am      6 UNK        -0.5000 
     45 C          -2.0453  -12.8207  -49.8465 C.2       5 UNK         0.5000 
     46 O          -3.2744  -12.8568  -49.9078 O.2       5 UNK        -0.5000 
     47 CA         -1.2245  -12.5029  -51.1114 C.3       5 UNK         0.1400 
     48 CB         -2.0070  -11.6586  -52.1342 C.3       5 UNK        -0.1800 
     49 N           0.0223  -11.8158  -50.7762 N.am      5 UNK        -0.5000 
     50 C           1.2327  -12.1112  -51.2682 C.2       4 UNK         0.5000 
     51 O           1.4459  -13.0313  -52.0578 O.2       4 UNK        -0.5000 
     52 CA          2.4095  -11.2285  -50.7981 C.3       4 UNK         0.1400 
     53 CB          2.7213  -10.1489  -51.8459 C.3       4 UNK        -0.1800 
     54 N           2.1715  -10.5813  -49.5029 N.am      4 UNK        -0.5000 
     55 C           2.0997  -11.2433  -48.3419 C.2       3 UNK         0.5000 
     56 O           2.2968  -12.4573  -48.2505 O.2       3 UNK        -0.5000 
     57 CA          1.7103  -10.4297  -47.0943 C.3       3 UNK         0.1400 
     58 CB          0.4510   -9.5702  -47.3301 C.3       3 UNK        -0.1800 
     59 N           1.4778  -11.3716  -46.0074 N.am      3 UNK        -0.5000 
     60 C           1.5161  -11.1236  -44.6932 C.2       2 UNK         0.5000 
     61 O           1.6911  -10.0036  -44.2124 O.2       2 UNK        -0.5000 
     62 CA          1.3697  -12.3397  -43.7579 C.3       2 UNK         0.1400 
     63 CB         -0.0978  -12.5483  -43.3537 C.3       2 UNK        -0.1800 
     64 N           1.8667  -13.5489  -44.4164 N.am      2 UNK        -0.5000 
     65 C           3.0574  -14.1063  -44.1798 C.2       1 UNK         0.5000 
     66 O           3.7980  -13.7774  -43.2494 O.2       1 UNK        -0.5000 
     67 C           2.3087  -23.4618  -47.2762 C.2       11 UNK         0.5000 
     68 O           2.9966  -23.9855  -48.1533 O.2       11 UNK        -0.5000 
     69 N           0.9862  -23.2677  -47.3850 N.am      12 UNK        -0.5000 
     70 CA          0.1931  -23.6138  -48.5652 C.3       12 UNK         0.1400 
     71 CB         -1.1293  -22.8406  -48.5073 C.3       12 UNK        -0.1800 
     72 C          -0.0566  -25.1281  -48.7124 C.2       12 UNK         0.5000 
     73 O          -0.2899  -25.5938  -49.8288 O.2       12 UNK        -0.5000 
     74 N           0.0010  -25.8637  -47.5927 N.am      13 UNK        -0.5000 
     75 CA         -0.1348  -27.3149  -47.4694 C.3       13 UNK         0.1400 
     76 CB          1.0961  -28.0216  -48.0811 C.3       13 UNK        -0.1800 
     77 C          -1.4905  -27.8067  -48.0141 C.2       13 UNK         0.5000 
     78 O          -2.5291  -27.3976  -47.4928 O.2       13 UNK        -0.5000 
     79 N          -1.4671  -28.6473  -49.0576 N.am      14 UNK        -0.5000 
     80 CA         -2.6361  -29.2535  -49.7015 C.3       14 UNK         0.1400 
     81 CB         -2.1530  -30.2388  -50.7768 C.3       14 UNK        -0.1800 
     82 C          -3.6375  -28.2474  -50.3051 C.2       14 UNK         0.5000 
     83 O          -4.8107  -28.5898  -50.4571 O.2       14 UNK        -0.5000 
     84 N          -3.1768  -27.0275  -50.6195 N.am      15 UNK        -0.5000 
     85 CA         -4.0235  -25.9271  -51.0845 C.3       15 UNK         0.1400 
     86 CB         -3.1458  -24.8807  -51.7875 C.3       15 UNK        -0.1800 
     87 C          -4.8500  -25.2750  -49.9562 C.2       15 UNK         0.5000 
     88 O          -5.8026  -24.5520  -50.2548 O.2       15 UNK        -0.5000 
     89 N          -4.4614  -25.5137  -48.6909 N.am      16 UNK        -0.5000 
     90 CA         -5.1175  -25.0748  -47.4510 C.3       16 UNK         0.1400 
     91 CB         -6.4375  -25.8469  -47.2553 C.3       16 UNK        -0.1800 
     92 C          -5.3115  -23.5465  -47.3440 C.2       16 UNK         0.5000 
     93 O          -6.2543  -23.0882  -46.6985 O.2       16 UNK        -0.5000 
     94 N          -4.4434  -22.7897  -48.0308 N.am      17 UNK        -0.5000 
     95 CA         -4.4496  -21.3397  -48.2696 C.3       17 UNK         0.1400 
     96 CB         -4.3741  -20.5448  -46.9556 C.3       17 UNK        -0.1800 
     97 C          -5.6086  -20.8483  -49.1594 C.2       17 UNK         0.5000 
     98 O          -5.4007  -19.9356  -49.9582 O.2       17 UNK        -0.5000 
     99 N          -6.7872  -21.4689  -49.0402 N.am      18 UNK        -0.5000 
    100 CA        -8.0065  -21.1640  -49.7843 C.3       18 UNK         0.1400 
    101 CB        -9.1495  -22.0465  -49.2602 C.3       18 UNK        -0.1800 
    102 C         -7.8515  -21.3190  -51.3068 C.2       18 UNK         0.5000 
    103 O         -8.2269  -20.4073  -52.0445 O.2       18 UNK        -0.5000 
    104 N         -7.2719  -22.4434  -51.7540 N.am      19 UNK        -0.5000 
    105 CA        -7.0471  -22.7217  -53.1773 C.3       19 UNK         0.1400 
    106 CB        -6.8867  -24.2335  -53.3921 C.3       19 UNK        -0.1800 
    107 C         -5.8395  -21.9551  -53.7493 C.2       19 UNK         0.5000 
    108 O         -5.7718  -21.7488  -54.9612 O.2       19 UNK        -0.5000 
    109 N         -4.9220  -21.5293  -52.8699 N.am      20 UNK        -0.5000 
    110 CA        -3.7791  -20.6774  -53.2044 C.3       20 UNK         0.1400 
    111 CB        -2.6900  -20.8653  -52.1347 C.3       20 UNK        -0.1800 
    112 C         -4.1643  -19.1882  -53.3270 C.2       20 UNK         0.5000 
    113 O         -3.3809  -18.4122  -53.8741 O.2       20 UNK        -0.5000 
    114 N         -5.3486  -18.8238  -52.8086 N.am      21 UNK        -0.5000 
    115 CA        -5.8767  -17.4663  -52.6405 C.3       21 UNK         0.1400 
    116 CB        -6.0838  -16.7668  -54.0004 C.3       21 UNK        -0.1800 
    117 C         -5.0423  -16.6382  -51.6391 C.2       21 UNK         0.5000 
    118 O         -4.8433  -15.4390  -51.8384 O.2       21 UNK        -0.5000 
    119 N         -4.5786  -17.3088  -50.5779 N.am      22 UNK        -0.5000 
    120 CA        -3.7495  -16.7602  -49.4932 C.3       22 UNK         0.1400 
    121 C         -4.4969  -16.7204  -48.1280 C.2       22 UNK         0.5000 
    122 N         -5.7788  -17.0571  -48.0553 N.am      22 UNK        -0.7600 
    123 O         -3.9063  -16.3711  -47.1106 O.2       22 UNK        -0.5000 
    124 C124       -2.3994  -17.5183  -49.3727 C.3       23 UNK        -0.0398 
    125 S125       -1.4189  -17.4495  -50.9113 S.3       23 UNK        -0.2404 
    126 C126       -0.1075  -16.2588  -50.4706 C.3       23 UNK        -0.0205 
    127 H127        3.5041  -19.3074  -43.4409 H         1 UNK         0.0600 
    128 H128        5.0674  -18.4981  -43.5713 H         1 UNK         0.0600 
    129 H129        4.1215  -18.3569  -42.0852 H         1 UNK         0.0600 
    130 H130        5.0051  -16.5999  -44.7304 H         1 UNK         0.3000 
    131 H131        2.6930  -15.4760  -45.8075 H         1 UNK         0.0600 
    132 H132        5.3680  -14.0218  -45.5334 H         1 UNK         0.0800 
    133 H133        4.1338  -13.7318  -46.7228 H         1 UNK         0.0800 
    134 H134        4.2708  -14.4498  -48.9321 H         1 UNK         0.0800 
    135 H135        5.2682  -15.7055  -49.6165 H         1 UNK         0.0800 
    136 H136        2.1420  -14.9432  -49.8762 H         1 UNK         0.1150 
    137 H137        0.4049  -18.8551  -49.4966 H         1 UNK         0.1150 
    138 H138        4.3677  -18.1371  -48.0839 H         1 UNK         0.1150 
    139 H139        1.7195  -20.6906  -48.7195 H         1 UNK         0.0800 
    140 H140        3.4489  -20.4823  -48.6307 H         1 UNK         0.0800 
    141 H141        4.3665  -21.5623  -46.8701 H         1 UNK         0.0800 
    142 H142        4.0968  -21.3088  -45.1822 H         1 UNK         0.0800 
    143 H143        3.8322  -23.6475  -45.8170 H         1 UNK         0.0600 
    144 H144        1.4790  -22.3269  -44.6164 H         1 UNK         0.3000 
    145 H145        0.7713  -25.2792  -42.6700 H         1 UNK         0.0600 
    146 H146        0.8735  -23.6234  -40.8367 H         1 UNK         0.0600 
    147 H147        2.4982  -23.9802  -41.3989 H         1 UNK         0.0600 
    148 H148        1.7207  -22.4743  -41.8725 H         1 UNK         0.0600 
    149 H149       -0.6059  -22.8416  -42.7020 H         1 UNK         0.3000 
    150 H150       -2.5958  -23.1142  -45.5267 H         1 UNK         0.0600 
    151 H151       -3.6907  -24.9867  -44.2712 H         1 UNK         0.0600 
    152 H152       -4.5726  -23.4774  -44.1029 H         1 UNK         0.0600 
    153 H153       -3.5604  -24.0624  -42.7809 H         1 UNK         0.0600 
    154 H154       -3.0767  -21.6684  -43.1563 H         1 UNK         0.3000 
    155 H155       -2.7819  -19.3118  -43.4699 H         1 UNK         0.0600 
    156 H156       -1.1963  -18.6599  -41.6181 H         1 UNK         0.0600 
    157 H157       -0.0372  -19.8629  -42.1768 H         1 UNK         0.0600 
    158 H158       -1.5921  -20.3673  -41.5212 H         1 UNK         0.0600 
    159 H159       -0.2541  -18.8668  -44.8600 H         1 UNK         0.3000 
    160 H160        0.0905  -15.7730  -44.6848 H         1 UNK         0.0600 
    161 H161        0.9275  -16.5097  -46.9724 H         1 UNK         0.0600 
    162 H162       -0.2025  -17.8588  -46.9200 H         1 UNK         0.0600 
    163 H163        1.1098  -17.7371  -45.7521 H         1 UNK         0.0600 
    164 H164       -2.3600  -15.7082  -46.1907 H         1 UNK         0.3000 
    165 H165       -2.8425  -14.0976  -47.6745 H         1 UNK         0.0600 
    166 H166       -1.5520  -11.6498  -46.3397 H         1 UNK         0.0600 
    167 H167       -3.1023  -11.6383  -47.1794 H         1 UNK         0.0600 
    168 H168       -2.9020  -12.5844  -45.7129 H         1 UNK         0.0600 
    169 H169       -0.3503  -13.0464  -48.7241 H         1 UNK         0.3000 
    170 H170       -1.0060  -13.4684  -51.5715 H         1 UNK         0.0600 
    171 H171       -2.9153  -12.1703  -52.4555 H         1 UNK         0.0600 
    172 H172       -2.2997  -10.6944  -51.7172 H         1 UNK         0.0600 
    173 H173       -1.4110  -11.4708  -53.0275 H         1 UNK         0.0600 
    174 H174       -0.0566  -11.0447  -50.1292 H         1 UNK         0.3000 
    175 H175        3.2852  -11.8743  -50.7025 H         1 UNK         0.0600 
    176 H176        1.8849   -9.4610  -51.9765 H         1 UNK         0.0600 
    177 H177        3.5970   -9.5648  -51.5625 H         1 UNK         0.0600 
    178 H178        2.9322  -10.5972  -52.8178 H         1 UNK         0.0600 
    179 H179        2.0158   -9.5836  -49.5164 H         1 UNK         0.3000 
    180 H180        2.5530   -9.7867  -46.8335 H         1 UNK         0.0600 
    181 H181       -0.3736  -10.1633  -47.7258 H         1 UNK         0.0600 
    182 H182        0.6475   -8.7665  -48.0399 H         1 UNK         0.0600 
    183 H183        0.1096   -9.0997  -46.4081 H         1 UNK         0.0600 
    184 H184        1.3447  -12.3264  -46.3309 H         1 UNK         0.3000 
    185 H185        1.9419  -12.1321  -42.8514 H         1 UNK         0.0600 
    186 H186       -0.4892  -11.6690  -42.8408 H         1 UNK         0.0600 
    187 H187       -0.7349  -12.7344  -44.2168 H         1 UNK         0.0600 
    188 H188       -0.2011  -13.3952  -42.6750 H         1 UNK         0.0600 
    189 H189        1.3225  -13.8653  -45.2169 H         1 UNK         0.3000 
    190 H190        0.5017  -22.8057  -46.6279 H         1 UNK         0.3000 
    191 H191        0.7376  -23.2839  -49.4526 H         1 UNK         0.0600 
    192 H192       -1.7169  -23.0019  -49.4105 H         1 UNK         0.0600 
    193 H193       -0.9568  -21.7672  -48.4200 H         1 UNK         0.0600 
    194 H194       -1.7277  -23.1540  -47.6536 H         1 UNK         0.0600 
    195 H195        0.0655  -25.3714  -46.7075 H         1 UNK         0.3000 
    196 H196       -0.1422  -27.5314  -46.4002 H         1 UNK         0.0600 
    197 H197        1.0485  -29.1007  -47.9296 H         1 UNK         0.0600 
    198 H198        2.0142  -27.6744  -47.6066 H         1 UNK         0.0600 
    199 H199        1.1922  -27.8356  -49.1514 H         1 UNK         0.0600 
    200 H200       -0.5674  -28.9008  -49.4393 H         1 UNK         0.3000 
    201 H201       -3.1725  -29.8189  -48.9368 H         1 UNK         0.0600 
    202 H202       -1.5229  -31.0172  -50.3459 H         1 UNK         0.0600 
    203 H203       -1.5798  -29.7338  -51.5554 H         1 UNK         0.0600 
    204 H204       -2.9953  -30.7362  -51.2597 H         1 UNK         0.0600 
    205 H205       -2.1981  -26.8184  -50.4632 H         1 UNK         0.3000 
    206 H206       -4.7305  -26.3218  -51.8167 H         1 UNK         0.0600 
    207 H207       -2.6241  -25.3147  -52.6406 H         1 UNK         0.0600 
    208 H208       -3.7445  -24.0517  -52.1639 H         1 UNK         0.0600 
    209 H209       -2.3962  -24.4650  -51.1160 H         1 UNK         0.0600 
    210 H210       -3.6752  -26.1399  -48.5453 H         1 UNK         0.3000 
    211 H211       -4.4458  -25.3527  -46.6380 H         1 UNK         0.0600 
    212 H212       -7.1783  -25.5750  -48.0082 H         1 UNK         0.0600 
    213 H213       -6.8729  -25.6427  -46.2764 H         1 UNK         0.0600 
    214 H214       -6.2757  -26.9232  -47.3179 H         1 UNK         0.0600 
    215 H215       -3.7538  -23.2998  -48.5616 H         1 UNK         0.3000 
    216 H216       -3.5338  -21.1297  -48.8228 H         1 UNK         0.0600 
    217 H217       -5.2681  -20.6691  -46.3447 H         1 UNK         0.0600 
    218 H218       -4.2594  -19.4790  -47.1500 H         1 UNK         0.0600 
    219 H219       -3.5155  -20.8570  -46.3661 H         1 UNK         0.0600 
    220 H220       -6.8552  -22.1881  -48.3278 H         1 UNK         0.3000 
    221 H221       -8.2610  -20.1215  -49.5826 H         1 UNK         0.0600 
    222 H222       -8.9281  -23.1075  -49.3844 H         1 UNK         0.0600 
    223 H223       -9.3320  -21.8656  -48.2008 H         1 UNK         0.0600 
    224 H224      -10.0799  -21.8390  -49.7904 H         1 UNK         0.0600 
    225 H225       -6.9462  -23.1434  -51.0923 H         1 UNK         0.3000 
    226 H226       -7.9304  -22.4024  -53.7350 H         1 UNK         0.0600 
    227 H227       -7.7273  -24.7859  -52.9720 H         1 UNK         0.0600 
    228 H228       -6.8389  -24.4712  -54.4555 H         1 UNK         0.0600 
    229 H229       -5.9741  -24.6105  -52.9355 H         1 UNK         0.0600 
    230 H230       -5.0732  -21.7260  -51.8919 H         1 UNK         0.3000 
    231 H231       -3.3694  -20.9946  -54.1658 H         1 UNK         0.0600 
    232 H232       -3.0217  -20.5226  -51.1551 H         1 UNK         0.0600 
    233 H233       -1.7950  -20.2960  -52.3890 H         1 UNK         0.0600 
    234 H234       -2.3926  -21.9098  -52.0461 H         1 UNK         0.0600 
    235 H235       -5.9014  -19.5495  -52.3729 H         1 UNK         0.3000 
    236 H236       -6.8606  -17.5853  -52.1844 H         1 UNK         0.0600 
    237 H237       -6.6674  -17.3892  -54.6787 H         1 UNK         0.0600 
    238 H238       -6.6244  -15.8279  -53.8757 H         1 UNK         0.0600 
    239 H239       -5.1371  -16.5333  -54.4879 H         1 UNK         0.0600 
    240 H240       -4.8218  -18.2927  -50.4822 H         1 UNK         0.3000 
    241 H241       -3.5162  -15.7174  -49.7131 H         1 UNK         0.0600 
    242 H242       -6.2819  -17.3442  -48.8787 H         1 UNK         0.3800 
    243 H243       -6.2490  -17.0166  -47.1654 H         1 UNK         0.3800 
    244 H244       -1.7991  -17.1152  -48.5564 H         1 UNK         0.0800 
    245 H245       -2.5748  -18.5674  -49.1298 H         1 UNK         0.0800 
    246 H246       -0.5318  -15.4741  -49.8462 H         1 UNK         0.0800 
    247 H247        0.2182  -15.7745  -51.3926 H         1 UNK         0.0800 
@<TRIPOS>BOND
     1    1    2 1    
     2    1  127 1    
     3    1  128 1    
     4    1  129 1    
     5    2    3 2    
     6    2    4 am   BACKBONE|DICT|INTERRES
     7    4    5 1    
     8    4  130 1    
     9    5    6 1    
    10    5   65 1    
    11    5  131 1    
    12    6    7 1    
    13    6  132 1    
    14    6  133 1    
    15    7    8 1    
    16    8    9 1    
    17    8  134 1    
    18    8  135 1    
    19    9   10 ar   
    20    9   14 ar   
    21   10   11 ar   
    22   10  136 1    
    23   11   12 ar   
    24   11  126 1    
    25   12   13 ar   
    26   12  137 1    
    27   13   14 ar   
    28   13   15 1    
    29   14  138 1    
    30   15   16 1    
    31   15  139 1    
    32   15  140 1    
    33   16   17 1    
    34   17   18 1    
    35   17  141 1    
    36   17  142 1    
    37   18   19 1    
    38   18   67 1    
    39   18  143 1    
    40   19   20 am   BACKBONE|DICT|INTERRES
    41   19  144 1    
    42   20   21 2    
    43   20   22 1    
    44   22   23 1    
    45   22   24 1    
    46   22  145 1    
    47   23  146 1    
    48   23  147 1    
    49   23  148 1    
    50   24   25 am   BACKBONE|DICT|INTERRES
    51   24  149 1    
    52   25   26 2    
    53   25   27 1    
    54   27   28 1    
    55   27   29 1    
    56   27  150 1    
    57   28  151 1    
    58   28  152 1    
    59   28  153 1    
    60   29   30 am   BACKBONE|DICT|INTERRES
    61   29  154 1    
    62   30   31 2    
    63   30   32 1    
    64   32   33 1    
    65   32   34 1    
    66   32  155 1    
    67   33  156 1    
    68   33  157 1    
    69   33  158 1    
    70   34   35 am   BACKBONE|DICT|INTERRES
    71   34  159 1    
    72   35   36 2    
    73   35   37 1    
    74   37   38 1    
    75   37   39 1    
    76   37  160 1    
    77   38  161 1    
    78   38  162 1    
    79   38  163 1    
    80   39   40 am   BACKBONE|DICT|INTERRES
    81   39  164 1    
    82   40   41 2    
    83   40   42 1    
    84   42   43 1    
    85   42   44 1    
    86   42  165 1    
    87   43  166 1    
    88   43  167 1    
    89   43  168 1    
    90   44   45 am   BACKBONE|DICT|INTERRES
    91   44  169 1    
    92   45   46 2    
    93   45   47 1    
    94   47   48 1    
    95   47   49 1    
    96   47  170 1    
    97   48  171 1    
    98   48  172 1    
    99   48  173 1    
   100   49   50 am   BACKBONE|DICT|INTERRES
   101   49  174 1    
   102   50   51 2    
   103   50   52 1    
   104   52   53 1    
   105   52   54 1    
   106   52  175 1    
   107   53  176 1    
   108   53  177 1    
   109   53  178 1    
   110   54   55 am   BACKBONE|DICT|INTERRES
   111   54  179 1    
   112   55   56 2    
   113   55   57 1    
   114   57   58 1    
   115   57   59 1    
   116   57  180 1    
   117   58  181 1    
   118   58  182 1    
   119   58  183 1    
   120   59   60 am   BACKBONE|DICT|INTERRES
   121   59  184 1    
   122   60   61 2    
   123   60   62 1    
   124   62   63 1    
   125   62   64 1    
   126   62  185 1    
   127   63  186 1    
   128   63  187 1    
   129   63  188 1    
   130   64   65 am   BACKBONE|DICT|INTERRES
   131   64  189 1    
   132   65   66 2    
   133   67   68 2    
   134   67   69 am   BACKBONE|DICT|INTERRES
   135   69   70 1    
   136   69  190 1    
   137   70   71 1    
   138   70   72 1    
   139   70  191 1    
   140   71  192 1    
   141   71  193 1    
   142   71  194 1    
   143   72   73 2    
   144   72   74 am   BACKBONE|DICT|INTERRES
   145   74   75 1    
   146   74  195 1    
   147   75   76 1    
   148   75   77 1    
   149   75  196 1    
   150   76  197 1    
   151   76  198 1    
   152   76  199 1    
   153   77   78 2    
   154   77   79 am   BACKBONE|DICT|INTERRES
   155   79   80 1    
   156   79  200 1    
   157   80   81 1    
   158   80   82 1    
   159   80  201 1    
   160   81  202 1    
   161   81  203 1    
   162   81  204 1    
   163   82   83 2    
   164   82   84 am   BACKBONE|DICT|INTERRES
   165   84   85 1    
   166   84  205 1    
   167   85   86 1    
   168   85   87 1    
   169   85  206 1    
   170   86  207 1    
   171   86  208 1    
   172   86  209 1    
   173   87   88 2    
   174   87   89 am   BACKBONE|DICT|INTERRES
   175   89   90 1    
   176   89  210 1    
   177   90   91 1    
   178   90   92 1    
   179   90  211 1    
   180   91  212 1    
   181   91  213 1    
   182   91  214 1    
   183   92   93 2    
   184   92   94 am   BACKBONE|DICT|INTERRES
   185   94   95 1    
   186   94  215 1    
   187   95   96 1    
   188   95   97 1    
   189   95  216 1    
   190   96  217 1    
   191   96  218 1    
   192   96  219 1    
   193   97   98 2    
   194   97   99 am   BACKBONE|DICT|INTERRES
   195   99  100 1    
   196   99  220 1    
   197  100  101 1    
   198  100  102 1    
   199  100  221 1    
   200  101  222 1    
   201  101  223 1    
   202  101  224 1    
   203  102  103 2    
   204  102  104 am   BACKBONE|DICT|INTERRES
   205  104  105 1    
   206  104  225 1    
   207  105  106 1    
   208  105  107 1    
   209  105  226 1    
   210  106  227 1    
   211  106  228 1    
   212  106  229 1    
   213  107  108 2    
   214  107  109 am   BACKBONE|DICT|INTERRES
   215  109  110 1    
   216  109  230 1    
   217  110  111 1    
   218  110  112 1    
   219  110  231 1    
   220  111  232 1    
   221  111  233 1    
   222  111  234 1    
   223  112  113 2    
   224  112  114 am   BACKBONE|DICT|INTERRES
   225  114  115 1    
   226  114  235 1    
   227  115  116 1    
   228  115  117 1    
   229  115  236 1    
   230  116  237 1    
   231  116  238 1    
   232  116  239 1    
   233  117  118 2    
   234  117  119 am   BACKBONE|DICT|INTERRES
   235  119  120 1    
   236  119  240 1    
   237  120  121 1    
   238  120  124 1    
   239  120  241 1    
   240  121  122 am   BACKBONE|DICT|INTERRES
   241  121  123 2    
   242  122  242 1    
   243  122  243 1    
   244  124  125 1    
   245  124  244 1    
   246  124  245 1    
   247  125  126 1    
   248  126  246 1    
   249  126  247 1    
@<TRIPOS>SUBSTRUCTURE
     1 UNK         1 GROUP             0       ****    0 ROOT    
