@<TRIPOS>MOLECULE
3R540
247   249    1
SMALL
USER_CHARGES


@<TRIPOS>ATOM
      1 CA          4.6621  -18.7729  -46.5823 C.3       0 UNK        -0.1800 
      2 C           4.2510  -17.4239  -47.1540 C.2       0 UNK         0.5000 
      3 O           5.0890  -16.7175  -47.7098 O.2       0 UNK        -0.5000 
      4 N           2.9714  -17.0683  -46.9885 N.am      1 UNK        -0.5000 
      5 CA          2.2325  -15.9019  -47.5030 C.3       1 UNK         0.1400 
      6 C6          1.8580  -16.0277  -49.0059 C.3       23 UNK        -0.0398 
      7 S7          3.0568  -15.3781  -50.2309 S.3       23 UNK        -0.2404 
      8 C8          3.8472  -16.8730  -50.9177 C.3       23 UNK        -0.0205 
      9 C9          2.8539  -17.9325  -51.3734 C.ar      23 UNK        -0.0193 
     10 C10         1.9346  -17.6575  -52.3877 C.ar      23 UNK        -0.1150 
     11 C11         1.0214  -18.6313  -52.7992 C.ar      23 UNK        -0.0193 
     12 C12         1.0381  -19.8912  -52.1932 C.ar      23 UNK        -0.1150 
     13 C13         1.9558  -20.1865  -51.1796 C.ar      23 UNK        -0.0193 
     14 C14         2.8643  -19.1974  -50.7806 C.ar      23 UNK        -0.1150 
     15 C15         1.9730  -21.5951  -50.5836 C.3       23 UNK        -0.0205 
     16 S16         2.6914  -21.7210  -48.9106 S.3       23 UNK        -0.2404 
     17 C17         1.3627  -21.0262  -47.8710 C.3       23 UNK        -0.0398 
     18 CA          0.6910  -22.1296  -47.0174 C.3       11 UNK         0.1400 
     19 N           0.3005  -21.6695  -45.6820 N.am      11 UNK        -0.5000 
     20 C           0.0110  -22.5052  -44.6727 C.2       10 UNK         0.5000 
     21 O           0.0790  -23.7310  -44.7661 O.2       10 UNK        -0.5000 
     22 CA         -0.4820  -21.8749  -43.3579 C.3       10 UNK         0.1400 
     23 CB          0.6989  -21.3272  -42.5446 C.3       10 UNK        -0.1800 
     24 N          -1.4723  -20.8195  -43.5796 N.am      10 UNK        -0.5000 
     25 C          -2.6752  -21.0220  -44.1380 C.2       9 UNK         0.5000 
     26 O          -3.0930  -22.1309  -44.4695 O.2       9 UNK        -0.5000 
     27 CA         -3.5331  -19.7760  -44.4246 C.3       9 UNK         0.1400 
     28 CB         -4.3013  -19.3384  -43.1691 C.3       9 UNK        -0.1800 
     29 N          -2.7409  -18.6542  -44.9257 N.am      9 UNK        -0.5000 
     30 C          -2.0522  -18.6510  -46.0756 C.2       8 UNK         0.5000 
     31 O          -2.0541  -19.5800  -46.8809 O.2       8 UNK        -0.5000 
     32 CA         -1.1400  -17.4402  -46.3228 C.3       8 UNK         0.1400 
     33 CB         -1.9281  -16.2148  -46.8105 C.3       8 UNK        -0.1800 
     34 N          -0.3907  -17.1052  -45.1117 N.am      8 UNK        -0.5000 
     35 C           0.6528  -17.8146  -44.6618 C.2       7 UNK         0.5000 
     36 O           1.1444  -18.7574  -45.2812 O.2       7 UNK        -0.5000 
     37 CA          1.2738  -17.3935  -43.3197 C.3       7 UNK         0.1400 
     38 CB          2.5375  -16.5603  -43.5628 C.3       7 UNK        -0.1800 
     39 N           0.3449  -16.6510  -42.4662 N.am      7 UNK        -0.5000 
     40 C          -0.6849  -17.2208  -41.8270 C.2       6 UNK         0.5000 
     41 O          -0.9591  -18.4183  -41.9120 O.2       6 UNK        -0.5000 
     42 CA         -1.5898  -16.2881  -41.0027 C.3       6 UNK         0.1400 
     43 CB         -0.8758  -15.8202  -39.7253 C.3       6 UNK        -0.1800 
     44 N          -2.0742  -15.1212  -41.7467 N.am      6 UNK        -0.5000 
     45 C          -2.7726  -15.1648  -42.8902 C.2       5 UNK         0.5000 
     46 O          -3.0018  -16.2034  -43.5069 O.2       5 UNK        -0.5000 
     47 CA         -3.3019  -13.8350  -43.4607 C.3       5 UNK         0.1400 
     48 CB         -4.8228  -13.7512  -43.2633 C.3       5 UNK        -0.1800 
     49 N          -2.6872  -12.6505  -42.8532 N.am      5 UNK        -0.5000 
     50 C          -1.5062  -12.0918  -43.1546 C.2       4 UNK         0.5000 
     51 O          -1.1103  -11.0889  -42.5591 O.2       4 UNK        -0.5000 
     52 CA         -0.6372  -12.6801  -44.2932 C.3       4 UNK         0.1400 
     53 CB         -0.9986  -12.0267  -45.6364 C.3       4 UNK        -0.1800 
     54 N           0.7901  -12.4840  -44.0434 N.am      4 UNK        -0.5000 
     55 C           1.4712  -13.0475  -43.0389 C.2       3 UNK         0.5000 
     56 O           0.9844  -13.8843  -42.2751 O.2       3 UNK        -0.5000 
     57 CA          2.9522  -12.6495  -42.9231 C.3       3 UNK         0.1400 
     58 CB          3.6311  -13.2152  -41.6627 C.3       3 UNK        -0.1800 
     59 N           3.6678  -13.1168  -44.1095 N.am      3 UNK        -0.5000 
     60 C           4.0021  -12.3522  -45.1558 C.2       2 UNK         0.5000 
     61 O           3.7976  -11.1391  -45.2124 O.2       2 UNK        -0.5000 
     62 CA          4.6421  -13.0741  -46.3564 C.3       2 UNK         0.1400 
     63 CB          6.1386  -13.3181  -46.1101 C.3       2 UNK        -0.1800 
     64 N           3.9965  -14.3456  -46.6948 N.am      2 UNK        -0.5000 
     65 C           2.7276  -14.4913  -47.0966 C.2       1 UNK         0.5000 
     66 O           1.9282  -13.5565  -47.1443 O.2       1 UNK        -0.5000 
     67 C          -0.4755  -22.8145  -47.7594 C.2       11 UNK         0.5000 
     68 O          -0.2433  -23.7878  -48.4734 O.2       11 UNK        -0.5000 
     69 N          -1.7125  -22.3461  -47.5429 N.am      12 UNK        -0.5000 
     70 CA         -2.9260  -22.9773  -48.0606 C.3       12 UNK         0.1400 
     71 CB         -4.1278  -22.0434  -47.8773 C.3       12 UNK        -0.1800 
     72 C          -3.1982  -24.3599  -47.4448 C.2       12 UNK         0.5000 
     73 O          -3.6278  -25.2650  -48.1573 O.2       12 UNK        -0.5000 
     74 N          -2.9039  -24.5258  -46.1496 N.am      13 UNK        -0.5000 
     75 CA         -2.9560  -25.8201  -45.4688 C.3       13 UNK         0.1400 
     76 CB         -2.8287  -25.6091  -43.9525 C.3       13 UNK        -0.1800 
     77 C          -1.8831  -26.8013  -45.9842 C.2       13 UNK         0.5000 
     78 O          -2.1492  -28.0008  -46.0687 O.2       13 UNK        -0.5000 
     79 N          -0.6991  -26.2749  -46.3241 N.am      14 UNK        -0.5000 
     80 CA          0.4394  -27.0459  -46.8172 C.3       14 UNK         0.1400 
     81 CB          1.7313  -26.2543  -46.5588 C.3       14 UNK        -0.1800 
     82 C           0.3329  -27.4229  -48.3072 C.2       14 UNK         0.5000 
     83 O           0.6362  -28.5642  -48.6579 O.2       14 UNK        -0.5000 
     84 N          -0.0441  -26.4595  -49.1587 N.am      15 UNK        -0.5000 
     85 CA          0.1261  -26.5264  -50.6131 C.3       15 UNK         0.1400 
     86 CB          1.4317  -25.7978  -50.9872 C.3       15 UNK        -0.1800 
     87 C          -1.0865  -25.9833  -51.3939 C.2       15 UNK         0.5000 
     88 O          -0.9263  -25.5509  -52.5372 O.2       15 UNK        -0.5000 
     89 N          -2.2793  -26.0222  -50.7842 N.am      16 UNK        -0.5000 
     90 CA         -3.5953  -25.6291  -51.3132 C.3       16 UNK         0.1400 
     91 CB         -3.9690  -26.4203  -52.5820 C.3       16 UNK        -0.1800 
     92 C          -3.7665  -24.1134  -51.5267 C.2       16 UNK         0.5000 
     93 O          -4.7211  -23.5366  -51.0039 O.2       16 UNK        -0.5000 
     94 N          -2.8515  -23.4958  -52.2886 N.am      17 UNK        -0.5000 
     95 CA         -2.7315  -22.0590  -52.5857 C.3       17 UNK         0.1400 
     96 CB         -2.2203  -21.3111  -51.3379 C.3       17 UNK        -0.1800 
     97 C          -4.0147  -21.4049  -53.1472 C.2       17 UNK         0.5000 
     98 O          -4.2225  -20.2070  -52.9510 O.2       17 UNK        -0.5000 
     99 N          -4.8833  -22.2077  -53.7810 N.am      18 UNK        -0.5000 
    100 CA        -6.2450  -21.8637  -54.2104 C.3       18 UNK         0.1400 
    101 CB        -6.2032  -20.9109  -55.4224 C.3       18 UNK        -0.1800 
    102 C         -7.1189  -21.3262  -53.0517 C.2       18 UNK         0.5000 
    103 O         -7.8601  -20.3613  -53.2363 O.2       18 UNK        -0.5000 
    104 N         -6.9757  -21.9351  -51.8633 N.am      19 UNK        -0.5000 
    105 CA        -7.5843  -21.5385  -50.5873 C.3       19 UNK         0.1400 
    106 CB        -9.1218  -21.6654  -50.6333 C.3       19 UNK        -0.1800 
    107 C         -7.0944  -20.1525  -50.1146 C.2       19 UNK         0.5000 
    108 O         -7.8897  -19.3329  -49.6538 O.2       19 UNK        -0.5000 
    109 N         -5.7808  -19.9277  -50.2657 N.am      20 UNK        -0.5000 
    110 CA        -5.0126  -18.7161  -49.9464 C.3       20 UNK         0.1400 
    111 CB        -5.1883  -18.3018  -48.4682 C.3       20 UNK        -0.1800 
    112 C         -5.2548  -17.5314  -50.9063 C.2       20 UNK         0.5000 
    113 O         -4.7036  -16.4545  -50.6733 O.2       20 UNK        -0.5000 
    114 N         -6.0507  -17.7287  -51.9666 N.am      21 UNK        -0.5000 
    115 CA        -6.3362  -16.7088  -52.9765 C.3       21 UNK         0.1400 
    116 CB        -7.6797  -17.0265  -53.6499 C.3       21 UNK        -0.1800 
    117 C         -5.2257  -16.5890  -54.0366 C.2       21 UNK         0.5000 
    118 O         -5.1001  -15.5292  -54.6512 O.2       21 UNK        -0.5000 
    119 N         -4.4632  -17.6712  -54.2489 N.am      22 UNK        -0.5000 
    120 CA        -3.3800  -17.8088  -55.2399 C.3       22 UNK         0.1400 
    121 C         -3.8231  -17.7133  -56.7346 C.2       22 UNK         0.5000 
    122 N         -5.1088  -17.7843  -57.0571 N.am      22 UNK        -0.7600 
    123 O         -2.9864  -17.6120  -57.6279 O.2       22 UNK        -0.5000 
    124 C124       -2.1548  -16.9086  -54.9196 C.3       23 UNK        -0.0398 
    125 S125       -1.3696  -17.3397  -53.3279 S.3       23 UNK        -0.2404 
    126 C126        0.0428  -18.3226  -53.9200 C.3       23 UNK        -0.0205 
    127 H127        3.8622  -19.2281  -45.9974 H         1 UNK         0.0600 
    128 H128        5.5314  -18.6583  -45.9348 H         1 UNK         0.0600 
    129 H129        4.9233  -19.4564  -47.3903 H         1 UNK         0.0600 
    130 H130        2.3854  -17.7238  -46.4819 H         1 UNK         0.3000 
    131 H131        1.2852  -15.9773  -46.9724 H         1 UNK         0.0600 
    132 H132        1.5987  -17.0608  -49.2337 H         1 UNK         0.0800 
    133 H133        0.9340  -15.4728  -49.1762 H         1 UNK         0.0800 
    134 H134        4.4626  -16.5802  -51.7691 H         1 UNK         0.0800 
    135 H135        4.5356  -17.2833  -50.1798 H         1 UNK         0.0800 
    136 H136        1.9261  -16.6816  -52.8529 H         1 UNK         0.1150 
    137 H137        0.3454  -20.6511  -52.5250 H         1 UNK         0.1150 
    138 H138        3.5937  -19.4061  -50.0119 H         1 UNK         0.1150 
    139 H139        0.9661  -22.0125  -50.5622 H         1 UNK         0.0800 
    140 H140        2.5535  -22.2342  -51.2499 H         1 UNK         0.0800 
    141 H141        0.6408  -20.4664  -48.4693 H         1 UNK         0.0800 
    142 H142        1.8445  -20.2918  -47.2269 H         1 UNK         0.0800 
    143 H143        1.4374  -22.9078  -46.8424 H         1 UNK         0.0600 
    144 H144        0.2562  -20.6683  -45.5328 H         1 UNK         0.3000 
    145 H145       -0.9622  -22.6604  -42.7706 H         1 UNK         0.0600 
    146 H146        0.3640  -20.8800  -41.6086 H         1 UNK         0.0600 
    147 H147        1.3981  -22.1253  -42.2921 H         1 UNK         0.0600 
    148 H148        1.2545  -20.5735  -43.1011 H         1 UNK         0.0600 
    149 H149       -1.2339  -19.8874  -43.2563 H         1 UNK         0.3000 
    150 H150       -4.2605  -20.0399  -45.1946 H         1 UNK         0.0600 
    151 H151       -4.9636  -18.5001  -43.3861 H         1 UNK         0.0600 
    152 H152       -4.9185  -20.1515  -42.7848 H         1 UNK         0.0600 
    153 H153       -3.6261  -19.0303  -42.3701 H         1 UNK         0.0600 
    154 H154       -2.7122  -17.8259  -44.3354 H         1 UNK         0.3000 
    155 H155       -0.4325  -17.7143  -47.1086 H         1 UNK         0.0600 
    156 H156       -2.7313  -15.9427  -46.1263 H         1 UNK         0.0600 
    157 H157       -2.3808  -16.4113  -47.7827 H         1 UNK         0.0600 
    158 H158       -1.2788  -15.3469  -46.9279 H         1 UNK         0.0600 
    159 H159       -0.7694  -16.3806  -44.5205 H         1 UNK         0.3000 
    160 H160        1.5717  -18.2996  -42.7901 H         1 UNK         0.0600 
    161 H161        2.3201  -15.6650  -44.1438 H         1 UNK         0.0600 
    162 H162        3.2861  -17.1355  -44.1084 H         1 UNK         0.0600 
    163 H163        2.9920  -16.2604  -42.6201 H         1 UNK         0.0600 
    164 H164        0.5162  -15.6538  -42.3450 H         1 UNK         0.3000 
    165 H165       -2.4657  -16.8684  -40.7054 H         1 UNK         0.0600 
    166 H166       -1.5518  -15.2608  -39.0786 H         1 UNK         0.0600 
    167 H167       -0.5064  -16.6701  -39.1497 H         1 UNK         0.0600 
    168 H168       -0.0219  -15.1799  -39.9508 H         1 UNK         0.0600 
    169 H169       -1.9012  -14.2193  -41.3273 H         1 UNK         0.3000 
    170 H170       -3.1150  -13.8379  -44.5353 H         1 UNK         0.0600 
    171 H171       -5.3262  -14.6002  -43.7284 H         1 UNK         0.0600 
    172 H172       -5.0936  -13.7484  -42.2067 H         1 UNK         0.0600 
    173 H173       -5.2302  -12.8474  -43.7169 H         1 UNK         0.0600 
    174 H174       -3.2300  -12.2208  -42.1185 H         1 UNK         0.3000 
    175 H175       -0.7948  -13.7552  -44.3747 H         1 UNK         0.0600 
    176 H176       -0.7853  -10.9570  -45.6321 H         1 UNK         0.0600 
    177 H177       -0.4405  -12.4760  -46.4574 H         1 UNK         0.0600 
    178 H178       -2.0580  -12.1463  -45.8651 H         1 UNK         0.0600 
    179 H179        1.2683  -11.8257  -44.6423 H         1 UNK         0.3000 
    180 H180        2.9899  -11.5605  -42.8524 H         1 UNK         0.0600 
    181 H181        3.6432  -14.3040  -41.6547 H         1 UNK         0.0600 
    182 H182        3.1126  -12.8869  -40.7610 H         1 UNK         0.0600 
    183 H183        4.6625  -12.8710  -41.5867 H         1 UNK         0.0600 
    184 H184        3.8489  -14.1078  -44.1670 H         1 UNK         0.3000 
    185 H185        4.5445  -12.4175  -47.2235 H         1 UNK         0.0600 
    186 H186        6.6538  -12.3857  -45.8749 H         1 UNK         0.0600 
    187 H187        6.3039  -14.0047  -45.2789 H         1 UNK         0.0600 
    188 H188        6.6188  -13.7404  -46.9931 H         1 UNK         0.0600 
    189 H189        4.5985  -15.1589  -46.7882 H         1 UNK         0.3000 
    190 H190       -1.8329  -21.4897  -47.0098 H         1 UNK         0.3000 
    191 H191       -2.7723  -23.1269  -49.1273 H         1 UNK         0.0600 
    192 H192       -3.9371  -21.0785  -48.3423 H         1 UNK         0.0600 
    193 H193       -5.0205  -22.4615  -48.3435 H         1 UNK         0.0600 
    194 H194       -4.3539  -21.8723  -46.8258 H         1 UNK         0.0600 
    195 H195       -2.6288  -23.7194  -45.5976 H         1 UNK         0.3000 
    196 H196       -3.9338  -26.2652  -45.6648 H         1 UNK         0.0600 
    197 H197       -2.9144  -26.5566  -43.4191 H         1 UNK         0.0600 
    198 H198       -3.6145  -24.9523  -43.5789 H         1 UNK         0.0600 
    199 H199       -1.8694  -25.1676  -43.6834 H         1 UNK         0.0600 
    200 H200       -0.5509  -25.2846  -46.1720 H         1 UNK         0.3000 
    201 H201        0.5010  -27.9734  -46.2437 H         1 UNK         0.0600 
    202 H202        1.8491  -26.0253  -45.4995 H         1 UNK         0.0600 
    203 H203        1.7444  -25.3124  -47.1077 H         1 UNK         0.0600 
    204 H204        2.6075  -26.8254  -46.8684 H         1 UNK         0.0600 
    205 H205       -0.2466  -25.5295  -48.7915 H         1 UNK         0.3000 
    206 H206        0.2229  -27.5673  -50.9272 H         1 UNK         0.0600 
    207 H207        2.2869  -26.2269  -50.4650 H         1 UNK         0.0600 
    208 H208        1.6385  -25.8717  -52.0554 H         1 UNK         0.0600 
    209 H209        1.3823  -24.7386  -50.7314 H         1 UNK         0.0600 
    210 H210       -2.2949  -26.3349  -49.8217 H         1 UNK         0.3000 
    211 H211       -4.3180  -25.9168  -50.5490 H         1 UNK         0.0600 
    212 H212       -3.3208  -26.1834  -53.4257 H         1 UNK         0.0600 
    213 H213       -4.9919  -26.1983  -52.8885 H         1 UNK         0.0600 
    214 H214       -3.9100  -27.4944  -52.4062 H         1 UNK         0.0600 
    215 H215       -2.1040  -24.0855  -52.6483 H         1 UNK         0.3000 
    216 H216       -1.9743  -21.9678  -53.3653 H         1 UNK         0.0600 
    217 H217       -1.9376  -20.2857  -51.5800 H         1 UNK         0.0600 
    218 H218       -1.3456  -21.7997  -50.9110 H         1 UNK         0.0600 
    219 H219       -2.9834  -21.2604  -50.5632 H         1 UNK         0.0600 
    220 H220       -4.6238  -23.1781  -53.8846 H         1 UNK         0.3000 
    221 H221       -6.7117  -22.7940  -54.5367 H         1 UNK         0.0600 
    222 H222       -5.8059  -19.9344  -55.1518 H         1 UNK         0.0600 
    223 H223       -5.5830  -21.3146  -56.2225 H         1 UNK         0.0600 
    224 H224       -7.2014  -20.7547  -55.8326 H         1 UNK         0.0600 
    225 H225       -6.2830  -22.6751  -51.7860 H         1 UNK         0.3000 
    226 H226       -7.2220  -22.2534  -49.8470 H         1 UNK         0.0600 
    227 H227       -9.4253  -22.6575  -50.9672 H         1 UNK         0.0600 
    228 H228       -9.5538  -21.5103  -49.6440 H         1 UNK         0.0600 
    229 H229       -9.5732  -20.9328  -51.3026 H         1 UNK         0.0600 
    230 H230       -5.2465  -20.6543  -50.7214 H         1 UNK         0.3000 
    231 H231       -3.9659  -18.9918  -50.0820 H         1 UNK         0.0600 
    232 H232       -6.1802  -17.8929  -48.2760 H         1 UNK         0.0600 
    233 H233       -4.4676  -17.5328  -48.1919 H         1 UNK         0.0600 
    234 H234       -5.0364  -19.1398  -47.7896 H         1 UNK         0.0600 
    235 H235       -6.4629  -18.6413  -52.1054 H         1 UNK         0.3000 
    236 H236       -6.4317  -15.7395  -52.4825 H         1 UNK         0.0600 
    237 H237       -8.4756  -17.1416  -52.9138 H         1 UNK         0.0600 
    238 H238       -7.9747  -16.2231  -54.3260 H         1 UNK         0.0600 
    239 H239       -7.6296  -17.9434  -54.2373 H         1 UNK         0.0600 
    240 H240       -4.6075  -18.4937  -53.6689 H         1 UNK         0.3000 
    241 H241       -3.0453  -18.8420  -55.1423 H         1 UNK         0.0600 
    242 H242       -5.8127  -17.8648  -56.3426 H         1 UNK         0.3800 
    243 H243       -5.3791  -17.7340  -58.0267 H         1 UNK         0.3800 
    244 H244       -2.4480  -15.8589  -54.8886 H         1 UNK         0.0800 
    245 H245       -1.4015  -16.9770  -55.7055 H         1 UNK         0.0800 
    246 H246       -0.3255  -19.2438  -54.3741 H         1 UNK         0.0800 
    247 H247        0.5675  -17.7777  -54.7063 H         1 UNK         0.0800 
@<TRIPOS>BOND
     1    1    2 1    
     2    1  127 1    
     3    1  128 1    
     4    1  129 1    
     5    2    3 2    
     6    2    4 am   BACKBONE|DICT|INTERRES
     7    4    5 1    
     8    4  130 1    
     9    5    6 1    
    10    5   65 1    
    11    5  131 1    
    12    6    7 1    
    13    6  132 1    
    14    6  133 1    
    15    7    8 1    
    16    8    9 1    
    17    8  134 1    
    18    8  135 1    
    19    9   10 ar   
    20    9   14 ar   
    21   10   11 ar   
    22   10  136 1    
    23   11   12 ar   
    24   11  126 1    
    25   12   13 ar   
    26   12  137 1    
    27   13   14 ar   
    28   13   15 1    
    29   14  138 1    
    30   15   16 1    
    31   15  139 1    
    32   15  140 1    
    33   16   17 1    
    34   17   18 1    
    35   17  141 1    
    36   17  142 1    
    37   18   19 1    
    38   18   67 1    
    39   18  143 1    
    40   19   20 am   BACKBONE|DICT|INTERRES
    41   19  144 1    
    42   20   21 2    
    43   20   22 1    
    44   22   23 1    
    45   22   24 1    
    46   22  145 1    
    47   23  146 1    
    48   23  147 1    
    49   23  148 1    
    50   24   25 am   BACKBONE|DICT|INTERRES
    51   24  149 1    
    52   25   26 2    
    53   25   27 1    
    54   27   28 1    
    55   27   29 1    
    56   27  150 1    
    57   28  151 1    
    58   28  152 1    
    59   28  153 1    
    60   29   30 am   BACKBONE|DICT|INTERRES
    61   29  154 1    
    62   30   31 2    
    63   30   32 1    
    64   32   33 1    
    65   32   34 1    
    66   32  155 1    
    67   33  156 1    
    68   33  157 1    
    69   33  158 1    
    70   34   35 am   BACKBONE|DICT|INTERRES
    71   34  159 1    
    72   35   36 2    
    73   35   37 1    
    74   37   38 1    
    75   37   39 1    
    76   37  160 1    
    77   38  161 1    
    78   38  162 1    
    79   38  163 1    
    80   39   40 am   BACKBONE|DICT|INTERRES
    81   39  164 1    
    82   40   41 2    
    83   40   42 1    
    84   42   43 1    
    85   42   44 1    
    86   42  165 1    
    87   43  166 1    
    88   43  167 1    
    89   43  168 1    
    90   44   45 am   BACKBONE|DICT|INTERRES
    91   44  169 1    
    92   45   46 2    
    93   45   47 1    
    94   47   48 1    
    95   47   49 1    
    96   47  170 1    
    97   48  171 1    
    98   48  172 1    
    99   48  173 1    
   100   49   50 am   BACKBONE|DICT|INTERRES
   101   49  174 1    
   102   50   51 2    
   103   50   52 1    
   104   52   53 1    
   105   52   54 1    
   106   52  175 1    
   107   53  176 1    
   108   53  177 1    
   109   53  178 1    
   110   54   55 am   BACKBONE|DICT|INTERRES
   111   54  179 1    
   112   55   56 2    
   113   55   57 1    
   114   57   58 1    
   115   57   59 1    
   116   57  180 1    
   117   58  181 1    
   118   58  182 1    
   119   58  183 1    
   120   59   60 am   BACKBONE|DICT|INTERRES
   121   59  184 1    
   122   60   61 2    
   123   60   62 1    
   124   62   63 1    
   125   62   64 1    
   126   62  185 1    
   127   63  186 1    
   128   63  187 1    
   129   63  188 1    
   130   64   65 am   BACKBONE|DICT|INTERRES
   131   64  189 1    
   132   65   66 2    
   133   67   68 2    
   134   67   69 am   BACKBONE|DICT|INTERRES
   135   69   70 1    
   136   69  190 1    
   137   70   71 1    
   138   70   72 1    
   139   70  191 1    
   140   71  192 1    
   141   71  193 1    
   142   71  194 1    
   143   72   73 2    
   144   72   74 am   BACKBONE|DICT|INTERRES
   145   74   75 1    
   146   74  195 1    
   147   75   76 1    
   148   75   77 1    
   149   75  196 1    
   150   76  197 1    
   151   76  198 1    
   152   76  199 1    
   153   77   78 2    
   154   77   79 am   BACKBONE|DICT|INTERRES
   155   79   80 1    
   156   79  200 1    
   157   80   81 1    
   158   80   82 1    
   159   80  201 1    
   160   81  202 1    
   161   81  203 1    
   162   81  204 1    
   163   82   83 2    
   164   82   84 am   BACKBONE|DICT|INTERRES
   165   84   85 1    
   166   84  205 1    
   167   85   86 1    
   168   85   87 1    
   169   85  206 1    
   170   86  207 1    
   171   86  208 1    
   172   86  209 1    
   173   87   88 2    
   174   87   89 am   BACKBONE|DICT|INTERRES
   175   89   90 1    
   176   89  210 1    
   177   90   91 1    
   178   90   92 1    
   179   90  211 1    
   180   91  212 1    
   181   91  213 1    
   182   91  214 1    
   183   92   93 2    
   184   92   94 am   BACKBONE|DICT|INTERRES
   185   94   95 1    
   186   94  215 1    
   187   95   96 1    
   188   95   97 1    
   189   95  216 1    
   190   96  217 1    
   191   96  218 1    
   192   96  219 1    
   193   97   98 2    
   194   97   99 am   BACKBONE|DICT|INTERRES
   195   99  100 1    
   196   99  220 1    
   197  100  101 1    
   198  100  102 1    
   199  100  221 1    
   200  101  222 1    
   201  101  223 1    
   202  101  224 1    
   203  102  103 2    
   204  102  104 am   BACKBONE|DICT|INTERRES
   205  104  105 1    
   206  104  225 1    
   207  105  106 1    
   208  105  107 1    
   209  105  226 1    
   210  106  227 1    
   211  106  228 1    
   212  106  229 1    
   213  107  108 2    
   214  107  109 am   BACKBONE|DICT|INTERRES
   215  109  110 1    
   216  109  230 1    
   217  110  111 1    
   218  110  112 1    
   219  110  231 1    
   220  111  232 1    
   221  111  233 1    
   222  111  234 1    
   223  112  113 2    
   224  112  114 am   BACKBONE|DICT|INTERRES
   225  114  115 1    
   226  114  235 1    
   227  115  116 1    
   228  115  117 1    
   229  115  236 1    
   230  116  237 1    
   231  116  238 1    
   232  116  239 1    
   233  117  118 2    
   234  117  119 am   BACKBONE|DICT|INTERRES
   235  119  120 1    
   236  119  240 1    
   237  120  121 1    
   238  120  124 1    
   239  120  241 1    
   240  121  122 am   BACKBONE|DICT|INTERRES
   241  121  123 2    
   242  122  242 1    
   243  122  243 1    
   244  124  125 1    
   245  124  244 1    
   246  124  245 1    
   247  125  126 1    
   248  126  246 1    
   249  126  247 1    
@<TRIPOS>SUBSTRUCTURE
     1 UNK         1 GROUP             0       ****    0 ROOT    
