@<TRIPOS>MOLECULE
3R540
247   249    1
SMALL
USER_CHARGES


@<TRIPOS>ATOM
      1 CA          3.9065  -16.2439  -50.6741 C.3       0 UNK        -0.1800 
      2 C           3.8303  -15.4780  -49.3611 C.2       0 UNK         0.5000 
      3 O           4.0590  -14.2682  -49.3438 O.2       0 UNK        -0.5000 
      4 N           3.5015  -16.1807  -48.2692 N.am      1 UNK        -0.5000 
      5 CA          3.3706  -15.6936  -46.8915 C.3       1 UNK         0.1400 
      6 C6          2.3175  -14.5644  -46.6928 C.3       23 UNK        -0.0398 
      7 S7          0.6066  -15.1780  -46.6891 S.3       23 UNK        -0.2404 
      8 C8          0.0597  -14.9238  -48.4064 C.3       23 UNK        -0.0205 
      9 C9         -0.6003  -16.1889  -48.9298 C.ar      23 UNK        -0.0193 
     10 C10        -1.9896  -16.3487  -48.8941 C.ar      23 UNK        -0.1150 
     11 C11        -2.5732  -17.5481  -49.3179 C.ar      23 UNK        -0.0193 
     12 C12        -1.7574  -18.5965  -49.7522 C.ar      23 UNK        -0.1150 
     13 C13        -0.3703  -18.4416  -49.8052 C.ar      23 UNK        -0.0193 
     14 C14         0.1960  -17.2259  -49.4165 C.ar      23 UNK        -0.1150 
     15 C15         0.5144  -19.5996  -50.2479 C.3       23 UNK        -0.0205 
     16 S16         1.8999  -19.9285  -49.1019 S.3       23 UNK        -0.2404 
     17 C17         1.0633  -20.0425  -47.4802 C.3       23 UNK        -0.0398 
     18 CA          0.7595  -21.4940  -47.0513 C.3       11 UNK         0.1400 
     19 N           0.5953  -21.6011  -45.6031 N.am      11 UNK        -0.5000 
     20 C           0.5147  -22.7544  -44.9272 C.2       10 UNK         0.5000 
     21 O           0.6018  -23.8655  -45.4510 O.2       10 UNK        -0.5000 
     22 CA          0.2448  -22.6385  -43.4183 C.3       10 UNK         0.1400 
     23 CB          1.5327  -22.2937  -42.6550 C.3       10 UNK        -0.1800 
     24 N          -0.7796  -21.6362  -43.1245 N.am      10 UNK        -0.5000 
     25 C          -2.0756  -21.7639  -43.4411 C.2       9 UNK         0.5000 
     26 O          -2.5518  -22.7549  -43.9958 O.2       9 UNK        -0.5000 
     27 CA         -2.9800  -20.5611  -43.1157 C.3       9 UNK         0.1400 
     28 CB         -3.3493  -20.5418  -41.6249 C.3       9 UNK        -0.1800 
     29 N          -2.3684  -19.2822  -43.4815 N.am      9 UNK        -0.5000 
     30 C          -2.1028  -18.9097  -44.7414 C.2       8 UNK         0.5000 
     31 O          -2.3477  -19.6026  -45.7242 O.2       8 UNK        -0.5000 
     32 CA         -1.4056  -17.5578  -44.9440 C.3       8 UNK         0.1400 
     33 CB         -2.4481  -16.4337  -45.0348 C.3       8 UNK        -0.1800 
     34 N          -0.4114  -17.2533  -43.9102 N.am      8 UNK        -0.5000 
     35 C           0.6824  -17.9966  -43.6759 C.2       7 UNK         0.5000 
     36 O           0.9184  -19.0534  -44.2639 O.2       7 UNK        -0.5000 
     37 CA          1.6941  -17.5028  -42.6235 C.3       7 UNK         0.1400 
     38 CB          2.9751  -17.0176  -43.3110 C.3       7 UNK        -0.1800 
     39 N           1.1993  -16.4397  -41.7495 N.am      7 UNK        -0.5000 
     40 C           0.2772  -16.6094  -40.7945 C.2       6 UNK         0.5000 
     41 O          -0.2662  -17.6883  -40.5525 O.2       6 UNK        -0.5000 
     42 CA         -0.1283  -15.3549  -39.9976 C.3       6 UNK         0.1400 
     43 CB          0.8558  -15.1123  -38.8431 C.3       6 UNK        -0.1800 
     44 N          -0.2382  -14.1297  -40.7980 N.am      6 UNK        -0.5000 
     45 C          -1.0167  -13.9655  -41.8780 C.2       5 UNK         0.5000 
     46 O          -1.6601  -14.8775  -42.3930 O.2       5 UNK        -0.5000 
     47 CA         -1.1121  -12.5508  -42.4858 C.3       5 UNK         0.1400 
     48 CB         -2.5209  -11.9782  -42.2655 C.3       5 UNK        -0.1800 
     49 N          -0.1406  -11.6143  -41.9108 N.am      5 UNK        -0.5000 
     50 C           1.1279  -11.4082  -42.2905 C.2       4 UNK         0.5000 
     51 O           1.8482  -10.6133  -41.6851 O.2       4 UNK        -0.5000 
     52 CA          1.6957  -12.1363  -43.5313 C.3       4 UNK         0.1400 
     53 CB          1.4783  -11.2864  -44.7937 C.3       4 UNK        -0.1800 
     54 N           3.1251  -12.3983  -43.3802 N.am      4 UNK        -0.5000 
     55 C           3.6429  -13.2971  -42.5348 C.2       3 UNK         0.5000 
     56 O           2.9517  -14.0693  -41.8657 O.2       3 UNK        -0.5000 
     57 CA          5.1827  -13.3593  -42.4734 C.3       3 UNK         0.1400 
     58 CB          5.7000  -14.3880  -41.4527 C.3       3 UNK        -0.1800 
     59 N           5.7258  -13.6845  -43.7914 N.am      3 UNK        -0.5000 
     60 C           6.0225  -12.8076  -44.7578 C.2       2 UNK         0.5000 
     61 O           5.9472  -11.5872  -44.6128 O.2       2 UNK        -0.5000 
     62 CA          6.3874  -13.3901  -46.1385 C.3       2 UNK         0.1400 
     63 CB          7.7018  -14.1948  -46.1042 C.3       2 UNK        -0.1800 
     64 N           5.2788  -14.1568  -46.7227 N.am      2 UNK        -0.5000 
     65 C           4.7297  -15.2973  -46.2823 C.2       1 UNK         0.5000 
     66 O           5.2181  -15.9954  -45.3935 O.2       1 UNK        -0.5000 
     67 C          -0.4500  -22.0838  -47.8047 C.2       11 UNK         0.5000 
     68 O          -0.2542  -22.8506  -48.7455 O.2       11 UNK        -0.5000 
     69 N          -1.6749  -21.7719  -47.3556 N.am      12 UNK        -0.5000 
     70 CA         -2.9169  -22.3148  -47.9039 C.3       12 UNK         0.1400 
     71 CB         -4.1312  -21.6224  -47.2688 C.3       12 UNK        -0.1800 
     72 C          -3.0328  -23.8384  -47.7464 C.2       12 UNK         0.5000 
     73 O          -3.4990  -24.4964  -48.6752 O.2       12 UNK        -0.5000 
     74 N          -2.5854  -24.3767  -46.6044 N.am      13 UNK        -0.5000 
     75 CA         -2.5269  -25.8174  -46.3553 C.3       13 UNK         0.1400 
     76 CB         -2.1932  -26.0727  -44.8777 C.3       13 UNK        -0.1800 
     77 C          -1.5263  -26.5381  -47.2799 C.2       13 UNK         0.5000 
     78 O          -1.8228  -27.6339  -47.7569 O.2       13 UNK        -0.5000 
     79 N          -0.3726  -25.9046  -47.5284 N.am      14 UNK        -0.5000 
     80 CA          0.6847  -26.4211  -48.3953 C.3       14 UNK         0.1400 
     81 CB          1.9943  -25.6764  -48.0906 C.3       14 UNK        -0.1800 
     82 C           0.3400  -26.3231  -49.8935 C.2       14 UNK         0.5000 
     83 O           0.5313  -27.2949  -50.6253 O.2       14 UNK        -0.5000 
     84 N          -0.1396  -25.1501  -50.3257 N.am      15 UNK        -0.5000 
     85 CA         -0.3276  -24.7890  -51.7334 C.3       15 UNK         0.1400 
     86 CB          0.1154  -23.3277  -51.9231 C.3       15 UNK        -0.1800 
     87 C          -1.7683  -24.9904  -52.2413 C.2       15 UNK         0.5000 
     88 O          -2.0683  -24.5569  -53.3548 O.2       15 UNK        -0.5000 
     89 N          -2.6419  -25.6026  -51.4281 N.am      16 UNK        -0.5000 
     90 CA         -4.0632  -25.8645  -51.6970 C.3       16 UNK         0.1400 
     91 CB         -4.2229  -26.9063  -52.8239 C.3       16 UNK        -0.1800 
     92 C          -4.8424  -24.5612  -51.9682 C.2       16 UNK         0.5000 
     93 O          -5.4239  -24.3846  -53.0409 O.2       16 UNK        -0.5000 
     94 N          -4.7704  -23.6426  -50.9951 N.am      17 UNK        -0.5000 
     95 CA         -5.3116  -22.2786  -51.0195 C.3       17 UNK         0.1400 
     96 CB         -6.8542  -22.3072  -50.9896 C.3       17 UNK        -0.1800 
     97 C          -4.7285  -21.4308  -52.1696 C.2       17 UNK         0.5000 
     98 O          -5.4542  -20.6507  -52.7847 O.2       17 UNK        -0.5000 
     99 N          -3.4299  -21.6335  -52.4473 N.am      18 UNK        -0.5000 
    100 CA        -2.6622  -21.0710  -53.5651 C.3       18 UNK         0.1400 
    101 CB        -2.4681  -19.5506  -53.3921 C.3       18 UNK        -0.1800 
    102 C         -3.2745  -21.4559  -54.9266 C.2       18 UNK         0.5000 
    103 O         -3.5727  -20.5842  -55.7426 O.2       18 UNK        -0.5000 
    104 N         -3.5007  -22.7641  -55.1175 N.am      19 UNK        -0.5000 
    105 CA        -4.2205  -23.3764  -56.2406 C.3       19 UNK         0.1400 
    106 CB        -3.3938  -23.2755  -57.5391 C.3       19 UNK        -0.1800 
    107 C         -5.6535  -22.8162  -56.3829 C.2       19 UNK         0.5000 
    108 O         -6.0743  -22.4379  -57.4775 O.2       19 UNK        -0.5000 
    109 N         -6.3535  -22.7467  -55.2424 N.am      20 UNK        -0.5000 
    110 CA        -7.7044  -22.2181  -55.0291 C.3       20 UNK         0.1400 
    111 CB        -8.7439  -23.0108  -55.8480 C.3       20 UNK        -0.1800 
    112 C         -7.8635  -20.6918  -55.2127 C.2       20 UNK         0.5000 
    113 O         -8.9891  -20.2012  -55.1029 O.2       20 UNK        -0.5000 
    114 N         -6.7713  -19.9467  -55.4439 N.am      21 UNK        -0.5000 
    115 CA        -6.7841  -18.4897  -55.6205 C.3       21 UNK         0.1400 
    116 CB        -5.4020  -18.0057  -56.0798 C.3       21 UNK        -0.1800 
    117 C         -7.2344  -17.7133  -54.3673 C.2       21 UNK         0.5000 
    118 O         -7.8507  -16.6555  -54.5063 O.2       21 UNK        -0.5000 
    119 N         -6.9513  -18.2573  -53.1772 N.am      22 UNK        -0.5000 
    120 CA        -7.4323  -17.7389  -51.8857 C.3       22 UNK         0.1400 
    121 C         -8.8981  -18.1514  -51.5490 C.2       22 UNK         0.5000 
    122 N         -9.5934  -18.9269  -52.3742 N.am      22 UNK        -0.7600 
    123 O         -9.4256  -17.7482  -50.5159 O.2       22 UNK        -0.5000 
    124 C124       -6.4722  -18.0893  -50.7180 C.3       23 UNK        -0.0398 
    125 S125       -4.7786  -17.4619  -50.9664 S.3       23 UNK        -0.2404 
    126 C126       -4.0821  -17.7270  -49.3071 C.3       23 UNK        -0.0205 
    127 H127        3.6991  -17.3059  -50.5381 H         1 UNK         0.0600 
    128 H128        4.9007  -16.1444  -51.1097 H         1 UNK         0.0600 
    129 H129        3.1804  -15.8448  -51.3822 H         1 UNK         0.0600 
    130 H130        3.3612  -17.1762  -48.3698 H         1 UNK         0.3000 
    131 H131        3.0327  -16.5584  -46.3179 H         1 UNK         0.0600 
    132 H132        2.4542  -14.0983  -45.7163 H         1 UNK         0.0800 
    133 H133        2.4255  -13.7586  -47.4186 H         1 UNK         0.0800 
    134 H134       -0.6346  -14.0832  -48.4431 H         1 UNK         0.0800 
    135 H135        0.9025  -14.6577  -49.0453 H         1 UNK         0.0800 
    136 H136       -2.6136  -15.5454  -48.5288 H         1 UNK         0.1150 
    137 H137       -2.2085  -19.5309  -50.0552 H         1 UNK         0.1150 
    138 H138        1.2668  -17.1046  -49.4489 H         1 UNK         0.1150 
    139 H139       -0.0735  -20.5113  -50.3556 H         1 UNK         0.0800 
    140 H140        0.9184  -19.3765  -51.2360 H         1 UNK         0.0800 
    141 H141        0.1673  -19.4228  -47.4375 H         1 UNK         0.0800 
    142 H142        1.7527  -19.5919  -46.7652 H         1 UNK         0.0800 
    143 H143        1.6270  -22.1069  -47.3062 H         1 UNK         0.0600 
    144 H144        0.5469  -20.7267  -45.0861 H         1 UNK         0.3000 
    145 H145       -0.1129  -23.6085  -43.0661 H         1 UNK         0.0600 
    146 H146        1.3596  -22.2747  -41.5789 H         1 UNK         0.0600 
    147 H147        2.3088  -23.0360  -42.8460 H         1 UNK         0.0600 
    148 H148        1.9298  -21.3210  -42.9478 H         1 UNK         0.0600 
    149 H149       -0.4654  -20.7696  -42.7135 H         1 UNK         0.3000 
    150 H150       -3.9002  -20.6729  -43.6932 H         1 UNK         0.0600 
    151 H151       -4.0623  -19.7465  -41.4066 H         1 UNK         0.0600 
    152 H152       -3.8115  -21.4832  -41.3249 H         1 UNK         0.0600 
    153 H153       -2.4733  -20.3888  -40.9931 H         1 UNK         0.0600 
    154 H154       -2.1118  -18.6591  -42.7289 H         1 UNK         0.3000 
    155 H155       -0.8793  -17.6075  -45.8992 H         1 UNK         0.0600 
    156 H156       -3.0531  -16.3710  -44.1297 H         1 UNK         0.0600 
    157 H157       -3.1270  -16.6030  -45.8716 H         1 UNK         0.0600 
    158 H158       -1.9778  -15.4633  -45.1913 H         1 UNK         0.0600 
    159 H159       -0.5715  -16.4164  -43.3618 H         1 UNK         0.3000 
    160 H160        1.9504  -18.3631  -42.0018 H         1 UNK         0.0600 
    161 H161        2.7964  -16.1082  -43.8845 H         1 UNK         0.0600 
    162 H162        3.3712  -17.7700  -43.9943 H         1 UNK         0.0600 
    163 H163        3.7544  -16.8058  -42.5806 H         1 UNK         0.0600 
    164 H164        1.6378  -15.5277  -41.8463 H         1 UNK         0.3000 
    165 H165       -1.1135  -15.5495  -39.5691 H         1 UNK         0.0600 
    166 H166        0.5194  -14.2980  -38.2012 H         1 UNK         0.0600 
    167 H167        0.9514  -16.0001  -38.2165 H         1 UNK         0.0600 
    168 H168        1.8515  -14.8609  -39.2114 H         1 UNK         0.0600 
    169 H169        0.2788  -13.3306  -40.4618 H         1 UNK         0.3000 
    170 H170       -0.9674  -12.6379  -43.5634 H         1 UNK         0.0600 
    171 H171       -3.2808  -12.6237  -42.7084 H         1 UNK         0.0600 
    172 H172       -2.7547  -11.8767  -41.2049 H         1 UNK         0.0600 
    173 H173       -2.6240  -10.9961  -42.7275 H         1 UNK         0.0600 
    174 H174       -0.4775  -11.0922  -41.1151 H         1 UNK         0.3000 
    175 H175        1.2088  -13.1025  -43.6666 H         1 UNK         0.0600 
    176 H176        1.9580  -10.3105  -44.7072 H         1 UNK         0.0600 
    177 H177        1.8786  -11.7743  -45.6815 H         1 UNK         0.0600 
    178 H178        0.4164  -11.1131  -44.9719 H         1 UNK         0.0600 
    179 H179        3.7593  -11.7815  -43.8707 H         1 UNK         0.3000 
    180 H180        5.5363  -12.3749  -42.1602 H         1 UNK         0.0600 
    181 H181        5.4122  -15.4044  -41.7197 H         1 UNK         0.0600 
    182 H182        5.3061  -14.1840  -40.4563 H         1 UNK         0.0600 
    183 H183        6.7875  -14.3579  -41.3838 H         1 UNK         0.0600 
    184 H184        5.7274  -14.6674  -44.0484 H         1 UNK         0.3000 
    185 H185        6.5457  -12.5428  -46.8075 H         1 UNK         0.0600 
    186 H186        8.5282  -13.5678  -45.7678 H         1 UNK         0.0600 
    187 H187        7.6515  -15.0499  -45.4303 H         1 UNK         0.0600 
    188 H188        7.9591  -14.5666  -47.0960 H         1 UNK         0.0600 
    189 H189        4.8283  -13.7218  -47.5216 H         1 UNK         0.3000 
    190 H190       -1.7797  -21.0904  -46.6064 H         1 UNK         0.3000 
    191 H191       -2.9175  -22.0940  -48.9725 H         1 UNK         0.0600 
    192 H192       -4.1329  -20.5548  -47.4829 H         1 UNK         0.0600 
    193 H193       -5.0668  -22.0321  -47.6516 H         1 UNK         0.0600 
    194 H194       -4.1404  -21.7454  -46.1852 H         1 UNK         0.0600 
    195 H195       -2.2627  -23.7666  -45.8619 H         1 UNK         0.3000 
    196 H196       -3.5176  -26.2319  -46.5531 H         1 UNK         0.0600 
    197 H197       -2.1716  -27.1415  -44.6615 H         1 UNK         0.0600 
    198 H198       -2.9395  -25.6230  -44.2225 H         1 UNK         0.0600 
    199 H199       -1.2205  -25.6630  -44.6054 H         1 UNK         0.0600 
    200 H200       -0.1926  -25.0211  -47.0647 H         1 UNK         0.3000 
    201 H201        0.8379  -27.4760  -48.1574 H         1 UNK         0.0600 
    202 H202        2.2881  -25.8080  -47.0490 H         1 UNK         0.0600 
    203 H203        1.9036  -24.6056  -48.2771 H         1 UNK         0.0600 
    204 H204        2.8107  -26.0505  -48.7095 H         1 UNK         0.0600 
    205 H205       -0.2503  -24.3893  -49.6559 H         1 UNK         0.3000 
    206 H206        0.3170  -25.4112  -52.3575 H         1 UNK         0.0600 
    207 H207        1.1139  -23.1600  -51.5184 H         1 UNK         0.0600 
    208 H208        0.1487  -23.0615  -52.9799 H         1 UNK         0.0600 
    209 H209       -0.5652  -22.6353  -51.4279 H         1 UNK         0.0600 
    210 H210       -2.3144  -25.8651  -50.5083 H         1 UNK         0.3000 
    211 H211       -4.4808  -26.2953  -50.7857 H         1 UNK         0.0600 
    212 H212       -3.8492  -26.5367  -53.7793 H         1 UNK         0.0600 
    213 H213       -5.2722  -27.1680  -52.9646 H         1 UNK         0.0600 
    214 H214       -3.6873  -27.8257  -52.5880 H         1 UNK         0.0600 
    215 H215       -4.2760  -23.9158  -50.1461 H         1 UNK         0.3000 
    216 H216       -4.9836  -21.7887  -50.1039 H         1 UNK         0.0600 
    217 H217       -7.2678  -22.8400  -51.8437 H         1 UNK         0.0600 
    218 H218       -7.2784  -21.3034  -50.9951 H         1 UNK         0.0600 
    219 H219       -7.2146  -22.8025  -50.0882 H         1 UNK         0.0600 
    220 H220       -2.9515  -22.3387  -51.9080 H         1 UNK         0.3000 
    221 H221       -1.6748  -21.5316  -53.5360 H         1 UNK         0.0600 
    222 H222       -3.4177  -19.0160  -53.3739 H         1 UNK         0.0600 
    223 H223       -1.9404  -19.3250  -52.4675 H         1 UNK         0.0600 
    224 H224       -1.8753  -19.1358  -54.2080 H         1 UNK         0.0600 
    225 H225       -3.1903  -23.4120  -54.3968 H         1 UNK         0.3000 
    226 H226       -4.3264  -24.4344  -55.9959 H         1 UNK         0.0600 
    227 H227       -2.3986  -23.6993  -57.4052 H         1 UNK         0.0600 
    228 H228       -3.8739  -23.8244  -58.3500 H         1 UNK         0.0600 
    229 H229       -3.2772  -22.2425  -57.8680 H         1 UNK         0.0600 
    230 H230       -5.9104  -23.1247  -54.4080 H         1 UNK         0.3000 
    231 H231       -7.9218  -22.4025  -53.9781 H         1 UNK         0.0600 
    232 H232       -8.6485  -22.8231  -56.9176 H         1 UNK         0.0600 
    233 H233       -9.7599  -22.7375  -55.5610 H         1 UNK         0.0600 
    234 H234       -8.6409  -24.0834  -55.6835 H         1 UNK         0.0600 
    235 H235       -5.8663  -20.3997  -55.4717 H         1 UNK         0.3000 
    236 H236       -7.4976  -18.2659  -56.4161 H         1 UNK         0.0600 
    237 H237       -5.0805  -18.5233  -56.9837 H         1 UNK         0.0600 
    238 H238       -5.4172  -16.9383  -56.3030 H         1 UNK         0.0600 
    239 H239       -4.6464  -18.1670  -55.3108 H         1 UNK         0.0600 
    240 H240       -6.4235  -19.1279  -53.1422 H         1 UNK         0.3000 
    241 H241       -7.4530  -16.6497  -51.9544 H         1 UNK         0.0600 
    242 H242       -9.2046  -19.2471  -53.2527 H         1 UNK         0.3800 
    243 H243      -10.5410  -19.1717  -52.1347 H         1 UNK         0.3800 
    244 H244       -6.4224  -19.1681  -50.5736 H         1 UNK         0.0800 
    245 H245       -6.8464  -17.6713  -49.7817 H         1 UNK         0.0800 
    246 H246       -4.3270  -18.7333  -48.9668 H         1 UNK         0.0800 
    247 H247       -4.5463  -17.0372  -48.6006 H         1 UNK         0.0800 
@<TRIPOS>BOND
     1    1    2 1    
     2    1  127 1    
     3    1  128 1    
     4    1  129 1    
     5    2    3 2    
     6    2    4 am   BACKBONE|DICT|INTERRES
     7    4    5 1    
     8    4  130 1    
     9    5    6 1    
    10    5   65 1    
    11    5  131 1    
    12    6    7 1    
    13    6  132 1    
    14    6  133 1    
    15    7    8 1    
    16    8    9 1    
    17    8  134 1    
    18    8  135 1    
    19    9   10 ar   
    20    9   14 ar   
    21   10   11 ar   
    22   10  136 1    
    23   11   12 ar   
    24   11  126 1    
    25   12   13 ar   
    26   12  137 1    
    27   13   14 ar   
    28   13   15 1    
    29   14  138 1    
    30   15   16 1    
    31   15  139 1    
    32   15  140 1    
    33   16   17 1    
    34   17   18 1    
    35   17  141 1    
    36   17  142 1    
    37   18   19 1    
    38   18   67 1    
    39   18  143 1    
    40   19   20 am   BACKBONE|DICT|INTERRES
    41   19  144 1    
    42   20   21 2    
    43   20   22 1    
    44   22   23 1    
    45   22   24 1    
    46   22  145 1    
    47   23  146 1    
    48   23  147 1    
    49   23  148 1    
    50   24   25 am   BACKBONE|DICT|INTERRES
    51   24  149 1    
    52   25   26 2    
    53   25   27 1    
    54   27   28 1    
    55   27   29 1    
    56   27  150 1    
    57   28  151 1    
    58   28  152 1    
    59   28  153 1    
    60   29   30 am   BACKBONE|DICT|INTERRES
    61   29  154 1    
    62   30   31 2    
    63   30   32 1    
    64   32   33 1    
    65   32   34 1    
    66   32  155 1    
    67   33  156 1    
    68   33  157 1    
    69   33  158 1    
    70   34   35 am   BACKBONE|DICT|INTERRES
    71   34  159 1    
    72   35   36 2    
    73   35   37 1    
    74   37   38 1    
    75   37   39 1    
    76   37  160 1    
    77   38  161 1    
    78   38  162 1    
    79   38  163 1    
    80   39   40 am   BACKBONE|DICT|INTERRES
    81   39  164 1    
    82   40   41 2    
    83   40   42 1    
    84   42   43 1    
    85   42   44 1    
    86   42  165 1    
    87   43  166 1    
    88   43  167 1    
    89   43  168 1    
    90   44   45 am   BACKBONE|DICT|INTERRES
    91   44  169 1    
    92   45   46 2    
    93   45   47 1    
    94   47   48 1    
    95   47   49 1    
    96   47  170 1    
    97   48  171 1    
    98   48  172 1    
    99   48  173 1    
   100   49   50 am   BACKBONE|DICT|INTERRES
   101   49  174 1    
   102   50   51 2    
   103   50   52 1    
   104   52   53 1    
   105   52   54 1    
   106   52  175 1    
   107   53  176 1    
   108   53  177 1    
   109   53  178 1    
   110   54   55 am   BACKBONE|DICT|INTERRES
   111   54  179 1    
   112   55   56 2    
   113   55   57 1    
   114   57   58 1    
   115   57   59 1    
   116   57  180 1    
   117   58  181 1    
   118   58  182 1    
   119   58  183 1    
   120   59   60 am   BACKBONE|DICT|INTERRES
   121   59  184 1    
   122   60   61 2    
   123   60   62 1    
   124   62   63 1    
   125   62   64 1    
   126   62  185 1    
   127   63  186 1    
   128   63  187 1    
   129   63  188 1    
   130   64   65 am   BACKBONE|DICT|INTERRES
   131   64  189 1    
   132   65   66 2    
   133   67   68 2    
   134   67   69 am   BACKBONE|DICT|INTERRES
   135   69   70 1    
   136   69  190 1    
   137   70   71 1    
   138   70   72 1    
   139   70  191 1    
   140   71  192 1    
   141   71  193 1    
   142   71  194 1    
   143   72   73 2    
   144   72   74 am   BACKBONE|DICT|INTERRES
   145   74   75 1    
   146   74  195 1    
   147   75   76 1    
   148   75   77 1    
   149   75  196 1    
   150   76  197 1    
   151   76  198 1    
   152   76  199 1    
   153   77   78 2    
   154   77   79 am   BACKBONE|DICT|INTERRES
   155   79   80 1    
   156   79  200 1    
   157   80   81 1    
   158   80   82 1    
   159   80  201 1    
   160   81  202 1    
   161   81  203 1    
   162   81  204 1    
   163   82   83 2    
   164   82   84 am   BACKBONE|DICT|INTERRES
   165   84   85 1    
   166   84  205 1    
   167   85   86 1    
   168   85   87 1    
   169   85  206 1    
   170   86  207 1    
   171   86  208 1    
   172   86  209 1    
   173   87   88 2    
   174   87   89 am   BACKBONE|DICT|INTERRES
   175   89   90 1    
   176   89  210 1    
   177   90   91 1    
   178   90   92 1    
   179   90  211 1    
   180   91  212 1    
   181   91  213 1    
   182   91  214 1    
   183   92   93 2    
   184   92   94 am   BACKBONE|DICT|INTERRES
   185   94   95 1    
   186   94  215 1    
   187   95   96 1    
   188   95   97 1    
   189   95  216 1    
   190   96  217 1    
   191   96  218 1    
   192   96  219 1    
   193   97   98 2    
   194   97   99 am   BACKBONE|DICT|INTERRES
   195   99  100 1    
   196   99  220 1    
   197  100  101 1    
   198  100  102 1    
   199  100  221 1    
   200  101  222 1    
   201  101  223 1    
   202  101  224 1    
   203  102  103 2    
   204  102  104 am   BACKBONE|DICT|INTERRES
   205  104  105 1    
   206  104  225 1    
   207  105  106 1    
   208  105  107 1    
   209  105  226 1    
   210  106  227 1    
   211  106  228 1    
   212  106  229 1    
   213  107  108 2    
   214  107  109 am   BACKBONE|DICT|INTERRES
   215  109  110 1    
   216  109  230 1    
   217  110  111 1    
   218  110  112 1    
   219  110  231 1    
   220  111  232 1    
   221  111  233 1    
   222  111  234 1    
   223  112  113 2    
   224  112  114 am   BACKBONE|DICT|INTERRES
   225  114  115 1    
   226  114  235 1    
   227  115  116 1    
   228  115  117 1    
   229  115  236 1    
   230  116  237 1    
   231  116  238 1    
   232  116  239 1    
   233  117  118 2    
   234  117  119 am   BACKBONE|DICT|INTERRES
   235  119  120 1    
   236  119  240 1    
   237  120  121 1    
   238  120  124 1    
   239  120  241 1    
   240  121  122 am   BACKBONE|DICT|INTERRES
   241  121  123 2    
   242  122  242 1    
   243  122  243 1    
   244  124  125 1    
   245  124  244 1    
   246  124  245 1    
   247  125  126 1    
   248  126  246 1    
   249  126  247 1    
@<TRIPOS>SUBSTRUCTURE
     1 UNK         1 GROUP             0       ****    0 ROOT    
