@<TRIPOS>MOLECULE
3R540
247   249    1
SMALL
USER_CHARGES


@<TRIPOS>ATOM
      1 CA          0.1314   -9.4278  -48.5586 C.3       0 UNK        -0.1800 
      2 C           0.9870  -10.2819  -47.6352 C.2       0 UNK         0.5000 
      3 O           1.3621   -9.8283  -46.5554 O.2       0 UNK        -0.5000 
      4 N           1.2819  -11.5240  -48.0408 N.am      1 UNK        -0.5000 
      5 CA          2.1060  -12.4836  -47.2922 C.3       1 UNK         0.1400 
      6 C6          2.4181  -13.7366  -48.1490 C.3       23 UNK        -0.0398 
      7 S7          3.9705  -14.5570  -47.6603 S.3       23 UNK        -0.2404 
      8 C8          4.3786  -15.5036  -49.1579 C.3       23 UNK        -0.0205 
      9 C9          3.4409  -16.6842  -49.3583 C.ar      23 UNK        -0.0193 
     10 C10         2.3354  -16.5713  -50.2065 C.ar      23 UNK        -0.1150 
     11 C11         1.4869  -17.6622  -50.4145 C.ar      23 UNK        -0.0193 
     12 C12         1.7588  -18.8758  -49.7779 C.ar      23 UNK        -0.1150 
     13 C13         2.8497  -18.9963  -48.9109 C.ar      23 UNK        -0.0193 
     14 C14         3.6882  -17.8965  -48.7067 C.ar      23 UNK        -0.1150 
     15 C15         3.1328  -20.3174  -48.2079 C.3       23 UNK        -0.0205 
     16 S16         2.5093  -20.3456  -46.4947 S.3       23 UNK        -0.2404 
     17 C17         0.7070  -20.3717  -46.7624 C.3       23 UNK        -0.0398 
     18 CA          0.1233  -21.8020  -46.7948 C.3       11 UNK         0.1400 
     19 N           0.2978  -22.5268  -45.5333 N.am      11 UNK        -0.5000 
     20 C           0.1203  -23.8472  -45.3842 C.2       10 UNK         0.5000 
     21 O          -0.1700  -24.6049  -46.3090 O.2       10 UNK        -0.5000 
     22 CA          0.2402  -24.4086  -43.9543 C.3       10 UNK         0.1400 
     23 CB          1.7074  -24.7097  -43.6152 C.3       10 UNK        -0.1800 
     24 N          -0.3141  -23.5068  -42.9432 N.am      10 UNK        -0.5000 
     25 C          -1.6064  -23.1596  -42.8588 C.2       9 UNK         0.5000 
     26 O          -2.4845  -23.6255  -43.5839 O.2       9 UNK        -0.5000 
     27 CA         -1.9705  -22.0656  -41.8343 C.3       9 UNK         0.1400 
     28 CB         -2.3795  -22.6988  -40.4965 C.3       9 UNK        -0.1800 
     29 N          -0.9022  -21.0861  -41.5997 N.am      9 UNK        -0.5000 
     30 C          -0.3409  -20.3169  -42.5430 C.2       8 UNK         0.5000 
     31 O          -0.6722  -20.3578  -43.7305 O.2       8 UNK        -0.5000 
     32 CA          0.7942  -19.3828  -42.0895 C.3       8 UNK         0.1400 
     33 CB          1.9001  -20.1487  -41.3387 C.3       8 UNK        -0.1800 
     34 N           1.3946  -18.7230  -43.2481 N.am      8 UNK        -0.5000 
     35 C           1.7251  -17.4311  -43.3181 C.2       7 UNK         0.5000 
     36 O           1.5182  -16.6175  -42.4132 O.2       7 UNK        -0.5000 
     37 CA          2.3847  -16.9715  -44.6314 C.3       7 UNK         0.1400 
     38 CB          1.3231  -16.6231  -45.6857 C.3       7 UNK        -0.1800 
     39 N           3.2348  -15.8080  -44.3891 N.am      7 UNK        -0.5000 
     40 C           4.4807  -15.8736  -43.8992 C.2       6 UNK         0.5000 
     41 O           5.1104  -16.9238  -43.7656 O.2       6 UNK        -0.5000 
     42 CA          5.1119  -14.5505  -43.4301 C.3       6 UNK         0.1400 
     43 CB          5.8157  -13.8129  -44.5782 C.3       6 UNK        -0.1800 
     44 N           4.1049  -13.6710  -42.8452 N.am      6 UNK        -0.5000 
     45 C           3.6959  -13.7151  -41.5712 C.2       5 UNK         0.5000 
     46 O           4.2044  -14.4437  -40.7170 O.2       5 UNK        -0.5000 
     47 CA          2.5149  -12.7926  -41.2011 C.3       5 UNK         0.1400 
     48 CB          2.4814  -12.4196  -39.7046 C.3       5 UNK        -0.1800 
     49 N           2.4327  -11.5959  -42.0458 N.am      5 UNK        -0.5000 
     50 C           3.3186  -10.5925  -42.1482 C.2       4 UNK         0.5000 
     51 O           4.3474  -10.5110  -41.4765 O.2       4 UNK        -0.5000 
     52 CA          3.0210   -9.5028  -43.2003 C.3       4 UNK         0.1400 
     53 CB          3.9774   -9.6477  -44.3952 C.3       4 UNK        -0.1800 
     54 N           1.6459   -9.5399  -43.7012 N.am      4 UNK        -0.5000 
     55 C           0.5578   -9.1695  -43.0127 C.2       3 UNK         0.5000 
     56 O           0.5947   -8.6512  -41.8966 O.2       3 UNK        -0.5000 
     57 CA         -0.8000   -9.4893  -43.6645 C.3       3 UNK         0.1400 
     58 CB         -1.2249   -8.3737  -44.6318 C.3       3 UNK        -0.1800 
     59 N          -0.7800  -10.7745  -44.3703 N.am      3 UNK        -0.5000 
     60 C          -0.7328  -11.9709  -43.7655 C.2       2 UNK         0.5000 
     61 O          -0.7372  -12.1160  -42.5439 O.2       2 UNK        -0.5000 
     62 CA         -0.6250  -13.2128  -44.6682 C.3       2 UNK         0.1400 
     63 CB         -2.0188  -13.7296  -45.0523 C.3       2 UNK        -0.1800 
     64 N           0.1473  -12.9579  -45.8848 N.am      2 UNK        -0.5000 
     65 C           1.4839  -12.8619  -45.9277 C.2       1 UNK         0.5000 
     66 O           2.2082  -13.0263  -44.9437 O.2       1 UNK        -0.5000 
     67 C          -1.3595  -21.7498  -47.1966 C.2       11 UNK         0.5000 
     68 O          -1.6719  -21.9490  -48.3694 O.2       11 UNK        -0.5000 
     69 N          -2.2440  -21.5140  -46.2162 N.am      12 UNK        -0.5000 
     70 CA         -3.6955  -21.5198  -46.4025 C.3       12 UNK         0.1400 
     71 CB         -4.3887  -21.0346  -45.1208 C.3       12 UNK        -0.1800 
     72 C          -4.2194  -22.9018  -46.8331 C.2       12 UNK         0.5000 
     73 O          -5.0134  -22.9826  -47.7698 O.2       12 UNK        -0.5000 
     74 N          -3.7207  -23.9625  -46.1820 N.am      13 UNK        -0.5000 
     75 CA         -3.9983  -25.3569  -46.5250 C.3       13 UNK         0.1400 
     76 CB         -3.3905  -26.2817  -45.4599 C.3       13 UNK        -0.1800 
     77 C          -3.4963  -25.7333  -47.9305 C.2       13 UNK         0.5000 
     78 O          -4.2390  -26.3582  -48.6877 O.2       13 UNK        -0.5000 
     79 N          -2.2675  -25.3156  -48.2701 N.am      14 UNK        -0.5000 
     80 CA         -1.6678  -25.5047  -49.5920 C.3       14 UNK         0.1400 
     81 CB         -0.1983  -25.0584  -49.5723 C.3       14 UNK        -0.1800 
     82 C          -2.4458  -24.7804  -50.7041 C.2       14 UNK         0.5000 
     83 O          -2.7043  -25.3811  -51.7459 O.2       14 UNK        -0.5000 
     84 N          -2.8439  -23.5260  -50.4488 N.am      15 UNK        -0.5000 
     85 CA         -3.6771  -22.7220  -51.3419 C.3       15 UNK         0.1400 
     86 CB         -3.8010  -21.2917  -50.7947 C.3       15 UNK        -0.1800 
     87 C          -5.0643  -23.3454  -51.5686 C.2       15 UNK         0.5000 
     88 O          -5.4990  -23.4487  -52.7168 O.2       15 UNK        -0.5000 
     89 N          -5.7152  -23.7846  -50.4810 N.am      16 UNK        -0.5000 
     90 CA         -7.0044  -24.4806  -50.4929 C.3       16 UNK         0.1400 
     91 CB         -7.4846  -24.7109  -49.0525 C.3       16 UNK        -0.1800 
     92 C          -6.9712  -25.8038  -51.2768 C.2       16 UNK         0.5000 
     93 O          -7.9043  -26.0823  -52.0304 O.2       16 UNK        -0.5000 
     94 N          -5.8884  -26.5749  -51.1101 N.am      17 UNK        -0.5000 
     95 CA         -5.6330  -27.8089  -51.8518 C.3       17 UNK         0.1400 
     96 CB         -4.4640  -28.5636  -51.2004 C.3       17 UNK        -0.1800 
     97 C          -5.3567  -27.5622  -53.3472 C.2       17 UNK         0.5000 
     98 O          -5.7815  -28.3668  -54.1774 O.2       17 UNK        -0.5000 
     99 N          -4.6516  -26.4663  -53.6612 N.am      18 UNK        -0.5000 
    100 CA        -4.2963  -26.0635  -55.0190 C.3       18 UNK         0.1400 
    101 CB        -3.1966  -24.9881  -54.9785 C.3       18 UNK        -0.1800 
    102 C         -5.5113  -25.5943  -55.8378 C.2       18 UNK         0.5000 
    103 O         -5.8368  -26.2260  -56.8447 O.2       18 UNK        -0.5000 
    104 N         -6.1418  -24.4892  -55.4158 N.am      19 UNK        -0.5000 
    105 CA        -7.1921  -23.8122  -56.1891 C.3       19 UNK         0.1400 
    106 CB        -6.5531  -23.0839  -57.3933 C.3       19 UNK        -0.1800 
    107 C         -8.0502  -22.8296  -55.3679 C.2       19 UNK         0.5000 
    108 O         -8.8762  -22.1330  -55.9594 O.2       19 UNK        -0.5000 
    109 N         -7.8252  -22.7439  -54.0482 N.am      20 UNK        -0.5000 
    110 CA        -8.2883  -21.6780  -53.1476 C.3       20 UNK         0.1400 
    111 CB        -9.8268  -21.6345  -53.0385 C.3       20 UNK        -0.1800 
    112 C         -7.6452  -20.3186  -53.4970 C.2       20 UNK         0.5000 
    113 O         -8.2829  -19.2713  -53.3765 O.2       20 UNK        -0.5000 
    114 N         -6.3795  -20.3747  -53.9257 N.am      21 UNK        -0.5000 
    115 CA        -5.5419  -19.2590  -54.3416 C.3       21 UNK         0.1400 
    116 CB        -5.9200  -18.8225  -55.7687 C.3       21 UNK        -0.1800 
    117 C         -4.0781  -19.7175  -54.2743 C.2       21 UNK         0.5000 
    118 O         -3.8159  -20.9234  -54.2875 O.2       21 UNK        -0.5000 
    119 N         -3.1573  -18.7513  -54.1947 N.am      22 UNK        -0.5000 
    120 CA        -1.7041  -18.9763  -54.1653 C.3       22 UNK         0.1400 
    121 C         -1.1676  -19.6203  -55.4771 C.2       22 UNK         0.5000 
    122 N         -0.2654  -20.5875  -55.3829 N.am      22 UNK        -0.7600 
    123 O         -1.5383  -19.2219  -56.5794 O.2       22 UNK        -0.5000 
    124 C124       -0.9557  -17.6581  -53.8346 C.3       23 UNK        -0.0398 
    125 S125        0.6621  -17.9436  -53.0379 S.3       23 UNK        -0.2404 
    126 C126        0.2685  -17.5258  -51.3128 C.3       23 UNK        -0.0205 
    127 H127       -0.7900   -9.1378  -48.0536 H         1 UNK         0.0600 
    128 H128       -0.1330   -9.9583  -49.4734 H         1 UNK         0.0600 
    129 H129        0.6700   -8.5210  -48.8338 H         1 UNK         0.0600 
    130 H130        0.9401  -11.8389  -48.9377 H         1 UNK         0.3000 
    131 H131        3.0474  -11.9717  -47.0796 H         1 UNK         0.0600 
    132 H132        1.5979  -14.4563  -48.1277 H         1 UNK         0.0800 
    133 H133        2.5307  -13.4453  -49.1942 H         1 UNK         0.0800 
    134 H134        4.3634  -14.8459  -50.0283 H         1 UNK         0.0800 
    135 H135        5.4041  -15.8658  -49.0725 H         1 UNK         0.0800 
    136 H136        2.1357  -15.6348  -50.7079 H         1 UNK         0.1150 
    137 H137        1.1112  -19.7240  -49.9505 H         1 UNK         0.1150 
    138 H138        4.5356  -17.9846  -48.0412 H         1 UNK         0.1150 
    139 H139        2.7009  -21.1496  -48.7659 H         1 UNK         0.0800 
    140 H140        4.2094  -20.4931  -48.1904 H         1 UNK         0.0800 
    141 H141        0.4690  -19.8416  -47.6825 H         1 UNK         0.0800 
    142 H142        0.2400  -19.7831  -45.9753 H         1 UNK         0.0800 
    143 H143        0.6485  -22.3591  -47.5736 H         1 UNK         0.0600 
    144 H144        0.4590  -21.9592  -44.7133 H         1 UNK         0.3000 
    145 H145       -0.3204  -25.3450  -43.9160 H         1 UNK         0.0600 
    146 H146        1.7977  -25.1776  -42.6347 H         1 UNK         0.0600 
    147 H147        2.1426  -25.3960  -44.3429 H         1 UNK         0.0600 
    148 H148        2.3156  -23.8042  -43.6134 H         1 UNK         0.0600 
    149 H149        0.3392  -23.0822  -42.3021 H         1 UNK         0.3000 
    150 H150       -2.8303  -21.5225  -42.2311 H         1 UNK         0.0600 
    151 H151       -1.5478  -23.2290  -40.0308 H         1 UNK         0.0600 
    152 H152       -3.1898  -23.4161  -40.6354 H         1 UNK         0.0600 
    153 H153       -2.7335  -21.9441  -39.7940 H         1 UNK         0.0600 
    154 H154       -0.5813  -20.9987  -40.6462 H         1 UNK         0.3000 
    155 H155        0.3500  -18.6446  -41.4189 H         1 UNK         0.0600 
    156 H156        2.3210  -20.9485  -41.9495 H         1 UNK         0.0600 
    157 H157        1.5272  -20.5960  -40.4169 H         1 UNK         0.0600 
    158 H158        2.7160  -19.4818  -41.0588 H         1 UNK         0.0600 
    159 H159        1.5213  -19.3108  -44.0601 H         1 UNK         0.3000 
    160 H160        2.9995  -17.7857  -45.0198 H         1 UNK         0.0600 
    161 H161        0.7088  -15.7790  -45.3786 H         1 UNK         0.0600 
    162 H162        0.6521  -17.4627  -45.8629 H         1 UNK         0.0600 
    163 H163        1.7857  -16.3797  -46.6410 H         1 UNK         0.0600 
    164 H164        2.7900  -14.8996  -44.4490 H         1 UNK         0.3000 
    165 H165        5.8659  -14.7932  -42.6782 H         1 UNK         0.0600 
    166 H166        6.4817  -14.4788  -45.1283 H         1 UNK         0.0600 
    167 H167        5.1005  -13.3961  -45.2863 H         1 UNK         0.0600 
    168 H168        6.4185  -12.9880  -44.1982 H         1 UNK         0.0600 
    169 H169        3.5804  -13.0939  -43.4942 H         1 UNK         0.3000 
    170 H170        1.6136  -13.3695  -41.4135 H         1 UNK         0.0600 
    171 H171        2.3793  -13.3096  -39.0827 H         1 UNK         0.0600 
    172 H172        3.3915  -11.9070  -39.3927 H         1 UNK         0.0600 
    173 H173        1.6353  -11.7700  -39.4802 H         1 UNK         0.0600 
    174 H174        1.6249  -11.5560  -42.6511 H         1 UNK         0.3000 
    175 H175        3.1944   -8.5321  -42.7318 H         1 UNK         0.0600 
    176 H176        5.0184   -9.5858  -44.0758 H         1 UNK         0.0600 
    177 H177        3.8451  -10.6052  -44.9007 H         1 UNK         0.0600 
    178 H178        3.8148   -8.8577  -45.1287 H         1 UNK         0.0600 
    179 H179        1.5227   -9.8735  -44.6539 H         1 UNK         0.3000 
    180 H180       -1.5461   -9.5481  -42.8690 H         1 UNK         0.0600 
    181 H181       -0.5142   -8.2506  -45.4492 H         1 UNK         0.0600 
    182 H182       -1.2939   -7.4166  -44.1133 H         1 UNK         0.0600 
    183 H183       -2.2036   -8.5789  -45.0657 H         1 UNK         0.0600 
    184 H184       -0.7273  -10.7368  -45.3770 H         1 UNK         0.3000 
    185 H185       -0.1232  -13.9914  -44.0896 H         1 UNK         0.0600 
    186 H186       -2.6125  -13.9479  -44.1636 H         1 UNK         0.0600 
    187 H187       -2.5713  -13.0000  -45.6457 H         1 UNK         0.0600 
    188 H188       -1.9506  -14.6515  -45.6304 H         1 UNK         0.0600 
    189 H189       -0.3759  -12.8042  -46.7345 H         1 UNK         0.3000 
    190 H190       -1.8969  -21.3384  -45.2810 H         1 UNK         0.3000 
    191 H191       -3.9295  -20.8124  -47.2008 H         1 UNK         0.0600 
    192 H192       -4.0297  -20.0483  -44.8262 H         1 UNK         0.0600 
    193 H193       -5.4665  -20.9585  -45.2691 H         1 UNK         0.0600 
    194 H194       -4.2228  -21.7150  -44.2862 H         1 UNK         0.0600 
    195 H195       -3.1127  -23.8037  -45.3831 H         1 UNK         0.3000 
    196 H196       -5.0817  -25.4918  -46.5126 H         1 UNK         0.0600 
    197 H197       -3.6026  -27.3278  -45.6838 H         1 UNK         0.0600 
    198 H198       -3.8027  -26.0695  -44.4732 H         1 UNK         0.0600 
    199 H199       -2.3076  -26.1707  -45.3996 H         1 UNK         0.0600 
    200 H200       -1.6943  -24.8490  -47.5744 H         1 UNK         0.3000 
    201 H201       -1.6920  -26.5733  -49.8154 H         1 UNK         0.0600 
    202 H202        0.2674  -25.2057  -50.5475 H         1 UNK         0.0600 
    203 H203        0.3780  -25.6331  -48.8473 H         1 UNK         0.0600 
    204 H204       -0.0997  -24.0033  -49.3176 H         1 UNK         0.0600 
    205 H205       -2.5482  -23.0825  -49.5825 H         1 UNK         0.3000 
    206 H206       -3.1744  -22.6737  -52.3096 H         1 UNK         0.0600 
    207 H207       -2.8291  -20.7990  -50.7631 H         1 UNK         0.0600 
    208 H208       -4.4533  -20.6850  -51.4230 H         1 UNK         0.0600 
    209 H209       -4.2147  -21.2792  -49.7863 H         1 UNK         0.0600 
    210 H210       -5.2998  -23.6270  -49.5664 H         1 UNK         0.3000 
    211 H211       -7.7313  -23.8332  -50.9827 H         1 UNK         0.0600 
    212 H212       -6.7812  -25.3208  -48.4855 H         1 UNK         0.0600 
    213 H213       -8.4487  -25.2206  -49.0378 H         1 UNK         0.0600 
    214 H214       -7.6090  -23.7658  -48.5237 H         1 UNK         0.0600 
    215 H215       -5.1917  -26.3024  -50.4228 H         1 UNK         0.3000 
    216 H216       -6.5233  -28.4368  -51.7782 H         1 UNK         0.0600 
    217 H217       -4.2631  -29.4998  -51.7225 H         1 UNK         0.0600 
    218 H218       -4.6850  -28.8107  -50.1619 H         1 UNK         0.0600 
    219 H219       -3.5464  -27.9748  -51.2150 H         1 UNK         0.0600 
    220 H220       -4.2852  -25.8919  -52.9093 H         1 UNK         0.3000 
    221 H221       -3.8783  -26.9360  -55.5256 H         1 UNK         0.0600 
    222 H222       -3.5050  -24.1045  -54.4198 H         1 UNK         0.0600 
    223 H223       -2.2892  -25.3735  -54.5135 H         1 UNK         0.0600 
    224 H224       -2.9313  -24.6621  -55.9849 H         1 UNK         0.0600 
    225 H225       -5.8153  -24.0405  -54.5657 H         1 UNK         0.3000 
    226 H226       -7.8842  -24.5678  -56.5662 H         1 UNK         0.0600 
    227 H227       -7.3050  -22.5804  -58.0020 H         1 UNK         0.0600 
    228 H228       -5.8375  -22.3290  -57.0646 H         1 UNK         0.0600 
    229 H229       -6.0292  -23.7745  -58.0537 H         1 UNK         0.0600 
    230 H230       -7.1149  -23.3428  -53.6401 H         1 UNK         0.3000 
    231 H231       -7.9052  -21.9251  -52.1586 H         1 UNK         0.0600 
    232 H232      -10.2945  -21.2809  -53.9573 H         1 UNK         0.0600 
    233 H233      -10.1389  -20.9619  -52.2388 H         1 UNK         0.0600 
    234 H234      -10.2331  -22.6198  -52.8105 H         1 UNK         0.0600 
    235 H235       -5.9008  -21.2680  -53.9506 H         1 UNK         0.3000 
    236 H236       -5.6813  -18.4274  -53.6478 H         1 UNK         0.0600 
    237 H237       -6.9534  -18.4793  -55.8189 H         1 UNK         0.0600 
    238 H238       -5.2894  -18.0003  -56.1090 H         1 UNK         0.0600 
    239 H239       -5.8056  -19.6414  -56.4801 H         1 UNK         0.0600 
    240 H240       -3.4573  -17.7882  -54.2265 H         1 UNK         0.3000 
    241 H241       -1.5305  -19.6802  -53.3482 H         1 UNK         0.0600 
    242 H242        0.0981  -21.0027  -56.2264 H         1 UNK         0.3800 
    243 H243        0.0693  -20.9097  -54.4884 H         1 UNK         0.3800 
    244 H244       -0.8082  -17.0513  -54.7300 H         1 UNK         0.0800 
    245 H245       -1.5566  -17.0408  -53.1654 H         1 UNK         0.0800 
    246 H246       -0.1138  -16.5049  -51.2625 H         1 UNK         0.0800 
    247 H247       -0.5336  -18.1743  -50.9563 H         1 UNK         0.0800 
@<TRIPOS>BOND
     1    1    2 1    
     2    1  127 1    
     3    1  128 1    
     4    1  129 1    
     5    2    3 2    
     6    2    4 am   BACKBONE|DICT|INTERRES
     7    4    5 1    
     8    4  130 1    
     9    5    6 1    
    10    5   65 1    
    11    5  131 1    
    12    6    7 1    
    13    6  132 1    
    14    6  133 1    
    15    7    8 1    
    16    8    9 1    
    17    8  134 1    
    18    8  135 1    
    19    9   10 ar   
    20    9   14 ar   
    21   10   11 ar   
    22   10  136 1    
    23   11   12 ar   
    24   11  126 1    
    25   12   13 ar   
    26   12  137 1    
    27   13   14 ar   
    28   13   15 1    
    29   14  138 1    
    30   15   16 1    
    31   15  139 1    
    32   15  140 1    
    33   16   17 1    
    34   17   18 1    
    35   17  141 1    
    36   17  142 1    
    37   18   19 1    
    38   18   67 1    
    39   18  143 1    
    40   19   20 am   BACKBONE|DICT|INTERRES
    41   19  144 1    
    42   20   21 2    
    43   20   22 1    
    44   22   23 1    
    45   22   24 1    
    46   22  145 1    
    47   23  146 1    
    48   23  147 1    
    49   23  148 1    
    50   24   25 am   BACKBONE|DICT|INTERRES
    51   24  149 1    
    52   25   26 2    
    53   25   27 1    
    54   27   28 1    
    55   27   29 1    
    56   27  150 1    
    57   28  151 1    
    58   28  152 1    
    59   28  153 1    
    60   29   30 am   BACKBONE|DICT|INTERRES
    61   29  154 1    
    62   30   31 2    
    63   30   32 1    
    64   32   33 1    
    65   32   34 1    
    66   32  155 1    
    67   33  156 1    
    68   33  157 1    
    69   33  158 1    
    70   34   35 am   BACKBONE|DICT|INTERRES
    71   34  159 1    
    72   35   36 2    
    73   35   37 1    
    74   37   38 1    
    75   37   39 1    
    76   37  160 1    
    77   38  161 1    
    78   38  162 1    
    79   38  163 1    
    80   39   40 am   BACKBONE|DICT|INTERRES
    81   39  164 1    
    82   40   41 2    
    83   40   42 1    
    84   42   43 1    
    85   42   44 1    
    86   42  165 1    
    87   43  166 1    
    88   43  167 1    
    89   43  168 1    
    90   44   45 am   BACKBONE|DICT|INTERRES
    91   44  169 1    
    92   45   46 2    
    93   45   47 1    
    94   47   48 1    
    95   47   49 1    
    96   47  170 1    
    97   48  171 1    
    98   48  172 1    
    99   48  173 1    
   100   49   50 am   BACKBONE|DICT|INTERRES
   101   49  174 1    
   102   50   51 2    
   103   50   52 1    
   104   52   53 1    
   105   52   54 1    
   106   52  175 1    
   107   53  176 1    
   108   53  177 1    
   109   53  178 1    
   110   54   55 am   BACKBONE|DICT|INTERRES
   111   54  179 1    
   112   55   56 2    
   113   55   57 1    
   114   57   58 1    
   115   57   59 1    
   116   57  180 1    
   117   58  181 1    
   118   58  182 1    
   119   58  183 1    
   120   59   60 am   BACKBONE|DICT|INTERRES
   121   59  184 1    
   122   60   61 2    
   123   60   62 1    
   124   62   63 1    
   125   62   64 1    
   126   62  185 1    
   127   63  186 1    
   128   63  187 1    
   129   63  188 1    
   130   64   65 am   BACKBONE|DICT|INTERRES
   131   64  189 1    
   132   65   66 2    
   133   67   68 2    
   134   67   69 am   BACKBONE|DICT|INTERRES
   135   69   70 1    
   136   69  190 1    
   137   70   71 1    
   138   70   72 1    
   139   70  191 1    
   140   71  192 1    
   141   71  193 1    
   142   71  194 1    
   143   72   73 2    
   144   72   74 am   BACKBONE|DICT|INTERRES
   145   74   75 1    
   146   74  195 1    
   147   75   76 1    
   148   75   77 1    
   149   75  196 1    
   150   76  197 1    
   151   76  198 1    
   152   76  199 1    
   153   77   78 2    
   154   77   79 am   BACKBONE|DICT|INTERRES
   155   79   80 1    
   156   79  200 1    
   157   80   81 1    
   158   80   82 1    
   159   80  201 1    
   160   81  202 1    
   161   81  203 1    
   162   81  204 1    
   163   82   83 2    
   164   82   84 am   BACKBONE|DICT|INTERRES
   165   84   85 1    
   166   84  205 1    
   167   85   86 1    
   168   85   87 1    
   169   85  206 1    
   170   86  207 1    
   171   86  208 1    
   172   86  209 1    
   173   87   88 2    
   174   87   89 am   BACKBONE|DICT|INTERRES
   175   89   90 1    
   176   89  210 1    
   177   90   91 1    
   178   90   92 1    
   179   90  211 1    
   180   91  212 1    
   181   91  213 1    
   182   91  214 1    
   183   92   93 2    
   184   92   94 am   BACKBONE|DICT|INTERRES
   185   94   95 1    
   186   94  215 1    
   187   95   96 1    
   188   95   97 1    
   189   95  216 1    
   190   96  217 1    
   191   96  218 1    
   192   96  219 1    
   193   97   98 2    
   194   97   99 am   BACKBONE|DICT|INTERRES
   195   99  100 1    
   196   99  220 1    
   197  100  101 1    
   198  100  102 1    
   199  100  221 1    
   200  101  222 1    
   201  101  223 1    
   202  101  224 1    
   203  102  103 2    
   204  102  104 am   BACKBONE|DICT|INTERRES
   205  104  105 1    
   206  104  225 1    
   207  105  106 1    
   208  105  107 1    
   209  105  226 1    
   210  106  227 1    
   211  106  228 1    
   212  106  229 1    
   213  107  108 2    
   214  107  109 am   BACKBONE|DICT|INTERRES
   215  109  110 1    
   216  109  230 1    
   217  110  111 1    
   218  110  112 1    
   219  110  231 1    
   220  111  232 1    
   221  111  233 1    
   222  111  234 1    
   223  112  113 2    
   224  112  114 am   BACKBONE|DICT|INTERRES
   225  114  115 1    
   226  114  235 1    
   227  115  116 1    
   228  115  117 1    
   229  115  236 1    
   230  116  237 1    
   231  116  238 1    
   232  116  239 1    
   233  117  118 2    
   234  117  119 am   BACKBONE|DICT|INTERRES
   235  119  120 1    
   236  119  240 1    
   237  120  121 1    
   238  120  124 1    
   239  120  241 1    
   240  121  122 am   BACKBONE|DICT|INTERRES
   241  121  123 2    
   242  122  242 1    
   243  122  243 1    
   244  124  125 1    
   245  124  244 1    
   246  124  245 1    
   247  125  126 1    
   248  126  246 1    
   249  126  247 1    
@<TRIPOS>SUBSTRUCTURE
     1 UNK         1 GROUP             0       ****    0 ROOT    
