@<TRIPOS>MOLECULE
3R540
247   249    1
SMALL
USER_CHARGES


@<TRIPOS>ATOM
      1 CA          4.8514  -16.0540  -43.3378 C.3       0 UNK        -0.1800 
      2 C           3.7185  -16.0076  -44.3526 C.2       0 UNK         0.5000 
      3 O           2.5779  -16.3346  -44.0184 O.2       0 UNK        -0.5000 
      4 N           4.0176  -15.5755  -45.5831 N.am      1 UNK        -0.5000 
      5 CA          3.0616  -15.3467  -46.6747 C.3       1 UNK         0.1400 
      6 C6          3.7328  -15.4814  -48.0657 C.3       23 UNK        -0.0398 
      7 S7          4.5046  -17.1175  -48.3247 S.3       23 UNK        -0.2404 
      8 C8          4.1359  -17.4405  -50.0786 C.3       23 UNK        -0.0205 
      9 C9          2.7968  -18.1389  -50.2558 C.ar      23 UNK        -0.0193 
     10 C10         1.6328  -17.4002  -50.4788 C.ar      23 UNK        -0.1150 
     11 C11         0.4061  -18.0467  -50.6480 C.ar      23 UNK        -0.0193 
     12 C12         0.3453  -19.4416  -50.5836 C.ar      23 UNK        -0.1150 
     13 C13         1.5018  -20.1963  -50.3629 C.ar      23 UNK        -0.0193 
     14 C14         2.7265  -19.5341  -50.2112 C.ar      23 UNK        -0.1150 
     15 C15         1.4010  -21.7208  -50.3148 C.3       23 UNK        -0.0205 
     16 S16         2.5592  -22.5326  -49.1590 S.3       23 UNK        -0.2404 
     17 C17         2.0619  -21.8070  -47.5614 C.3       23 UNK        -0.0398 
     18 CA          1.2096  -22.7688  -46.6996 C.3       11 UNK         0.1400 
     19 N           1.3363  -22.4493  -45.2765 N.am      11 UNK        -0.5000 
     20 C           0.8454  -23.1688  -44.2586 C.2       10 UNK         0.5000 
     21 O           0.1081  -24.1431  -44.4177 O.2       10 UNK        -0.5000 
     22 CA          1.2087  -22.7029  -42.8305 C.3       10 UNK         0.1400 
     23 CB          1.6003  -23.8852  -41.9221 C.3       10 UNK        -0.1800 
     24 N           2.2217  -21.6357  -42.7787 N.am      10 UNK        -0.5000 
     25 C           3.5069  -21.6921  -43.1715 C.2       9 UNK         0.5000 
     26 O           4.0423  -22.7054  -43.6206 O.2       9 UNK        -0.5000 
     27 CA          4.3233  -20.3848  -43.1082 C.3       9 UNK         0.1400 
     28 CB          4.4322  -19.7598  -44.5098 C.3       9 UNK        -0.1800 
     29 N           3.7603  -19.3948  -42.1888 N.am      9 UNK        -0.5000 
     30 C           3.8113  -19.4867  -40.8532 C.2       8 UNK         0.5000 
     31 O           4.4089  -20.3816  -40.2545 O.2       8 UNK        -0.5000 
     32 CA          3.0559  -18.4128  -40.0444 C.3       8 UNK         0.1400 
     33 CB          4.0359  -17.3533  -39.5173 C.3       8 UNK        -0.1800 
     34 N           1.9696  -17.7345  -40.7616 N.am      8 UNK        -0.5000 
     35 C           0.8819  -18.3186  -41.2848 C.2       7 UNK         0.5000 
     36 O           0.7233  -19.5383  -41.3490 O.2       7 UNK        -0.5000 
     37 CA         -0.1983  -17.3919  -41.8588 C.3       7 UNK         0.1400 
     38 CB         -0.2260  -15.9954  -41.2057 C.3       7 UNK        -0.1800 
     39 N           0.0383  -17.2397  -43.2879 N.am      7 UNK        -0.5000 
     40 C          -0.8335  -17.5404  -44.2526 C.2       6 UNK         0.5000 
     41 O          -1.9454  -18.0382  -44.0593 O.2       6 UNK        -0.5000 
     42 CA         -0.3796  -17.2235  -45.6817 C.3       6 UNK         0.1400 
     43 CB          0.4819  -18.3522  -46.2732 C.3       6 UNK        -0.1800 
     44 N          -1.5594  -17.0165  -46.5099 N.am      6 UNK        -0.5000 
     45 C          -1.6713  -16.0890  -47.4634 C.2       5 UNK         0.5000 
     46 O          -0.7454  -15.3507  -47.8053 O.2       5 UNK        -0.5000 
     47 CA         -3.0432  -15.9310  -48.1537 C.3       5 UNK         0.1400 
     48 CB         -4.0690  -17.0432  -47.8406 C.3       5 UNK        -0.1800 
     49 N          -3.5865  -14.6010  -47.8861 N.am      5 UNK        -0.5000 
     50 C          -3.9238  -14.0865  -46.6961 C.2       4 UNK         0.5000 
     51 O          -3.9830  -14.7342  -45.6493 O.2       4 UNK        -0.5000 
     52 CA         -4.1506  -12.5633  -46.6831 C.3       4 UNK         0.1400 
     53 CB         -4.8283  -12.0716  -45.3915 C.3       4 UNK        -0.1800 
     54 N          -2.8658  -11.8831  -46.8271 N.am      4 UNK        -0.5000 
     55 C          -2.1705  -11.7354  -47.9600 C.2       3 UNK         0.5000 
     56 O          -2.5994  -12.0715  -49.0653 O.2       3 UNK        -0.5000 
     57 CA         -0.7541  -11.1392  -47.8435 C.3       3 UNK         0.1400 
     58 CB         -0.8090   -9.6181  -47.6055 C.3       3 UNK        -0.1800 
     59 N           0.1203  -11.8008  -46.8629 N.am      3 UNK        -0.5000 
     60 C           0.0124  -11.8808  -45.5301 C.2       2 UNK         0.5000 
     61 O          -0.9376  -11.4132  -44.8984 O.2       2 UNK        -0.5000 
     62 CA          1.1685  -12.5730  -44.7678 C.3       2 UNK         0.1400 
     63 CB          0.8084  -12.8644  -43.2986 C.3       2 UNK        -0.1800 
     64 N           1.6745  -13.8175  -45.3558 N.am      2 UNK        -0.5000 
     65 C           2.3925  -13.9659  -46.4768 C.2       1 UNK         0.5000 
     66 O           2.5932  -13.0542  -47.2809 O.2       1 UNK        -0.5000 
     67 C          -0.2578  -22.8016  -47.1681 C.2       11 UNK         0.5000 
     68 O          -0.6219  -23.6566  -47.9710 O.2       11 UNK        -0.5000 
     69 N          -1.0836  -21.9025  -46.6186 N.am      12 UNK        -0.5000 
     70 CA         -2.5084  -21.8030  -46.9264 C.3       12 UNK         0.1400 
     71 CB         -3.0284  -20.4511  -46.4214 C.3       12 UNK        -0.1800 
     72 C          -3.3447  -22.9590  -46.3477 C.2       12 UNK         0.5000 
     73 O          -4.3961  -23.2768  -46.9020 O.2       12 UNK        -0.5000 
     74 N          -2.8667  -23.5692  -45.2542 N.am      13 UNK        -0.5000 
     75 CA         -3.4636  -24.7650  -44.6629 C.3       13 UNK         0.1400 
     76 CB         -3.0928  -24.8452  -43.1736 C.3       13 UNK        -0.1800 
     77 C          -3.0153  -26.0307  -45.4116 C.2       13 UNK         0.5000 
     78 O          -3.8263  -26.9338  -45.6174 O.2       13 UNK        -0.5000 
     79 N          -1.7374  -26.0653  -45.8153 N.am      14 UNK        -0.5000 
     80 CA         -1.1369  -27.1501  -46.5894 C.3       14 UNK         0.1400 
     81 CB          0.3895  -26.9764  -46.6004 C.3       14 UNK        -0.1800 
     82 C          -1.6856  -27.2368  -48.0264 C.2       14 UNK         0.5000 
     83 O          -1.9395  -28.3392  -48.5117 O.2       14 UNK        -0.5000 
     84 N          -1.8595  -26.0802  -48.6738 N.am      15 UNK        -0.5000 
     85 CA         -2.3277  -25.9373  -50.0446 C.3       15 UNK         0.1400 
     86 CB         -1.1337  -25.5812  -50.9488 C.3       15 UNK        -0.1800 
     87 C          -3.4295  -24.8697  -50.0881 C.2       15 UNK         0.5000 
     88 O          -3.1515  -23.6923  -50.3255 O.2       15 UNK        -0.5000 
     89 N          -4.6811  -25.3029  -49.8902 N.am      16 UNK        -0.5000 
     90 CA         -5.8740  -24.4547  -49.9987 C.3       16 UNK         0.1400 
     91 CB         -7.1040  -25.2473  -49.5340 C.3       16 UNK        -0.1800 
     92 C          -6.0921  -23.8925  -51.4197 C.2       16 UNK         0.5000 
     93 O          -6.6348  -22.7977  -51.5679 O.2       16 UNK        -0.5000 
     94 N          -5.6189  -24.6243  -52.4389 N.am      17 UNK        -0.5000 
     95 CA         -5.5834  -24.1805  -53.8327 C.3       17 UNK         0.1400 
     96 CB         -5.1826  -25.3594  -54.7315 C.3       17 UNK        -0.1800 
     97 C          -4.6340  -22.9868  -54.0489 C.2       17 UNK         0.5000 
     98 O          -4.9590  -22.0903  -54.8267 O.2       17 UNK        -0.5000 
     99 N          -3.5012  -22.9699  -53.3300 N.am      18 UNK        -0.5000 
    100 CA        -2.5529  -21.8564  -53.3350 C.3       18 UNK         0.1400 
    101 CB        -1.2063  -22.2978  -52.7461 C.3       18 UNK        -0.1800 
    102 C         -3.1143  -20.6381  -52.5851 C.2       18 UNK         0.5000 
    103 O         -2.9488  -19.5160  -53.0573 O.2       18 UNK        -0.5000 
    104 N         -3.8223  -20.8789  -51.4701 N.am      19 UNK        -0.5000 
    105 CA        -4.5512  -19.8518  -50.7185 C.3       19 UNK         0.1400 
    106 CB        -5.1982  -20.4706  -49.4704 C.3       19 UNK        -0.1800 
    107 C         -5.6165  -19.1403  -51.5733 C.2       19 UNK         0.5000 
    108 O         -5.7237  -17.9156  -51.5130 O.2       19 UNK        -0.5000 
    109 N         -6.3503  -19.9221  -52.3786 N.am      20 UNK        -0.5000 
    110 CA        -7.3150  -19.4315  -53.3604 C.3       20 UNK         0.1400 
    111 CB        -8.1444  -20.6067  -53.9000 C.3       20 UNK        -0.1800 
    112 C         -6.6444  -18.6521  -54.5072 C.2       20 UNK         0.5000 
    113 O         -7.1219  -17.5728  -54.8600 O.2       20 UNK        -0.5000 
    114 N         -5.5353  -19.1845  -55.0445 N.am      21 UNK        -0.5000 
    115 CA        -4.7439  -18.5680  -56.1162 C.3       21 UNK         0.1400 
    116 CB        -3.6390  -19.5330  -56.5706 C.3       21 UNK        -0.1800 
    117 C         -4.1458  -17.1985  -55.7379 C.2       21 UNK         0.5000 
    118 O         -4.0545  -16.3225  -56.5993 O.2       21 UNK        -0.5000 
    119 N         -3.7910  -17.0238  -54.4586 N.am      22 UNK        -0.5000 
    120 CA        -3.3956  -15.7357  -53.8651 C.3       22 UNK         0.1400 
    121 C         -4.5512  -14.6950  -53.7342 C.2       22 UNK         0.5000 
    122 N         -5.8128  -15.0397  -53.9666 N.am      22 UNK        -0.7600 
    123 O         -4.2933  -13.5351  -53.4245 O.2       22 UNK        -0.5000 
    124 C124       -2.6800  -15.9218  -52.5027 C.3       23 UNK        -0.0398 
    125 S125       -1.1057  -16.8340  -52.6308 S.3       23 UNK        -0.2404 
    126 C126       -0.8549  -17.2337  -50.8771 C.3       23 UNK        -0.0205 
    127 H127        4.6117  -15.4170  -42.4864 H         1 UNK         0.0600 
    128 H128        5.7921  -15.7068  -43.7660 H         1 UNK         0.0600 
    129 H129        5.0010  -17.0681  -42.9731 H         1 UNK         0.0600 
    130 H130        4.9721  -15.3192  -45.7915 H         1 UNK         0.3000 
    131 H131        2.2768  -16.1014  -46.6241 H         1 UNK         0.0600 
    132 H132        4.5053  -14.7220  -48.1986 H         1 UNK         0.0800 
    133 H133        2.9945  -15.3049  -48.8486 H         1 UNK         0.0800 
    134 H134        4.9289  -18.0670  -50.4896 H         1 UNK         0.0800 
    135 H135        4.1649  -16.5102  -50.6481 H         1 UNK         0.0800 
    136 H136        1.6778  -16.3216  -50.5265 H         1 UNK         0.1150 
    137 H137       -0.6061  -19.9388  -50.7113 H         1 UNK         0.1150 
    138 H138        3.6320  -20.1016  -50.0510 H         1 UNK         0.1150 
    139 H139        0.3876  -22.0223  -50.0472 H         1 UNK         0.0800 
    140 H140        1.5839  -22.1098  -51.3169 H         1 UNK         0.0800 
    141 H141        1.5631  -20.8474  -47.7053 H         1 UNK         0.0800 
    142 H142        2.9926  -21.5729  -47.0425 H         1 UNK         0.0800 
    143 H143        1.6082  -23.7787  -46.8170 H         1 UNK         0.0600 
    144 H144        1.9310  -21.6702  -45.0413 H         1 UNK         0.3000 
    145 H145        0.2970  -22.2650  -42.4214 H         1 UNK         0.0600 
    146 H146        1.8368  -23.5451  -40.9138 H         1 UNK         0.0600 
    147 H147        0.7821  -24.6019  -41.8381 H         1 UNK         0.0600 
    148 H148        2.4658  -24.4252  -42.3068 H         1 UNK         0.0600 
    149 H149        1.8816  -20.7611  -42.3885 H         1 UNK         0.3000 
    150 H150        5.3293  -20.6436  -42.7708 H         1 UNK         0.0600 
    151 H151        4.8086  -20.4822  -45.2355 H         1 UNK         0.0600 
    152 H152        5.1234  -18.9177  -44.5150 H         1 UNK         0.0600 
    153 H153        3.4676  -19.4038  -44.8717 H         1 UNK         0.0600 
    154 H154        3.2468  -18.6265  -42.5954 H         1 UNK         0.3000 
    155 H155        2.6092  -18.9191  -39.1862 H         1 UNK         0.0600 
    156 H156        4.4922  -16.7876  -40.3301 H         1 UNK         0.0600 
    157 H157        3.5358  -16.6466  -38.8546 H         1 UNK         0.0600 
    158 H158        4.8427  -17.8148  -38.9462 H         1 UNK         0.0600 
    159 H159        2.0189  -16.7262  -40.7837 H         1 UNK         0.3000 
    160 H160       -1.1599  -17.8731  -41.6688 H         1 UNK         0.0600 
    161 H161       -1.0784  -15.4193  -41.5659 H         1 UNK         0.0600 
    162 H162        0.6726  -15.4179  -41.4247 H         1 UNK         0.0600 
    163 H163       -0.3233  -16.0690  -40.1217 H         1 UNK         0.0600 
    164 H164        0.9629  -16.8963  -43.5471 H         1 UNK         0.3000 
    165 H165        0.2027  -16.3025  -45.6404 H         1 UNK         0.0600 
    166 H166        0.8000  -18.1160  -47.2893 H         1 UNK         0.0600 
    167 H167        1.3826  -18.5076  -45.6794 H         1 UNK         0.0600 
    168 H168       -0.0615  -19.2949  -46.3056 H         1 UNK         0.0600 
    169 H169       -2.3843  -17.5106  -46.1941 H         1 UNK         0.3000 
    170 H170       -2.8571  -15.9601  -49.2268 H         1 UNK         0.0600 
    171 H171       -3.6882  -18.0160  -48.1492 H         1 UNK         0.0600 
    172 H172       -4.3173  -17.1030  -46.7805 H         1 UNK         0.0600 
    173 H173       -4.9975  -16.8791  -48.3878 H         1 UNK         0.0600 
    174 H174       -3.4780  -13.9345  -48.6432 H         1 UNK         0.3000 
    175 H175       -4.7962  -12.3049  -47.5254 H         1 UNK         0.0600 
    176 H176       -4.2125  -12.2665  -44.5121 H         1 UNK         0.0600 
    177 H177       -5.0204  -10.9991  -45.4327 H         1 UNK         0.0600 
    178 H178       -5.7873  -12.5687  -45.2402 H         1 UNK         0.0600 
    179 H179       -2.3848  -11.6340  -45.9650 H         1 UNK         0.3000 
    180 H180       -0.2731  -11.2971  -48.8103 H         1 UNK         0.0600 
    181 H181       -1.2744   -9.3687  -46.6513 H         1 UNK         0.0600 
    182 H182       -1.3862   -9.1231  -48.3877 H         1 UNK         0.0600 
    183 H183        0.1902   -9.1824  -47.6146 H         1 UNK         0.0600 
    184 H184        0.9508  -12.2369  -47.2581 H         1 UNK         0.3000 
    185 H185        1.9945  -11.8589  -44.7645 H         1 UNK         0.0600 
    186 H186        0.5235  -11.9531  -42.7711 H         1 UNK         0.0600 
    187 H187       -0.0259  -13.5633  -43.2243 H         1 UNK         0.0600 
    188 H188        1.6545  -13.2928  -42.7605 H         1 UNK         0.0600 
    189 H189        1.6174  -14.6293  -44.7541 H         1 UNK         0.3000 
    190 H190       -0.7171  -21.2596  -45.9341 H         1 UNK         0.3000 
    191 H191       -2.6122  -21.8359  -48.0123 H         1 UNK         0.0600 
    192 H192       -2.8944  -20.3454  -45.3447 H         1 UNK         0.0600 
    193 H193       -4.0915  -20.3300  -46.6313 H         1 UNK         0.0600 
    194 H194       -2.5031  -19.6325  -46.9086 H         1 UNK         0.0600 
    195 H195       -1.9744  -23.2777  -44.8816 H         1 UNK         0.3000 
    196 H196       -4.5512  -24.6966  -44.7342 H         1 UNK         0.0600 
    197 H197       -3.5660  -25.7071  -42.7027 H         1 UNK         0.0600 
    198 H198       -3.4271  -23.9579  -42.6367 H         1 UNK         0.0600 
    199 H199       -2.0176  -24.9420  -43.0237 H         1 UNK         0.0600 
    200 H200       -1.1244  -25.3024  -45.5503 H         1 UNK         0.3000 
    201 H201       -1.3675  -28.0908  -46.0855 H         1 UNK         0.0600 
    202 H202        0.7924  -26.9556  -45.5874 H         1 UNK         0.0600 
    203 H203        0.6856  -26.0523  -47.0971 H         1 UNK         0.0600 
    204 H204        0.8718  -27.8005  -47.1271 H         1 UNK         0.0600 
    205 H205       -1.5827  -25.2106  -48.2226 H         1 UNK         0.3000 
    206 H206       -2.7576  -26.8732  -50.4078 H         1 UNK         0.0600 
    207 H207       -0.3991  -26.3863  -50.9620 H         1 UNK         0.0600 
    208 H208       -1.4551  -25.4164  -51.9778 H         1 UNK         0.0600 
    209 H209       -0.6262  -24.6766  -50.6102 H         1 UNK         0.0600 
    210 H210       -4.8356  -26.2765  -49.6707 H         1 UNK         0.3000 
    211 H211       -5.7420  -23.6041  -49.3270 H         1 UNK         0.0600 
    212 H212       -7.2733  -26.1293  -50.1529 H         1 UNK         0.0600 
    213 H213       -8.0045  -24.6335  -49.5824 H         1 UNK         0.0600 
    214 H214       -6.9920  -25.5764  -48.5005 H         1 UNK         0.0600 
    215 H215       -5.2051  -25.5216  -52.2343 H         1 UNK         0.3000 
    216 H216       -6.5893  -23.8612  -54.1135 H         1 UNK         0.0600 
    217 H217       -5.1659  -25.0611  -55.7807 H         1 UNK         0.0600 
    218 H218       -5.8908  -26.1832  -54.6405 H         1 UNK         0.0600 
    219 H219       -4.1908  -25.7390  -54.4823 H         1 UNK         0.0600 
    220 H220       -3.3327  -23.7039  -52.6578 H         1 UNK         0.3000 
    221 H221       -2.3785  -21.5638  -54.3720 H         1 UNK         0.0600 
    222 H222       -1.2876  -22.5441  -51.6887 H         1 UNK         0.0600 
    223 H223       -0.8109  -23.1697  -53.2671 H         1 UNK         0.0600 
    224 H224       -0.4676  -21.5008  -52.8395 H         1 UNK         0.0600 
    225 H225       -3.8770  -21.8318  -51.1294 H         1 UNK         0.3000 
    226 H226       -3.8207  -19.1079  -50.3963 H         1 UNK         0.0600 
    227 H227       -4.5021  -21.1086  -48.9334 H         1 UNK         0.0600 
    228 H228       -5.5342  -19.6936  -48.7831 H         1 UNK         0.0600 
    229 H229       -6.0688  -21.0769  -49.7170 H         1 UNK         0.0600 
    230 H230       -6.2367  -20.9280  -52.3113 H         1 UNK         0.3000 
    231 H231       -7.9946  -18.7479  -52.8472 H         1 UNK         0.0600 
    232 H232       -8.8964  -20.2597  -54.6096 H         1 UNK         0.0600 
    233 H233       -8.6689  -21.1206  -53.0942 H         1 UNK         0.0600 
    234 H234       -7.5227  -21.3403  -54.4131 H         1 UNK         0.0600 
    235 H235       -5.2286  -20.0984  -54.7274 H         1 UNK         0.3000 
    236 H236       -5.4165  -18.4069  -56.9610 H         1 UNK         0.0600 
    237 H237       -4.0531  -20.4890  -56.8909 H         1 UNK         0.0600 
    238 H238       -3.0854  -19.1200  -57.4146 H         1 UNK         0.0600 
    239 H239       -2.9215  -19.7246  -55.7736 H         1 UNK         0.0600 
    240 H240       -3.8120  -17.8233  -53.8340 H         1 UNK         0.3000 
    241 H241       -2.6757  -15.2799  -54.5475 H         1 UNK         0.0600 
    242 H242       -6.0647  -15.9832  -54.2390 H         1 UNK         0.3800 
    243 H243       -6.5347  -14.3427  -53.8787 H         1 UNK         0.3800 
    244 H244       -2.4532  -14.9559  -52.0471 H         1 UNK         0.0800 
    245 H245       -3.3414  -16.4418  -51.8076 H         1 UNK         0.0800 
    246 H246       -0.7888  -16.3010  -50.3175 H         1 UNK         0.0800 
    247 H247       -1.7215  -17.7765  -50.4979 H         1 UNK         0.0800 
@<TRIPOS>BOND
     1    1    2 1    
     2    1  127 1    
     3    1  128 1    
     4    1  129 1    
     5    2    3 2    
     6    2    4 am   BACKBONE|DICT|INTERRES
     7    4    5 1    
     8    4  130 1    
     9    5    6 1    
    10    5   65 1    
    11    5  131 1    
    12    6    7 1    
    13    6  132 1    
    14    6  133 1    
    15    7    8 1    
    16    8    9 1    
    17    8  134 1    
    18    8  135 1    
    19    9   10 ar   
    20    9   14 ar   
    21   10   11 ar   
    22   10  136 1    
    23   11   12 ar   
    24   11  126 1    
    25   12   13 ar   
    26   12  137 1    
    27   13   14 ar   
    28   13   15 1    
    29   14  138 1    
    30   15   16 1    
    31   15  139 1    
    32   15  140 1    
    33   16   17 1    
    34   17   18 1    
    35   17  141 1    
    36   17  142 1    
    37   18   19 1    
    38   18   67 1    
    39   18  143 1    
    40   19   20 am   BACKBONE|DICT|INTERRES
    41   19  144 1    
    42   20   21 2    
    43   20   22 1    
    44   22   23 1    
    45   22   24 1    
    46   22  145 1    
    47   23  146 1    
    48   23  147 1    
    49   23  148 1    
    50   24   25 am   BACKBONE|DICT|INTERRES
    51   24  149 1    
    52   25   26 2    
    53   25   27 1    
    54   27   28 1    
    55   27   29 1    
    56   27  150 1    
    57   28  151 1    
    58   28  152 1    
    59   28  153 1    
    60   29   30 am   BACKBONE|DICT|INTERRES
    61   29  154 1    
    62   30   31 2    
    63   30   32 1    
    64   32   33 1    
    65   32   34 1    
    66   32  155 1    
    67   33  156 1    
    68   33  157 1    
    69   33  158 1    
    70   34   35 am   BACKBONE|DICT|INTERRES
    71   34  159 1    
    72   35   36 2    
    73   35   37 1    
    74   37   38 1    
    75   37   39 1    
    76   37  160 1    
    77   38  161 1    
    78   38  162 1    
    79   38  163 1    
    80   39   40 am   BACKBONE|DICT|INTERRES
    81   39  164 1    
    82   40   41 2    
    83   40   42 1    
    84   42   43 1    
    85   42   44 1    
    86   42  165 1    
    87   43  166 1    
    88   43  167 1    
    89   43  168 1    
    90   44   45 am   BACKBONE|DICT|INTERRES
    91   44  169 1    
    92   45   46 2    
    93   45   47 1    
    94   47   48 1    
    95   47   49 1    
    96   47  170 1    
    97   48  171 1    
    98   48  172 1    
    99   48  173 1    
   100   49   50 am   BACKBONE|DICT|INTERRES
   101   49  174 1    
   102   50   51 2    
   103   50   52 1    
   104   52   53 1    
   105   52   54 1    
   106   52  175 1    
   107   53  176 1    
   108   53  177 1    
   109   53  178 1    
   110   54   55 am   BACKBONE|DICT|INTERRES
   111   54  179 1    
   112   55   56 2    
   113   55   57 1    
   114   57   58 1    
   115   57   59 1    
   116   57  180 1    
   117   58  181 1    
   118   58  182 1    
   119   58  183 1    
   120   59   60 am   BACKBONE|DICT|INTERRES
   121   59  184 1    
   122   60   61 2    
   123   60   62 1    
   124   62   63 1    
   125   62   64 1    
   126   62  185 1    
   127   63  186 1    
   128   63  187 1    
   129   63  188 1    
   130   64   65 am   BACKBONE|DICT|INTERRES
   131   64  189 1    
   132   65   66 2    
   133   67   68 2    
   134   67   69 am   BACKBONE|DICT|INTERRES
   135   69   70 1    
   136   69  190 1    
   137   70   71 1    
   138   70   72 1    
   139   70  191 1    
   140   71  192 1    
   141   71  193 1    
   142   71  194 1    
   143   72   73 2    
   144   72   74 am   BACKBONE|DICT|INTERRES
   145   74   75 1    
   146   74  195 1    
   147   75   76 1    
   148   75   77 1    
   149   75  196 1    
   150   76  197 1    
   151   76  198 1    
   152   76  199 1    
   153   77   78 2    
   154   77   79 am   BACKBONE|DICT|INTERRES
   155   79   80 1    
   156   79  200 1    
   157   80   81 1    
   158   80   82 1    
   159   80  201 1    
   160   81  202 1    
   161   81  203 1    
   162   81  204 1    
   163   82   83 2    
   164   82   84 am   BACKBONE|DICT|INTERRES
   165   84   85 1    
   166   84  205 1    
   167   85   86 1    
   168   85   87 1    
   169   85  206 1    
   170   86  207 1    
   171   86  208 1    
   172   86  209 1    
   173   87   88 2    
   174   87   89 am   BACKBONE|DICT|INTERRES
   175   89   90 1    
   176   89  210 1    
   177   90   91 1    
   178   90   92 1    
   179   90  211 1    
   180   91  212 1    
   181   91  213 1    
   182   91  214 1    
   183   92   93 2    
   184   92   94 am   BACKBONE|DICT|INTERRES
   185   94   95 1    
   186   94  215 1    
   187   95   96 1    
   188   95   97 1    
   189   95  216 1    
   190   96  217 1    
   191   96  218 1    
   192   96  219 1    
   193   97   98 2    
   194   97   99 am   BACKBONE|DICT|INTERRES
   195   99  100 1    
   196   99  220 1    
   197  100  101 1    
   198  100  102 1    
   199  100  221 1    
   200  101  222 1    
   201  101  223 1    
   202  101  224 1    
   203  102  103 2    
   204  102  104 am   BACKBONE|DICT|INTERRES
   205  104  105 1    
   206  104  225 1    
   207  105  106 1    
   208  105  107 1    
   209  105  226 1    
   210  106  227 1    
   211  106  228 1    
   212  106  229 1    
   213  107  108 2    
   214  107  109 am   BACKBONE|DICT|INTERRES
   215  109  110 1    
   216  109  230 1    
   217  110  111 1    
   218  110  112 1    
   219  110  231 1    
   220  111  232 1    
   221  111  233 1    
   222  111  234 1    
   223  112  113 2    
   224  112  114 am   BACKBONE|DICT|INTERRES
   225  114  115 1    
   226  114  235 1    
   227  115  116 1    
   228  115  117 1    
   229  115  236 1    
   230  116  237 1    
   231  116  238 1    
   232  116  239 1    
   233  117  118 2    
   234  117  119 am   BACKBONE|DICT|INTERRES
   235  119  120 1    
   236  119  240 1    
   237  120  121 1    
   238  120  124 1    
   239  120  241 1    
   240  121  122 am   BACKBONE|DICT|INTERRES
   241  121  123 2    
   242  122  242 1    
   243  122  243 1    
   244  124  125 1    
   245  124  244 1    
   246  124  245 1    
   247  125  126 1    
   248  126  246 1    
   249  126  247 1    
@<TRIPOS>SUBSTRUCTURE
     1 UNK         1 GROUP             0       ****    0 ROOT    
