@<TRIPOS>MOLECULE
3R540
247   249    1
SMALL
USER_CHARGES


@<TRIPOS>ATOM
      1 CA          5.1161  -10.6425  -50.5272 C.3       0 UNK        -0.1800 
      2 C           5.2518  -11.8682  -49.6347 C.2       0 UNK         0.5000 
      3 O           6.3051  -12.5064  -49.6261 O.2       0 UNK        -0.5000 
      4 N           4.1892  -12.2034  -48.8936 N.am      1 UNK        -0.5000 
      5 CA          4.1439  -13.3208  -47.9448 C.3       1 UNK         0.1400 
      6 C6          2.6926  -13.6722  -47.5344 C.3       23 UNK        -0.0398 
      7 S7          1.6366  -14.1244  -48.9497 S.3       23 UNK        -0.2404 
      8 C8          2.0565  -15.8926  -49.1468 C.3       23 UNK        -0.0205 
      9 C9          1.2755  -16.6388  -50.2317 C.ar      23 UNK        -0.0193 
     10 C10         0.5932  -15.9812  -51.2629 C.ar      23 UNK        -0.1150 
     11 C11        -0.1119  -16.7032  -52.2279 C.ar      23 UNK        -0.0193 
     12 C12        -0.1203  -18.0988  -52.1685 C.ar      23 UNK        -0.1150 
     13 C13         0.5517  -18.7831  -51.1510 C.ar      23 UNK        -0.0193 
     14 C14         1.2581  -18.0373  -50.1960 C.ar      23 UNK        -0.1150 
     15 C15         0.4546  -20.3147  -51.1341 C.3       23 UNK        -0.0205 
     16 S16         1.5421  -21.2084  -49.9665 S.3       23 UNK        -0.2404 
     17 C17         0.7901  -20.7774  -48.3635 C.3       23 UNK        -0.0398 
     18 CA          0.3394  -21.9790  -47.5012 C.3       11 UNK         0.1400 
     19 N           0.1243  -21.5586  -46.1143 N.am      11 UNK        -0.5000 
     20 C          -0.1490  -22.3644  -45.0799 C.2       10 UNK         0.5000 
     21 O          -0.1945  -23.5911  -45.1588 O.2       10 UNK        -0.5000 
     22 CA         -0.4805  -21.6754  -43.7424 C.3       10 UNK         0.1400 
     23 CB          0.8009  -21.2493  -43.0115 C.3       10 UNK        -0.1800 
     24 N          -1.3620  -20.5180  -43.9155 N.am      10 UNK        -0.5000 
     25 C          -2.6187  -20.5945  -44.3782 C.2       9 UNK         0.5000 
     26 O          -3.1831  -21.6567  -44.6389 O.2       9 UNK        -0.5000 
     27 CA         -3.3516  -19.2667  -44.6428 C.3       9 UNK         0.1400 
     28 CB         -3.9472  -18.7003  -43.3456 C.3       9 UNK        -0.1800 
     29 N          -2.4908  -18.2631  -45.2693 N.am      9 UNK        -0.5000 
     30 C          -1.9447  -18.3797  -46.4878 C.2       8 UNK         0.5000 
     31 O          -2.1542  -19.3301  -47.2388 O.2       8 UNK        -0.5000 
     32 CA         -0.9450  -17.2885  -46.9121 C.3       8 UNK         0.1400 
     33 CB         -1.6677  -16.0484  -47.4569 C.3       8 UNK        -0.1800 
     34 N          -0.0507  -16.9121  -45.8151 N.am      8 UNK        -0.5000 
     35 C           0.8756  -17.7304  -45.2945 C.2       7 UNK         0.5000 
     36 O           1.1135  -18.8528  -45.7356 O.2       7 UNK        -0.5000 
     37 CA          1.6269  -17.2454  -44.0436 C.3       7 UNK         0.1400 
     38 CB          2.9275  -16.5254  -44.4175 C.3       7 UNK        -0.1800 
     39 N           0.7954  -16.3910  -43.1935 N.am      7 UNK        -0.5000 
     40 C          -0.1902  -16.8800  -42.4261 C.2       6 UNK         0.5000 
     41 O          -0.4748  -18.0771  -42.3681 O.2       6 UNK        -0.5000 
     42 CA         -1.0224  -15.8688  -41.6197 C.3       6 UNK         0.1400 
     43 CB         -0.2748  -15.4350  -40.3506 C.3       6 UNK        -0.1800 
     44 N          -1.4065  -14.6819  -42.3823 N.am      6 UNK        -0.5000 
     45 C          -2.1568  -14.6711  -43.4897 C.2       5 UNK         0.5000 
     46 O          -2.5602  -15.6936  -44.0410 O.2       5 UNK        -0.5000 
     47 CA         -2.5093  -13.3012  -44.1041 C.3       5 UNK         0.1400 
     48 CB         -3.7624  -12.7027  -43.4385 C.3       5 UNK        -0.1800 
     49 N          -1.4005  -12.3375  -44.1344 N.am      5 UNK        -0.5000 
     50 C          -0.7644  -11.7496  -43.1126 C.2       4 UNK         0.5000 
     51 O          -1.0486  -11.9160  -41.9244 O.2       4 UNK        -0.5000 
     52 CA          0.4382  -10.8665  -43.4854 C.3       4 UNK         0.1400 
     53 CB          0.2288   -9.4199  -43.0109 C.3       4 UNK        -0.1800 
     54 N           1.6842  -11.3851  -42.9200 N.am      4 UNK        -0.5000 
     55 C           2.2086  -12.5885  -43.1826 C.2       3 UNK         0.5000 
     56 O           1.6901  -13.4277  -43.9259 O.2       3 UNK        -0.5000 
     57 CA          3.5479  -12.9138  -42.5152 C.3       3 UNK         0.1400 
     58 CB          3.3649  -13.8690  -41.3248 C.3       3 UNK        -0.1800 
     59 N           4.3855  -13.5335  -43.5308 N.am      3 UNK        -0.5000 
     60 C           5.7154  -13.4424  -43.6168 C.2       2 UNK         0.5000 
     61 O           6.4211  -12.8961  -42.7678 O.2       2 UNK        -0.5000 
     62 CA          6.3714  -14.0522  -44.8730 C.3       2 UNK         0.1400 
     63 CB          6.8812  -15.4704  -44.5724 C.3       2 UNK        -0.1800 
     64 N           5.4977  -14.1025  -46.0528 N.am      2 UNK        -0.5000 
     65 C           5.0056  -13.0326  -46.6952 C.2       1 UNK         0.5000 
     66 O           5.1886  -11.8698  -46.3256 O.2       1 UNK        -0.5000 
     67 C          -0.9018  -22.6920  -48.0799 C.2       11 UNK         0.5000 
     68 O          -0.7663  -23.7703  -48.6588 O.2       11 UNK        -0.5000 
     69 N          -2.0919  -22.1136  -47.8551 N.am      12 UNK        -0.5000 
     70 CA         -3.3865  -22.6922  -48.2170 C.3       12 UNK         0.1400 
     71 CB         -4.5175  -21.7104  -47.8721 C.3       12 UNK        -0.1800 
     72 C          -3.6371  -24.0424  -47.5264 C.2       12 UNK         0.5000 
     73 O          -4.0274  -24.9978  -48.1955 O.2       12 UNK        -0.5000 
     74 N          -3.3854  -24.1032  -46.2111 N.am      13 UNK        -0.5000 
     75 CA         -3.5265  -25.3056  -45.3905 C.3       13 UNK         0.1400 
     76 CB         -3.3286  -24.9494  -43.9095 C.3       13 UNK        -0.1800 
     77 C          -2.5729  -26.4341  -45.8191 C.2       13 UNK         0.5000 
     78 O          -3.0139  -27.5751  -45.9583 O.2       13 UNK        -0.5000 
     79 N          -1.3011  -26.0906  -46.0682 N.am      14 UNK        -0.5000 
     80 CA         -0.2662  -27.0068  -46.5544 C.3       14 UNK         0.1400 
     81 CB          1.0922  -26.2894  -46.5531 C.3       14 UNK        -0.1800 
     82 C          -0.5739  -27.5799  -47.9505 C.2       14 UNK         0.5000 
     83 O          -0.3013  -28.7544  -48.2008 O.2       14 UNK        -0.5000 
     84 N          -1.1637  -26.7503  -48.8202 N.am      15 UNK        -0.5000 
     85 CA         -1.6128  -27.1246  -50.1606 C.3       15 UNK         0.1400 
     86 CB         -1.6874  -25.8540  -51.0182 C.3       15 UNK        -0.1800 
     87 C          -2.9705  -27.8549  -50.1792 C.2       15 UNK         0.5000 
     88 O          -3.3877  -28.2956  -51.2490 O.2       15 UNK        -0.5000 
     89 N          -3.6575  -27.9376  -49.0298 N.am      16 UNK        -0.5000 
     90 CA         -5.0128  -28.4711  -48.8484 C.3       16 UNK         0.1400 
     91 CB         -5.0406  -29.9957  -49.0836 C.3       16 UNK        -0.1800 
     92 C          -6.0610  -27.7027  -49.6843 C.2       16 UNK         0.5000 
     93 O          -6.9077  -28.3109  -50.3409 O.2       16 UNK        -0.5000 
     94 N          -5.9536  -26.3667  -49.6503 N.am      17 UNK        -0.5000 
     95 CA         -6.7736  -25.3630  -50.3374 C.3       17 UNK         0.1400 
     96 CB         -8.2594  -25.4797  -49.9384 C.3       17 UNK        -0.1800 
     97 C          -6.5718  -25.3026  -51.8670 C.2       17 UNK         0.5000 
     98 O          -7.3374  -24.6179  -52.5469 O.2       17 UNK        -0.5000 
     99 N          -5.5350  -25.9736  -52.3904 N.am      18 UNK        -0.5000 
    100 CA        -5.1543  -25.9299  -53.8068 C.3       18 UNK         0.1400 
    101 CB        -4.3967  -27.2174  -54.1659 C.3       18 UNK        -0.1800 
    102 C         -4.3123  -24.6884  -54.1719 C.2       18 UNK         0.5000 
    103 O         -4.0790  -24.4513  -55.3580 O.2       18 UNK        -0.5000 
    104 N         -3.8656  -23.9298  -53.1636 N.am      19 UNK        -0.5000 
    105 CA        -3.0979  -22.6941  -53.2960 C.3       19 UNK         0.1400 
    106 CB        -1.6615  -22.9393  -52.8018 C.3       19 UNK        -0.1800 
    107 C         -3.7766  -21.5679  -52.4978 C.2       19 UNK         0.5000 
    108 O         -4.7856  -21.8045  -51.8290 O.2       19 UNK        -0.5000 
    109 N         -3.1932  -20.3643  -52.5925 N.am      20 UNK        -0.5000 
    110 CA        -3.6622  -19.0988  -52.0103 C.3       20 UNK         0.1400 
    111 CB        -3.8109  -19.1774  -50.4801 C.3       20 UNK        -0.1800 
    112 C         -4.9096  -18.5377  -52.7204 C.2       20 UNK         0.5000 
    113 O         -5.7186  -17.8383  -52.1073 O.2       20 UNK        -0.5000 
    114 N         -4.9989  -18.7898  -54.0359 N.am      21 UNK        -0.5000 
    115 CA        -6.0013  -18.2272  -54.9500 C.3       21 UNK         0.1400 
    116 CB        -5.8583  -18.9083  -56.3198 C.3       21 UNK        -0.1800 
    117 C         -5.9171  -16.6907  -55.0927 C.2       21 UNK         0.5000 
    118 O         -6.8718  -16.0680  -55.5588 O.2       21 UNK        -0.5000 
    119 N         -4.7891  -16.1129  -54.6602 N.am      22 UNK        -0.5000 
    120 CA        -4.5755  -14.6781  -54.4340 C.3       22 UNK         0.1400 
    121 C         -5.4973  -14.0365  -53.3500 C.2       22 UNK         0.5000 
    122 N         -6.1191  -14.8024  -52.4589 N.am      22 UNK        -0.7600 
    123 O         -5.6563  -12.8190  -53.3262 O.2       22 UNK        -0.5000 
    124 C124       -3.0788  -14.3821  -54.1455 C.3       23 UNK        -0.0398 
    125 S125       -2.4240  -15.2740  -52.6843 S.3       23 UNK        -0.2404 
    126 C126       -0.8687  -15.9675  -53.3247 C.3       23 UNK        -0.0205 
    127 H127        4.1281  -10.1888  -50.4453 H         1 UNK         0.0600 
    128 H128        5.8581   -9.8934  -50.2508 H         1 UNK         0.0600 
    129 H129        5.2785  -10.9171  -51.5694 H         1 UNK         0.0600 
    130 H130        3.3551  -11.6365  -48.9383 H         1 UNK         0.3000 
    131 H131        4.5748  -14.1909  -48.4446 H         1 UNK         0.0600 
    132 H132        2.6782  -14.5012  -46.8302 H         1 UNK         0.0800 
    133 H133        2.2259  -12.8315  -47.0175 H         1 UNK         0.0800 
    134 H134        3.1198  -15.9801  -49.3717 H         1 UNK         0.0800 
    135 H135        1.8959  -16.3904  -48.1892 H         1 UNK         0.0800 
    136 H136        0.5946  -14.9030  -51.3244 H         1 UNK         0.1150 
    137 H137       -0.6579  -18.6580  -52.9200 H         1 UNK         0.1150 
    138 H138        1.8031  -18.5317  -49.4079 H         1 UNK         0.1150 
    139 H139       -0.5795  -20.5999  -50.9348 H         1 UNK         0.0800 
    140 H140        0.6896  -20.6811  -52.1340 H         1 UNK         0.0800 
    141 H141       -0.0317  -20.0774  -48.5127 H         1 UNK         0.0800 
    142 H142        1.5595  -20.2250  -47.8250 H         1 UNK         0.0800 
    143 H143        1.1536  -22.7065  -47.4836 H         1 UNK         0.0600 
    144 H144        0.1970  -20.5612  -45.9378 H         1 UNK         0.3000 
    145 H145       -1.0024  -22.4006  -43.1147 H         1 UNK         0.0600 
    146 H146        0.5727  -20.7950  -42.0471 H         1 UNK         0.0600 
    147 H147        1.4448  -22.1092  -42.8229 H         1 UNK         0.0600 
    148 H148        1.3777  -20.5301  -43.5923 H         1 UNK         0.0600 
    149 H149       -0.9868  -19.6102  -43.6628 H         1 UNK         0.3000 
    150 H150       -4.1737  -19.4747  -45.3307 H         1 UNK         0.0600 
    151 H151       -4.6117  -19.4241  -42.8722 H         1 UNK         0.0600 
    152 H152       -4.5312  -17.8007  -43.5411 H         1 UNK         0.0600 
    153 H153       -3.1721  -18.4434  -42.6234 H         1 UNK         0.0600 
    154 H154       -2.3206  -17.4139  -44.7361 H         1 UNK         0.3000 
    155 H155       -0.3343  -17.6970  -47.7192 H         1 UNK         0.0600 
    156 H156       -0.9571  -15.2932  -47.7917 H         1 UNK         0.0600 
    157 H157       -2.3166  -15.5925  -46.7097 H         1 UNK         0.0600 
    158 H158       -2.2886  -16.3098  -48.3149 H         1 UNK         0.0600 
    159 H159       -0.2173  -16.0221  -45.3703 H         1 UNK         0.3000 
    160 H160        1.9054  -18.1326  -43.4710 H         1 UNK         0.0600 
    161 H161        2.7287  -15.5871  -44.9263 H         1 UNK         0.0600 
    162 H162        3.5404  -17.1387  -45.0795 H         1 UNK         0.0600 
    163 H163        3.5236  -16.3112  -43.5308 H         1 UNK         0.0600 
    164 H164        0.9564  -15.3914  -43.2346 H         1 UNK         0.3000 
    165 H165       -1.9417  -16.3733  -41.3155 H         1 UNK         0.0600 
    166 H166        0.6206  -14.8611  -40.5881 H         1 UNK         0.0600 
    167 H167       -0.9076  -14.8164  -39.7141 H         1 UNK         0.0600 
    168 H168        0.0331  -16.2996  -39.7610 H         1 UNK         0.0600 
    169 H169       -1.1358  -13.7787  -42.0024 H         1 UNK         0.3000 
    170 H170       -2.7585  -13.4896  -45.1495 H         1 UNK         0.0600 
    171 H171       -4.6088  -13.3854  -43.5229 H         1 UNK         0.0600 
    172 H172       -3.6095  -12.5070  -42.3770 H         1 UNK         0.0600 
    173 H173       -4.0522  -11.7659  -43.9143 H         1 UNK         0.0600 
    174 H174       -1.0376  -12.1580  -45.0602 H         1 UNK         0.3000 
    175 H175        0.5477  -10.8534  -44.5718 H         1 UNK         0.0600 
    176 H176        1.0495   -8.7769  -43.3292 H         1 UNK         0.0600 
    177 H177       -0.6898   -9.0028  -43.4258 H         1 UNK         0.0600 
    178 H178        0.1554   -9.3582  -41.9243 H         1 UNK         0.0600 
    179 H179        2.1647  -10.7742  -42.2759 H         1 UNK         0.3000 
    180 H180        4.0107  -11.9863  -42.1711 H         1 UNK         0.0600 
    181 H181        2.9063  -14.8103  -41.6287 H         1 UNK         0.0600 
    182 H182        2.7281  -13.4215  -40.5609 H         1 UNK         0.0600 
    183 H183        4.3212  -14.1009  -40.8559 H         1 UNK         0.0600 
    184 H184        3.8717  -13.9605  -44.2884 H         1 UNK         0.3000 
    185 H185        7.2310  -13.4274  -45.1242 H         1 UNK         0.0600 
    186 H186        7.4315  -15.8807  -45.4193 H         1 UNK         0.0600 
    187 H187        7.5588  -15.4693  -43.7175 H         1 UNK         0.0600 
    188 H188        6.0624  -16.1523  -44.3402 H         1 UNK         0.0600 
    189 H189        5.3147  -15.0234  -46.4240 H         1 UNK         0.3000 
    190 H190       -2.1147  -21.1979  -47.4130 H         1 UNK         0.3000 
    191 H191       -3.3835  -22.8508  -49.2974 H         1 UNK         0.0600 
    192 H192       -4.2887  -20.7007  -48.2034 H         1 UNK         0.0600 
    193 H193       -5.4493  -22.0119  -48.3519 H         1 UNK         0.0600 
    194 H194       -4.7050  -21.6588  -46.7999 H         1 UNK         0.0600 
    195 H195       -3.1078  -23.2530  -45.7279 H         1 UNK         0.3000 
    196 H196       -4.5479  -25.6710  -45.5157 H         1 UNK         0.0600 
    197 H197       -3.4528  -25.8285  -43.2761 H         1 UNK         0.0600 
    198 H198       -4.0571  -24.2071  -43.5829 H         1 UNK         0.0600 
    199 H199       -2.3340  -24.5455  -43.7204 H         1 UNK         0.0600 
    200 H200       -1.0098  -25.1313  -45.8935 H         1 UNK         0.3000 
    201 H201       -0.2101  -27.8453  -45.8573 H         1 UNK         0.0600 
    202 H202        1.3614  -25.9581  -45.5501 H         1 UNK         0.0600 
    203 H203        1.0840  -25.4135  -47.2031 H         1 UNK         0.0600 
    204 H204        1.8858  -26.9515  -46.9013 H         1 UNK         0.0600 
    205 H205       -1.3005  -25.7804  -48.5538 H         1 UNK         0.3000 
    206 H206       -0.8751  -27.7941  -50.6075 H         1 UNK         0.0600 
    207 H207       -0.7238  -25.3453  -51.0490 H         1 UNK         0.0600 
    208 H208       -1.9629  -26.0853  -52.0474 H         1 UNK         0.0600 
    209 H209       -2.4249  -25.1520  -50.6271 H         1 UNK         0.0600 
    210 H210       -3.2404  -27.5284  -48.2030 H         1 UNK         0.3000 
    211 H211       -5.2701  -28.2959  -47.8029 H         1 UNK         0.0600 
    212 H212       -4.8411  -30.2517  -50.1245 H         1 UNK         0.0600 
    213 H213       -6.0155  -30.4116  -48.8267 H         1 UNK         0.0600 
    214 H214       -4.2992  -30.5020  -48.4655 H         1 UNK         0.0600 
    215 H215       -5.1986  -25.9730  -49.0872 H         1 UNK         0.3000 
    216 H216       -6.4177  -24.4016  -49.9637 H         1 UNK         0.0600 
    217 H217       -8.3763  -25.5067  -48.8551 H         1 UNK         0.0600 
    218 H218       -8.7224  -26.3767  -50.3501 H         1 UNK         0.0600 
    219 H219       -8.8303  -24.6249  -50.3026 H         1 UNK         0.0600 
    220 H220       -4.9681  -26.5521  -51.7849 H         1 UNK         0.3000 
    221 H221       -6.0613  -25.8989  -54.4140 H         1 UNK         0.0600 
    222 H222       -3.4225  -27.2611  -53.6794 H         1 UNK         0.0600 
    223 H223       -4.9594  -28.1046  -53.8745 H         1 UNK         0.0600 
    224 H224       -4.2246  -27.2803  -55.2410 H         1 UNK         0.0600 
    225 H225       -4.1850  -24.1424  -52.2301 H         1 UNK         0.3000 
    226 H226       -3.0639  -22.3807  -54.3414 H         1 UNK         0.0600 
    227 H227       -1.2352  -23.8359  -53.2520 H         1 UNK         0.0600 
    228 H228       -1.0087  -22.1105  -53.0725 H         1 UNK         0.0600 
    229 H229       -1.6182  -23.0515  -51.7176 H         1 UNK         0.0600 
    230 H230       -2.3672  -20.2907  -53.1683 H         1 UNK         0.3000 
    231 H231       -2.8775  -18.3702  -52.2065 H         1 UNK         0.0600 
    232 H232       -2.9430  -19.6480  -50.0177 H         1 UNK         0.0600 
    233 H233       -4.7004  -19.7399  -50.1992 H         1 UNK         0.0600 
    234 H234       -3.9085  -18.1813  -50.0471 H         1 UNK         0.0600 
    235 H235       -4.2940  -19.3758  -54.4573 H         1 UNK         0.3000 
    236 H236       -6.9893  -18.4621  -54.5491 H         1 UNK         0.0600 
    237 H237       -6.6110  -18.5420  -57.0192 H         1 UNK         0.0600 
    238 H238       -4.8797  -18.7196  -56.7627 H         1 UNK         0.0600 
    239 H239       -5.9899  -19.9876  -56.2401 H         1 UNK         0.0600 
    240 H240       -4.0659  -16.7148  -54.2988 H         1 UNK         0.3000 
    241 H241       -4.8297  -14.1769  -55.3696 H         1 UNK         0.0600 
    242 H242       -5.9801  -15.8063  -52.4415 H         1 UNK         0.3800 
    243 H243       -6.7139  -14.3719  -51.7692 H         1 UNK         0.3800 
    244 H244       -2.4870  -14.6476  -55.0223 H         1 UNK         0.0800 
    245 H245       -2.9186  -13.3123  -54.0001 H         1 UNK         0.0800 
    246 H246       -1.0831  -16.6360  -54.1599 H         1 UNK         0.0800 
    247 H247       -0.2469  -15.1628  -53.7202 H         1 UNK         0.0800 
@<TRIPOS>BOND
     1    1    2 1    
     2    1  127 1    
     3    1  128 1    
     4    1  129 1    
     5    2    3 2    
     6    2    4 am   BACKBONE|DICT|INTERRES
     7    4    5 1    
     8    4  130 1    
     9    5    6 1    
    10    5   65 1    
    11    5  131 1    
    12    6    7 1    
    13    6  132 1    
    14    6  133 1    
    15    7    8 1    
    16    8    9 1    
    17    8  134 1    
    18    8  135 1    
    19    9   10 ar   
    20    9   14 ar   
    21   10   11 ar   
    22   10  136 1    
    23   11   12 ar   
    24   11  126 1    
    25   12   13 ar   
    26   12  137 1    
    27   13   14 ar   
    28   13   15 1    
    29   14  138 1    
    30   15   16 1    
    31   15  139 1    
    32   15  140 1    
    33   16   17 1    
    34   17   18 1    
    35   17  141 1    
    36   17  142 1    
    37   18   19 1    
    38   18   67 1    
    39   18  143 1    
    40   19   20 am   BACKBONE|DICT|INTERRES
    41   19  144 1    
    42   20   21 2    
    43   20   22 1    
    44   22   23 1    
    45   22   24 1    
    46   22  145 1    
    47   23  146 1    
    48   23  147 1    
    49   23  148 1    
    50   24   25 am   BACKBONE|DICT|INTERRES
    51   24  149 1    
    52   25   26 2    
    53   25   27 1    
    54   27   28 1    
    55   27   29 1    
    56   27  150 1    
    57   28  151 1    
    58   28  152 1    
    59   28  153 1    
    60   29   30 am   BACKBONE|DICT|INTERRES
    61   29  154 1    
    62   30   31 2    
    63   30   32 1    
    64   32   33 1    
    65   32   34 1    
    66   32  155 1    
    67   33  156 1    
    68   33  157 1    
    69   33  158 1    
    70   34   35 am   BACKBONE|DICT|INTERRES
    71   34  159 1    
    72   35   36 2    
    73   35   37 1    
    74   37   38 1    
    75   37   39 1    
    76   37  160 1    
    77   38  161 1    
    78   38  162 1    
    79   38  163 1    
    80   39   40 am   BACKBONE|DICT|INTERRES
    81   39  164 1    
    82   40   41 2    
    83   40   42 1    
    84   42   43 1    
    85   42   44 1    
    86   42  165 1    
    87   43  166 1    
    88   43  167 1    
    89   43  168 1    
    90   44   45 am   BACKBONE|DICT|INTERRES
    91   44  169 1    
    92   45   46 2    
    93   45   47 1    
    94   47   48 1    
    95   47   49 1    
    96   47  170 1    
    97   48  171 1    
    98   48  172 1    
    99   48  173 1    
   100   49   50 am   BACKBONE|DICT|INTERRES
   101   49  174 1    
   102   50   51 2    
   103   50   52 1    
   104   52   53 1    
   105   52   54 1    
   106   52  175 1    
   107   53  176 1    
   108   53  177 1    
   109   53  178 1    
   110   54   55 am   BACKBONE|DICT|INTERRES
   111   54  179 1    
   112   55   56 2    
   113   55   57 1    
   114   57   58 1    
   115   57   59 1    
   116   57  180 1    
   117   58  181 1    
   118   58  182 1    
   119   58  183 1    
   120   59   60 am   BACKBONE|DICT|INTERRES
   121   59  184 1    
   122   60   61 2    
   123   60   62 1    
   124   62   63 1    
   125   62   64 1    
   126   62  185 1    
   127   63  186 1    
   128   63  187 1    
   129   63  188 1    
   130   64   65 am   BACKBONE|DICT|INTERRES
   131   64  189 1    
   132   65   66 2    
   133   67   68 2    
   134   67   69 am   BACKBONE|DICT|INTERRES
   135   69   70 1    
   136   69  190 1    
   137   70   71 1    
   138   70   72 1    
   139   70  191 1    
   140   71  192 1    
   141   71  193 1    
   142   71  194 1    
   143   72   73 2    
   144   72   74 am   BACKBONE|DICT|INTERRES
   145   74   75 1    
   146   74  195 1    
   147   75   76 1    
   148   75   77 1    
   149   75  196 1    
   150   76  197 1    
   151   76  198 1    
   152   76  199 1    
   153   77   78 2    
   154   77   79 am   BACKBONE|DICT|INTERRES
   155   79   80 1    
   156   79  200 1    
   157   80   81 1    
   158   80   82 1    
   159   80  201 1    
   160   81  202 1    
   161   81  203 1    
   162   81  204 1    
   163   82   83 2    
   164   82   84 am   BACKBONE|DICT|INTERRES
   165   84   85 1    
   166   84  205 1    
   167   85   86 1    
   168   85   87 1    
   169   85  206 1    
   170   86  207 1    
   171   86  208 1    
   172   86  209 1    
   173   87   88 2    
   174   87   89 am   BACKBONE|DICT|INTERRES
   175   89   90 1    
   176   89  210 1    
   177   90   91 1    
   178   90   92 1    
   179   90  211 1    
   180   91  212 1    
   181   91  213 1    
   182   91  214 1    
   183   92   93 2    
   184   92   94 am   BACKBONE|DICT|INTERRES
   185   94   95 1    
   186   94  215 1    
   187   95   96 1    
   188   95   97 1    
   189   95  216 1    
   190   96  217 1    
   191   96  218 1    
   192   96  219 1    
   193   97   98 2    
   194   97   99 am   BACKBONE|DICT|INTERRES
   195   99  100 1    
   196   99  220 1    
   197  100  101 1    
   198  100  102 1    
   199  100  221 1    
   200  101  222 1    
   201  101  223 1    
   202  101  224 1    
   203  102  103 2    
   204  102  104 am   BACKBONE|DICT|INTERRES
   205  104  105 1    
   206  104  225 1    
   207  105  106 1    
   208  105  107 1    
   209  105  226 1    
   210  106  227 1    
   211  106  228 1    
   212  106  229 1    
   213  107  108 2    
   214  107  109 am   BACKBONE|DICT|INTERRES
   215  109  110 1    
   216  109  230 1    
   217  110  111 1    
   218  110  112 1    
   219  110  231 1    
   220  111  232 1    
   221  111  233 1    
   222  111  234 1    
   223  112  113 2    
   224  112  114 am   BACKBONE|DICT|INTERRES
   225  114  115 1    
   226  114  235 1    
   227  115  116 1    
   228  115  117 1    
   229  115  236 1    
   230  116  237 1    
   231  116  238 1    
   232  116  239 1    
   233  117  118 2    
   234  117  119 am   BACKBONE|DICT|INTERRES
   235  119  120 1    
   236  119  240 1    
   237  120  121 1    
   238  120  124 1    
   239  120  241 1    
   240  121  122 am   BACKBONE|DICT|INTERRES
   241  121  123 2    
   242  122  242 1    
   243  122  243 1    
   244  124  125 1    
   245  124  244 1    
   246  124  245 1    
   247  125  126 1    
   248  126  246 1    
   249  126  247 1    
@<TRIPOS>SUBSTRUCTURE
     1 UNK         1 GROUP             0       ****    0 ROOT    
