@<TRIPOS>MOLECULE
3R540
247   249    1
SMALL
USER_CHARGES


@<TRIPOS>ATOM
      1 CA         -2.0211  -10.0834  -45.8194 C.3       0 UNK        -0.1800 
      2 C          -1.3965  -10.5038  -47.1416 C.2       0 UNK         0.5000 
      3 O          -0.2516  -10.1464  -47.4173 O.2       0 UNK        -0.5000 
      4 N          -2.1355  -11.2785  -47.9473 N.am      1 UNK        -0.5000 
      5 CA         -1.7383  -11.8002  -49.2657 C.3       1 UNK         0.1400 
      6 C6         -2.9051  -12.5571  -49.9527 C.3       23 UNK        -0.0398 
      7 S7         -3.6267  -13.9005  -48.9351 S.3       23 UNK        -0.2404 
      8 C8         -3.5887  -15.3263  -50.0671 C.3       23 UNK        -0.0205 
      9 C9         -2.1912  -15.9059  -50.2362 C.ar      23 UNK        -0.0193 
     10 C10        -1.4378  -15.6087  -51.3763 C.ar      23 UNK        -0.1150 
     11 C11        -0.1565  -16.1428  -51.5403 C.ar      23 UNK        -0.0193 
     12 C12         0.3680  -16.9806  -50.5526 C.ar      23 UNK        -0.1150 
     13 C13        -0.3813  -17.3036  -49.4195 C.ar      23 UNK        -0.0193 
     14 C14        -1.6619  -16.7635  -49.2653 C.ar      23 UNK        -0.1150 
     15 C15         0.2190  -18.2103  -48.3572 C.3       23 UNK        -0.0205 
     16 S16        -0.0380  -19.9713  -48.7328 S.3       23 UNK        -0.2404 
     17 C17        -1.5503  -20.3537  -47.7858 C.3       23 UNK        -0.0398 
     18 CA         -1.4260  -21.6986  -47.0283 C.3       11 UNK         0.1400 
     19 N          -0.4196  -21.6709  -45.9558 N.am      11 UNK        -0.5000 
     20 C           0.0366  -22.7656  -45.3285 C.2       10 UNK         0.5000 
     21 O          -0.3250  -23.9079  -45.6059 O.2       10 UNK        -0.5000 
     22 CA          1.0145  -22.5621  -44.1572 C.3       10 UNK         0.1400 
     23 CB          2.4402  -22.2895  -44.6595 C.3       10 UNK        -0.1800 
     24 N           0.5837  -21.5059  -43.2409 N.am      10 UNK        -0.5000 
     25 C          -0.5320  -21.5648  -42.4992 C.2       9 UNK         0.5000 
     26 O          -1.2887  -22.5347  -42.4861 O.2       9 UNK        -0.5000 
     27 CA         -0.8931  -20.3215  -41.6656 C.3       9 UNK         0.1400 
     28 CB         -0.1392  -20.3224  -40.3277 C.3       9 UNK        -0.1800 
     29 N          -0.6376  -19.0681  -42.3738 N.am      9 UNK        -0.5000 
     30 C          -1.2379  -18.7001  -43.5148 C.2       8 UNK         0.5000 
     31 O          -2.1172  -19.3564  -44.0729 O.2       8 UNK        -0.5000 
     32 CA         -0.7142  -17.4160  -44.1809 C.3       8 UNK         0.1400 
     33 CB         -1.2849  -16.1666  -43.4932 C.3       8 UNK        -0.1800 
     34 N           0.7498  -17.3566  -44.1992 N.am      8 UNK        -0.5000 
     35 C           1.5357  -18.2587  -44.8074 C.2       7 UNK         0.5000 
     36 O           1.1031  -19.2118  -45.4532 O.2       7 UNK        -0.5000 
     37 CA          3.0539  -18.1066  -44.6176 C.3       7 UNK         0.1400 
     38 CB          3.6439  -17.0600  -45.5737 C.3       7 UNK        -0.1800 
     39 N           3.3912  -17.7633  -43.2384 N.am      7 UNK        -0.5000 
     40 C           3.2688  -18.6067  -42.2038 C.2       6 UNK         0.5000 
     41 O           2.9133  -19.7797  -42.3152 O.2       6 UNK        -0.5000 
     42 CA          3.5495  -18.0240  -40.8072 C.3       6 UNK         0.1400 
     43 CB          5.0531  -18.0606  -40.4960 C.3       6 UNK        -0.1800 
     44 N           3.0573  -16.6521  -40.6674 N.am      6 UNK        -0.5000 
     45 C           1.7613  -16.3093  -40.6817 C.2       5 UNK         0.5000 
     46 O           0.8415  -17.1213  -40.7761 O.2       5 UNK        -0.5000 
     47 CA          1.4446  -14.8038  -40.6268 C.3       5 UNK         0.1400 
     48 CB          1.3695  -14.3205  -39.1709 C.3       5 UNK        -0.1800 
     49 N           2.4145  -13.9871  -41.3628 N.am      5 UNK        -0.5000 
     50 C           2.5749  -14.0198  -42.6915 C.2       4 UNK         0.5000 
     51 O           1.9347  -14.7607  -43.4422 O.2       4 UNK        -0.5000 
     52 CA          3.6588  -13.1063  -43.2746 C.3       4 UNK         0.1400 
     53 CB          5.0001  -13.8561  -43.3738 C.3       4 UNK        -0.1800 
     54 N           3.2283  -12.6547  -44.5932 N.am      4 UNK        -0.5000 
     55 C           3.7087  -11.5953  -45.2556 C.2       3 UNK         0.5000 
     56 O           4.6083  -10.8798  -44.8113 O.2       3 UNK        -0.5000 
     57 CA          3.0683  -11.2334  -46.6164 C.3       3 UNK         0.1400 
     58 CB          4.1296  -10.9784  -47.7067 C.3       3 UNK        -0.1800 
     59 N           2.0382  -12.1675  -47.0897 N.am      3 UNK        -0.5000 
     60 C           2.1902  -13.4401  -47.4887 C.2       2 UNK         0.5000 
     61 O           3.2724  -14.0242  -47.5282 O.2       2 UNK        -0.5000 
     62 CA          0.9106  -14.2136  -47.8591 C.3       2 UNK         0.1400 
     63 CB          0.5314  -15.1589  -46.7158 C.3       2 UNK        -0.1800 
     64 N          -0.2391  -13.3528  -48.1127 N.am      2 UNK        -0.5000 
     65 C          -0.4543  -12.6585  -49.2356 C.2       1 UNK         0.5000 
     66 O           0.3095  -12.6550  -50.2016 O.2       1 UNK        -0.5000 
     67 C          -2.8076  -22.1692  -46.5262 C.2       11 UNK         0.5000 
     68 O          -3.5184  -22.8390  -47.2740 O.2       11 UNK        -0.5000 
     69 N          -3.1621  -21.8346  -45.2770 N.am      12 UNK        -0.5000 
     70 CA         -4.3833  -22.3031  -44.6203 C.3       12 UNK         0.1400 
     71 CB         -4.6432  -21.4694  -43.3566 C.3       12 UNK        -0.1800 
     72 C          -4.3384  -23.8065  -44.2853 C.2       12 UNK         0.5000 
     73 O          -5.3576  -24.4844  -44.4163 O.2       12 UNK        -0.5000 
     74 N          -3.1670  -24.3017  -43.8627 N.am      13 UNK        -0.5000 
     75 CA         -2.9218  -25.7123  -43.5675 C.3       13 UNK         0.1400 
     76 CB         -1.6300  -25.8512  -42.7462 C.3       13 UNK        -0.1800 
     77 C          -2.8604  -26.5647  -44.8466 C.2       13 UNK         0.5000 
     78 O          -3.5985  -27.5433  -44.9669 O.2       13 UNK        -0.5000 
     79 N          -2.0022  -26.1646  -45.7921 N.am      14 UNK        -0.5000 
     80 CA         -1.7958  -26.8204  -47.0818 C.3       14 UNK         0.1400 
     81 CB         -0.3014  -26.7481  -47.4447 C.3       14 UNK        -0.1800 
     82 C          -2.6989  -26.1884  -48.1564 C.2       14 UNK         0.5000 
     83 O          -2.2135  -25.7491  -49.2007 O.2       14 UNK        -0.5000 
     84 N          -4.0094  -26.1573  -47.8847 N.am      15 UNK        -0.5000 
     85 CA         -5.0525  -25.5503  -48.7153 C.3       15 UNK         0.1400 
     86 CB         -6.2740  -25.2554  -47.8274 C.3       15 UNK        -0.1800 
     87 C          -5.4121  -26.3863  -49.9647 C.2       15 UNK         0.5000 
     88 O          -6.5934  -26.5950  -50.2503 O.2       15 UNK        -0.5000 
     89 N          -4.3923  -26.8447  -50.7011 N.am      16 UNK        -0.5000 
     90 CA         -4.5029  -27.5727  -51.9646 C.3       16 UNK         0.1400 
     91 CB         -3.1071  -28.0558  -52.3884 C.3       16 UNK        -0.1800 
     92 C          -5.1386  -26.6743  -53.0388 C.2       16 UNK         0.5000 
     93 O          -4.5249  -25.6833  -53.4393 O.2       16 UNK        -0.5000 
     94 N          -6.3896  -26.9843  -53.4094 N.am      17 UNK        -0.5000 
     95 CA         -7.2795  -26.1709  -54.2514 C.3       17 UNK         0.1400 
     96 CB         -6.7719  -26.1359  -55.7083 C.3       17 UNK        -0.1800 
     97 C          -7.5300  -24.7614  -53.6636 C.2       17 UNK         0.5000 
     98 O          -7.6498  -23.7918  -54.4128 O.2       17 UNK        -0.5000 
     99 N          -7.5648  -24.6853  -52.3231 N.am      18 UNK        -0.5000 
    100 CA        -7.6435  -23.4894  -51.4748 C.3       18 UNK         0.1400 
    101 CB        -8.8907  -22.6400  -51.7973 C.3       18 UNK        -0.1800 
    102 C         -6.3491  -22.6448  -51.4369 C.2       18 UNK         0.5000 
    103 O         -6.3508  -21.5905  -50.7998 O.2       18 UNK        -0.5000 
    104 N         -5.2686  -23.1245  -52.0757 N.am      19 UNK        -0.5000 
    105 CA        -3.9598  -22.4783  -52.2261 C.3       19 UNK         0.1400 
    106 CB        -3.2112  -22.4520  -50.8736 C.3       19 UNK        -0.1800 
    107 C         -4.0523  -21.0982  -52.9199 C.2       19 UNK         0.5000 
    108 O         -4.9553  -20.8837  -53.7321 O.2       19 UNK        -0.5000 
    109 N         -3.1061  -20.1990  -52.6078 N.am      20 UNK        -0.5000 
    110 CA        -3.0491  -18.7915  -53.0249 C.3       20 UNK         0.1400 
    111 CB        -4.2017  -17.9988  -52.3752 C.3       20 UNK        -0.1800 
    112 C         -2.9716  -18.5696  -54.5526 C.2       20 UNK         0.5000 
    113 O         -3.3982  -17.5216  -55.0413 O.2       20 UNK        -0.5000 
    114 N         -2.3953  -19.5349  -55.2865 N.am      21 UNK        -0.5000 
    115 CA        -2.2135  -19.4945  -56.7460 C.3       21 UNK         0.1400 
    116 CB        -1.6547  -20.8456  -57.2172 C.3       21 UNK        -0.1800 
    117 C         -1.3129  -18.3360  -57.2266 C.2       21 UNK         0.5000 
    118 O         -1.4559  -17.8669  -58.3560 O.2       21 UNK        -0.5000 
    119 N         -0.4291  -17.8843  -56.3331 N.am      22 UNK        -0.5000 
    120 CA         0.3703  -16.6550  -56.4084 C.3       22 UNK         0.1400 
    121 C         -0.4435  -15.3273  -56.3284 C.2       22 UNK         0.5000 
    122 N         -1.7214  -15.3312  -55.9664 N.am      22 UNK        -0.7600 
    123 O          0.1008  -14.2635  -56.6108 O.2       22 UNK        -0.5000 
    124 C124        1.5204  -16.6803  -55.3606 C.3       23 UNK        -0.0398 
    125 S125        1.0160  -17.3382  -53.7276 S.3       23 UNK        -0.2404 
    126 C126        0.6600  -15.8244  -52.7842 C.3       23 UNK        -0.0205 
    127 H127       -1.4149  -10.4424  -44.9876 H         1 UNK         0.0600 
    128 H128       -3.0295  -10.4811  -45.7023 H         1 UNK         0.0600 
    129 H129       -2.0749   -8.9965  -45.7594 H         1 UNK         0.0600 
    130 H130       -3.0609  -11.5523  -47.6473 H         1 UNK         0.3000 
    131 H131       -1.5060  -10.9304  -49.8837 H         1 UNK         0.0600 
    132 H132       -3.7068  -11.8513  -50.1736 H         1 UNK         0.0800 
    133 H133       -2.5912  -12.9444  -50.9230 H         1 UNK         0.0800 
    134 H134       -4.0081  -15.0339  -51.0308 H         1 UNK         0.0800 
    135 H135       -4.2502  -16.0992  -49.6733 H         1 UNK         0.0800 
    136 H136       -1.8497  -14.9622  -52.1382 H         1 UNK         0.1150 
    137 H137        1.3591  -17.3945  -50.6749 H         1 UNK         0.1150 
    138 H138       -2.2441  -17.0019  -48.3865 H         1 UNK         0.1150 
    139 H139        1.2917  -18.0258  -48.2834 H         1 UNK         0.0800 
    140 H140       -0.1911  -17.9677  -47.3788 H         1 UNK         0.0800 
    141 H141       -2.3752  -20.3830  -48.5000 H         1 UNK         0.0800 
    142 H142       -1.7815  -19.5492  -47.0861 H         1 UNK         0.0800 
    143 H143       -1.0994  -22.4504  -47.7510 H         1 UNK         0.0600 
    144 H144       -0.0367  -20.7633  -45.7035 H         1 UNK         0.3000 
    145 H145        1.0406  -23.4938  -43.5881 H         1 UNK         0.0600 
    146 H146        3.1384  -22.1864  -43.8287 H         1 UNK         0.0600 
    147 H147        2.7944  -23.1119  -45.2820 H         1 UNK         0.0600 
    148 H148        2.4968  -21.3821  -45.2590 H         1 UNK         0.0600 
    149 H149        1.1779  -20.6880  -43.1730 H         1 UNK         0.3000 
    150 H150       -1.9625  -20.3665  -41.4508 H         1 UNK         0.0600 
    151 H151       -0.3353  -21.2386  -39.7696 H         1 UNK         0.0600 
    152 H152       -0.4492  -19.4862  -39.7006 H         1 UNK         0.0600 
    153 H153        0.9388  -20.2494  -40.4720 H         1 UNK         0.0600 
    154 H154        0.0450  -18.4410  -41.9573 H         1 UNK         0.3000 
    155 H155       -1.0597  -17.4177  -45.2157 H         1 UNK         0.0600 
    156 H156       -2.3747  -16.1663  -43.5335 H         1 UNK         0.0600 
    157 H157       -0.9425  -15.2523  -43.9765 H         1 UNK         0.0600 
    158 H158       -0.9979  -16.1153  -42.4437 H         1 UNK         0.0600 
    159 H159        1.1818  -16.5682  -43.7277 H         1 UNK         0.3000 
    160 H160        3.5139  -19.0689  -44.8525 H         1 UNK         0.0600 
    161 H161        3.2685  -16.0584  -45.3653 H         1 UNK         0.0600 
    162 H162        3.3978  -17.2944  -46.6102 H         1 UNK         0.0600 
    163 H163        4.7308  -17.0286  -45.4991 H         1 UNK         0.0600 
    164 H164        3.6473  -16.8052  -43.0559 H         1 UNK         0.3000 
    165 H165        3.0324  -18.6482  -40.0753 H         1 UNK         0.0600 
    166 H166        5.2538  -17.7177  -39.4809 H         1 UNK         0.0600 
    167 H167        5.4432  -19.0760  -40.5780 H         1 UNK         0.0600 
    168 H168        5.6237  -17.4332  -41.1820 H         1 UNK         0.0600 
    169 H169        3.7490  -15.9226  -40.5802 H         1 UNK         0.3000 
    170 H170        0.4643  -14.6555  -41.0843 H         1 UNK         0.0600 
    171 H171        0.6388  -14.9001  -38.6050 H         1 UNK         0.0600 
    172 H172        2.3298  -14.4169  -38.6628 H         1 UNK         0.0600 
    173 H173        1.0642  -13.2753  -39.1177 H         1 UNK         0.0600 
    174 H174        2.9817  -13.3575  -40.8132 H         1 UNK         0.3000 
    175 H175        3.7722  -12.2385  -42.6215 H         1 UNK         0.0600 
    176 H176        4.9371  -14.7034  -44.0571 H         1 UNK         0.0600 
    177 H177        5.7952  -13.2014  -43.7303 H         1 UNK         0.0600 
    178 H178        5.3107  -14.2384  -42.4007 H         1 UNK         0.0600 
    179 H179        2.4791  -13.1990  -44.9994 H         1 UNK         0.3000 
    180 H180        2.5452  -10.2906  -46.4503 H         1 UNK         0.0600 
    181 H181        4.7552  -11.8543  -47.8791 H         1 UNK         0.0600 
    182 H182        4.7913  -10.1589  -47.4242 H         1 UNK         0.0600 
    183 H183        3.6640  -10.7052  -48.6537 H         1 UNK         0.0600 
    184 H184        1.1047  -11.7740  -47.1283 H         1 UNK         0.3000 
    185 H185        1.1133  -14.8023  -48.7556 H         1 UNK         0.0600 
    186 H186        1.2629  -15.9587  -46.6306 H         1 UNK         0.0600 
    187 H187        0.4925  -14.6388  -45.7587 H         1 UNK         0.0600 
    188 H188       -0.4410  -15.6210  -46.8808 H         1 UNK         0.0600 
    189 H189       -0.9343  -13.2962  -47.3831 H         1 UNK         0.3000 
    190 H190       -2.5629  -21.2138  -44.7426 H         1 UNK         0.3000 
    191 H191       -5.2185  -22.1421  -45.3054 H         1 UNK         0.0600 
    192 H192       -4.7384  -20.4101  -43.5959 H         1 UNK         0.0600 
    193 H193       -5.5690  -21.7778  -42.8696 H         1 UNK         0.0600 
    194 H194       -3.8387  -21.5769  -42.6294 H         1 UNK         0.0600 
    195 H195       -2.3934  -23.6629  -43.7086 H         1 UNK         0.3000 
    196 H196       -3.7474  -26.0840  -42.9569 H         1 UNK         0.0600 
    197 H197       -1.4225  -26.8971  -42.5170 H         1 UNK         0.0600 
    198 H198       -1.7098  -25.3198  -41.7977 H         1 UNK         0.0600 
    199 H199       -0.7655  -25.4523  -43.2779 H         1 UNK         0.0600 
    200 H200       -1.4563  -25.3177  -45.6384 H         1 UNK         0.3000 
    201 H201       -2.0656  -27.8759  -47.0096 H         1 UNK         0.0600 
    202 H202        0.3157  -27.1952  -46.6653 H         1 UNK         0.0600 
    203 H203        0.0308  -25.7188  -47.5850 H         1 UNK         0.0600 
    204 H204       -0.0976  -27.2877  -48.3703 H         1 UNK         0.0600 
    205 H205       -4.3151  -26.5596  -47.0088 H         1 UNK         0.3000 
    206 H206       -4.6827  -24.5915  -49.0811 H         1 UNK         0.0600 
    207 H207       -6.0088  -24.5793  -47.0152 H         1 UNK         0.0600 
    208 H208       -7.0719  -24.7727  -48.3911 H         1 UNK         0.0600 
    209 H209       -6.6830  -26.1663  -47.3889 H         1 UNK         0.0600 
    210 H210       -3.4570  -26.5762  -50.4093 H         1 UNK         0.3000 
    211 H211       -5.1352  -28.4482  -51.8039 H         1 UNK         0.0600 
    212 H212       -2.4145  -27.2235  -52.5212 H         1 UNK         0.0600 
    213 H213       -3.1530  -28.6000  -53.3325 H         1 UNK         0.0600 
    214 H214       -2.6809  -28.7291  -51.6445 H         1 UNK         0.0600 
    215 H215       -6.8189  -27.7992  -52.9924 H         1 UNK         0.3000 
    216 H216       -8.2476  -26.6738  -54.2521 H         1 UNK         0.0600 
    217 H217       -7.4979  -25.6534  -56.3637 H         1 UNK         0.0600 
    218 H218       -6.6086  -27.1425  -56.0930 H         1 UNK         0.0600 
    219 H219       -5.8348  -25.5859  -55.7991 H         1 UNK         0.0600 
    220 H220       -7.4227  -25.5475  -51.8054 H         1 UNK         0.3000 
    221 H221       -7.7737  -23.8682  -50.4612 H         1 UNK         0.0600 
    222 H222       -8.7979  -22.1262  -52.7542 H         1 UNK         0.0600 
    223 H223       -9.7910  -23.2536  -51.8285 H         1 UNK         0.0600 
    224 H224       -9.0474  -21.8751  -51.0360 H         1 UNK         0.0600 
    225 H225       -5.3654  -23.9906  -52.5931 H         1 UNK         0.3000 
    226 H226       -3.3899  -23.1148  -52.9042 H         1 UNK         0.0600 
    227 H227       -3.1616  -23.4491  -50.4382 H         1 UNK         0.0600 
    228 H228       -2.1804  -22.1151  -50.9856 H         1 UNK         0.0600 
    229 H229       -3.6996  -21.7986  -50.1500 H         1 UNK         0.0600 
    230 H230       -2.3914  -20.4800  -51.9514 H         1 UNK         0.3000 
    231 H231       -2.1154  -18.3952  -52.6225 H         1 UNK         0.0600 
    232 H232       -5.1742  -18.3134  -52.7547 H         1 UNK         0.0600 
    233 H233       -4.1047  -16.9314  -52.5739 H         1 UNK         0.0600 
    234 H234       -4.2060  -18.1289  -51.2931 H         1 UNK         0.0600 
    235 H235       -2.0722  -20.3652  -54.8121 H         1 UNK         0.3000 
    236 H236       -3.1968  -19.3522  -57.1990 H         1 UNK         0.0600 
    237 H237       -2.3264  -21.6635  -56.9557 H         1 UNK         0.0600 
    238 H238       -1.5324  -20.8613  -58.3011 H         1 UNK         0.0600 
    239 H239       -0.6803  -21.0546  -56.7737 H         1 UNK         0.0600 
    240 H240       -0.3940  -18.3475  -55.4365 H         1 UNK         0.3000 
    241 H241        0.8331  -16.6434  -57.3968 H         1 UNK         0.0600 
    242 H242       -2.2219  -14.4578  -55.9347 H         1 UNK         0.3800 
    243 H243       -2.2076  -16.1887  -55.7216 H         1 UNK         0.3800 
    244 H244        2.3115  -17.3344  -55.7294 H         1 UNK         0.0800 
    245 H245        1.9914  -15.7025  -55.2429 H         1 UNK         0.0800 
    246 H246        1.5958  -15.3449  -52.4940 H         1 UNK         0.0800 
    247 H247        0.1268  -15.1142  -53.4174 H         1 UNK         0.0800 
@<TRIPOS>BOND
     1    1    2 1    
     2    1  127 1    
     3    1  128 1    
     4    1  129 1    
     5    2    3 2    
     6    2    4 am   BACKBONE|DICT|INTERRES
     7    4    5 1    
     8    4  130 1    
     9    5    6 1    
    10    5   65 1    
    11    5  131 1    
    12    6    7 1    
    13    6  132 1    
    14    6  133 1    
    15    7    8 1    
    16    8    9 1    
    17    8  134 1    
    18    8  135 1    
    19    9   10 ar   
    20    9   14 ar   
    21   10   11 ar   
    22   10  136 1    
    23   11   12 ar   
    24   11  126 1    
    25   12   13 ar   
    26   12  137 1    
    27   13   14 ar   
    28   13   15 1    
    29   14  138 1    
    30   15   16 1    
    31   15  139 1    
    32   15  140 1    
    33   16   17 1    
    34   17   18 1    
    35   17  141 1    
    36   17  142 1    
    37   18   19 1    
    38   18   67 1    
    39   18  143 1    
    40   19   20 am   BACKBONE|DICT|INTERRES
    41   19  144 1    
    42   20   21 2    
    43   20   22 1    
    44   22   23 1    
    45   22   24 1    
    46   22  145 1    
    47   23  146 1    
    48   23  147 1    
    49   23  148 1    
    50   24   25 am   BACKBONE|DICT|INTERRES
    51   24  149 1    
    52   25   26 2    
    53   25   27 1    
    54   27   28 1    
    55   27   29 1    
    56   27  150 1    
    57   28  151 1    
    58   28  152 1    
    59   28  153 1    
    60   29   30 am   BACKBONE|DICT|INTERRES
    61   29  154 1    
    62   30   31 2    
    63   30   32 1    
    64   32   33 1    
    65   32   34 1    
    66   32  155 1    
    67   33  156 1    
    68   33  157 1    
    69   33  158 1    
    70   34   35 am   BACKBONE|DICT|INTERRES
    71   34  159 1    
    72   35   36 2    
    73   35   37 1    
    74   37   38 1    
    75   37   39 1    
    76   37  160 1    
    77   38  161 1    
    78   38  162 1    
    79   38  163 1    
    80   39   40 am   BACKBONE|DICT|INTERRES
    81   39  164 1    
    82   40   41 2    
    83   40   42 1    
    84   42   43 1    
    85   42   44 1    
    86   42  165 1    
    87   43  166 1    
    88   43  167 1    
    89   43  168 1    
    90   44   45 am   BACKBONE|DICT|INTERRES
    91   44  169 1    
    92   45   46 2    
    93   45   47 1    
    94   47   48 1    
    95   47   49 1    
    96   47  170 1    
    97   48  171 1    
    98   48  172 1    
    99   48  173 1    
   100   49   50 am   BACKBONE|DICT|INTERRES
   101   49  174 1    
   102   50   51 2    
   103   50   52 1    
   104   52   53 1    
   105   52   54 1    
   106   52  175 1    
   107   53  176 1    
   108   53  177 1    
   109   53  178 1    
   110   54   55 am   BACKBONE|DICT|INTERRES
   111   54  179 1    
   112   55   56 2    
   113   55   57 1    
   114   57   58 1    
   115   57   59 1    
   116   57  180 1    
   117   58  181 1    
   118   58  182 1    
   119   58  183 1    
   120   59   60 am   BACKBONE|DICT|INTERRES
   121   59  184 1    
   122   60   61 2    
   123   60   62 1    
   124   62   63 1    
   125   62   64 1    
   126   62  185 1    
   127   63  186 1    
   128   63  187 1    
   129   63  188 1    
   130   64   65 am   BACKBONE|DICT|INTERRES
   131   64  189 1    
   132   65   66 2    
   133   67   68 2    
   134   67   69 am   BACKBONE|DICT|INTERRES
   135   69   70 1    
   136   69  190 1    
   137   70   71 1    
   138   70   72 1    
   139   70  191 1    
   140   71  192 1    
   141   71  193 1    
   142   71  194 1    
   143   72   73 2    
   144   72   74 am   BACKBONE|DICT|INTERRES
   145   74   75 1    
   146   74  195 1    
   147   75   76 1    
   148   75   77 1    
   149   75  196 1    
   150   76  197 1    
   151   76  198 1    
   152   76  199 1    
   153   77   78 2    
   154   77   79 am   BACKBONE|DICT|INTERRES
   155   79   80 1    
   156   79  200 1    
   157   80   81 1    
   158   80   82 1    
   159   80  201 1    
   160   81  202 1    
   161   81  203 1    
   162   81  204 1    
   163   82   83 2    
   164   82   84 am   BACKBONE|DICT|INTERRES
   165   84   85 1    
   166   84  205 1    
   167   85   86 1    
   168   85   87 1    
   169   85  206 1    
   170   86  207 1    
   171   86  208 1    
   172   86  209 1    
   173   87   88 2    
   174   87   89 am   BACKBONE|DICT|INTERRES
   175   89   90 1    
   176   89  210 1    
   177   90   91 1    
   178   90   92 1    
   179   90  211 1    
   180   91  212 1    
   181   91  213 1    
   182   91  214 1    
   183   92   93 2    
   184   92   94 am   BACKBONE|DICT|INTERRES
   185   94   95 1    
   186   94  215 1    
   187   95   96 1    
   188   95   97 1    
   189   95  216 1    
   190   96  217 1    
   191   96  218 1    
   192   96  219 1    
   193   97   98 2    
   194   97   99 am   BACKBONE|DICT|INTERRES
   195   99  100 1    
   196   99  220 1    
   197  100  101 1    
   198  100  102 1    
   199  100  221 1    
   200  101  222 1    
   201  101  223 1    
   202  101  224 1    
   203  102  103 2    
   204  102  104 am   BACKBONE|DICT|INTERRES
   205  104  105 1    
   206  104  225 1    
   207  105  106 1    
   208  105  107 1    
   209  105  226 1    
   210  106  227 1    
   211  106  228 1    
   212  106  229 1    
   213  107  108 2    
   214  107  109 am   BACKBONE|DICT|INTERRES
   215  109  110 1    
   216  109  230 1    
   217  110  111 1    
   218  110  112 1    
   219  110  231 1    
   220  111  232 1    
   221  111  233 1    
   222  111  234 1    
   223  112  113 2    
   224  112  114 am   BACKBONE|DICT|INTERRES
   225  114  115 1    
   226  114  235 1    
   227  115  116 1    
   228  115  117 1    
   229  115  236 1    
   230  116  237 1    
   231  116  238 1    
   232  116  239 1    
   233  117  118 2    
   234  117  119 am   BACKBONE|DICT|INTERRES
   235  119  120 1    
   236  119  240 1    
   237  120  121 1    
   238  120  124 1    
   239  120  241 1    
   240  121  122 am   BACKBONE|DICT|INTERRES
   241  121  123 2    
   242  122  242 1    
   243  122  243 1    
   244  124  125 1    
   245  124  244 1    
   246  124  245 1    
   247  125  126 1    
   248  126  246 1    
   249  126  247 1    
@<TRIPOS>SUBSTRUCTURE
     1 UNK         1 GROUP             0       ****    0 ROOT    
