@<TRIPOS>MOLECULE
3R540
247   249    1
SMALL
USER_CHARGES


@<TRIPOS>ATOM
      1 CA         -6.5120  -12.9120  -44.0692 C.3       0 UNK        -0.1800 
      2 C          -5.2049  -13.1891  -44.7956 C.2       0 UNK         0.5000 
      3 O          -4.2260  -12.4724  -44.5890 O.2       0 UNK        -0.5000 
      4 N          -5.1748  -14.2369  -45.6299 N.am      1 UNK        -0.5000 
      5 CA         -4.0303  -14.6699  -46.4481 C.3       1 UNK         0.1400 
      6 C6         -4.4029  -15.8659  -47.3589 C.3       23 UNK        -0.0398 
      7 S7         -5.0096  -17.3260  -46.4351 S.3       23 UNK        -0.2404 
      8 C8         -4.0137  -18.6793  -47.1305 C.3       23 UNK        -0.0205 
      9 C9         -2.5220  -18.5218  -46.8844 C.ar      23 UNK        -0.0193 
     10 C10        -1.6690  -18.1998  -47.9415 C.ar      23 UNK        -0.1150 
     11 C11        -0.2885  -18.1284  -47.7440 C.ar      23 UNK        -0.0193 
     12 C12         0.2387  -18.3666  -46.4702 C.ar      23 UNK        -0.1150 
     13 C13        -0.6069  -18.6749  -45.3991 C.ar      23 UNK        -0.0193 
     14 C14        -1.9873  -18.7475  -45.6138 C.ar      23 UNK        -0.1150 
     15 C15        -0.0321  -18.9033  -44.0067 C.3       23 UNK        -0.0205 
     16 S16         0.4992  -20.6227  -43.7310 S.3       23 UNK        -0.2404 
     17 C17        -1.0897  -21.5187  -43.6849 C.3       23 UNK        -0.0398 
     18 CA         -1.2669  -22.4215  -44.9269 C.3       11 UNK         0.1400 
     19 N          -0.2531  -23.4836  -44.9734 N.am      11 UNK        -0.5000 
     20 C          -0.1060  -24.3920  -45.9467 C.2       10 UNK         0.5000 
     21 O          -0.8659  -24.4845  -46.9120 O.2       10 UNK        -0.5000 
     22 CA          1.0801  -25.3642  -45.7830 C.3       10 UNK         0.1400 
     23 CB          1.2880  -26.2768  -47.0104 C.3       10 UNK        -0.1800 
     24 N           2.3272  -24.6804  -45.4139 N.am      10 UNK        -0.5000 
     25 C           2.9877  -23.7671  -46.1412 C.2       9 UNK         0.5000 
     26 O           2.6221  -23.3713  -47.2509 O.2       9 UNK        -0.5000 
     27 CA          4.3044  -23.2456  -45.5323 C.3       9 UNK         0.1400 
     28 CB          5.3993  -24.3236  -45.6030 C.3       9 UNK        -0.1800 
     29 N           4.7730  -22.0652  -46.2553 N.am      9 UNK        -0.5000 
     30 C           4.3947  -20.8103  -45.9924 C.2       8 UNK         0.5000 
     31 O           3.7263  -20.4819  -45.0101 O.2       8 UNK        -0.5000 
     32 CA          4.8090  -19.7623  -47.0415 C.3       8 UNK         0.1400 
     33 CB          3.8323  -19.7861  -48.2248 C.3       8 UNK        -0.1800 
     34 N           4.8531  -18.4038  -46.5064 N.am      8 UNK        -0.5000 
     35 C           5.7477  -17.9408  -45.6300 C.2       7 UNK         0.5000 
     36 O           6.6546  -18.6290  -45.1584 O.2       7 UNK        -0.5000 
     37 CA          5.6486  -16.4547  -45.2265 C.3       7 UNK         0.1400 
     38 CB          6.4074  -15.5702  -46.2341 C.3       7 UNK        -0.1800 
     39 N           4.2995  -15.9186  -44.9830 N.am      7 UNK        -0.5000 
     40 C           3.2749  -15.7476  -45.8325 C.2       6 UNK         0.5000 
     41 O           3.2540  -16.1977  -46.9802 O.2       6 UNK        -0.5000 
     42 CA          2.0656  -14.9454  -45.2915 C.3       6 UNK         0.1400 
     43 CB          2.4839  -13.8473  -44.2868 C.3       6 UNK        -0.1800 
     44 N           1.2369  -14.3510  -46.3467 N.am      6 UNK        -0.5000 
     45 C           1.6326  -13.4894  -47.2978 C.2       5 UNK         0.5000 
     46 O           2.7824  -13.0655  -47.4244 O.2       5 UNK        -0.5000 
     47 CA          0.5356  -12.9629  -48.2320 C.3       5 UNK         0.1400 
     48 CB         -0.0865  -14.0848  -49.0809 C.3       5 UNK        -0.1800 
     49 N          -0.4976  -12.3061  -47.4339 N.am      5 UNK        -0.5000 
     50 C          -0.6821  -10.9809  -47.3804 C.2       4 UNK         0.5000 
     51 O          -0.0528  -10.1705  -48.0623 O.2       4 UNK        -0.5000 
     52 CA         -1.7470  -10.4605  -46.3992 C.3       4 UNK         0.1400 
     53 CB         -3.1381  -10.4798  -47.0508 C.3       4 UNK        -0.1800 
     54 N          -1.7936  -11.1961  -45.1351 N.am      4 UNK        -0.5000 
     55 C          -0.8485  -11.1436  -44.1850 C.2       3 UNK         0.5000 
     56 O           0.2054  -10.5185  -44.3040 O.2       3 UNK        -0.5000 
     57 CA         -1.1283  -11.9037  -42.8778 C.3       3 UNK         0.1400 
     58 CB         -2.0735  -11.0950  -41.9752 C.3       3 UNK        -0.1800 
     59 N          -1.7263  -13.2084  -43.1509 N.am      3 UNK        -0.5000 
     60 C          -1.1307  -14.3871  -42.9280 C.2       2 UNK         0.5000 
     61 O          -0.0454  -14.5098  -42.3608 O.2       2 UNK        -0.5000 
     62 CA         -1.8537  -15.6571  -43.4186 C.3       2 UNK         0.1400 
     63 CB         -2.4387  -16.4427  -42.2353 C.3       2 UNK        -0.1800 
     64 N          -2.9195  -15.4090  -44.3872 N.am      2 UNK        -0.5000 
     65 C          -2.7471  -14.9450  -45.6318 C.2       1 UNK         0.5000 
     66 O          -1.6463  -14.6709  -46.1117 O.2       1 UNK        -0.5000 
     67 C          -2.7170  -22.9454  -45.0142 C.2       11 UNK         0.5000 
     68 O          -3.5630  -22.2776  -45.6061 O.2       11 UNK        -0.5000 
     69 N          -2.9744  -24.1414  -44.4645 N.am      12 UNK        -0.5000 
     70 CA         -4.2696  -24.8218  -44.5378 C.3       12 UNK         0.1400 
     71 CB         -4.2704  -26.0141  -43.5696 C.3       12 UNK        -0.1800 
     72 C          -4.6302  -25.2820  -45.9641 C.2       12 UNK         0.5000 
     73 O          -5.8004  -25.2223  -46.3425 O.2       12 UNK        -0.5000 
     74 N          -3.6213  -25.7070  -46.7381 N.am      13 UNK        -0.5000 
     75 CA         -3.7694  -26.0653  -48.1484 C.3       13 UNK         0.1400 
     76 CB         -2.5977  -26.9545  -48.5918 C.3       13 UNK        -0.1800 
     77 C          -3.8692  -24.8079  -49.0246 C.2       13 UNK         0.5000 
     78 O          -4.7083  -24.7595  -49.9229 O.2       13 UNK        -0.5000 
     79 N          -3.0526  -23.7917  -48.7123 N.am      14 UNK        -0.5000 
     80 CA         -3.0604  -22.4847  -49.3696 C.3       14 UNK         0.1400 
     81 CB         -1.8930  -21.6404  -48.8479 C.3       14 UNK        -0.1800 
     82 C          -4.3933  -21.7308  -49.2028 C.2       14 UNK         0.5000 
     83 O          -4.7980  -21.0166  -50.1168 O.2       14 UNK        -0.5000 
     84 N          -5.0758  -21.9161  -48.0649 N.am      15 UNK        -0.5000 
     85 CA         -6.4114  -21.3743  -47.8073 C.3       15 UNK         0.1400 
     86 CB         -6.7773  -21.5867  -46.3307 C.3       15 UNK        -0.1800 
     87 C          -7.4880  -21.9780  -48.7281 C.2       15 UNK         0.5000 
     88 O          -8.3802  -21.2544  -49.1708 O.2       15 UNK        -0.5000 
     89 N          -7.3723  -23.2807  -49.0198 N.am      16 UNK        -0.5000 
     90 CA         -8.2538  -23.9996  -49.9396 C.3       16 UNK         0.1400 
     91 CB         -8.1649  -25.5075  -49.6573 C.3       16 UNK        -0.1800 
     92 C          -7.9236  -23.6942  -51.4122 C.2       16 UNK         0.5000 
     93 O          -8.8378  -23.5218  -52.2188 O.2       16 UNK        -0.5000 
     94 N          -6.6246  -23.6221  -51.7317 N.am      17 UNK        -0.5000 
     95 CA         -6.1003  -23.3489  -53.0718 C.3       17 UNK         0.1400 
     96 CB         -4.6409  -23.8250  -53.1325 C.3       17 UNK        -0.1800 
     97 C          -6.2070  -21.8716  -53.5044 C.2       17 UNK         0.5000 
     98 O          -6.0437  -21.5912  -54.6924 O.2       17 UNK        -0.5000 
     99 N          -6.4707  -20.9680  -52.5477 N.am      18 UNK        -0.5000 
    100 CA        -6.4966  -19.5066  -52.6737 C.3       18 UNK         0.1400 
    101 CB        -7.6083  -19.0403  -53.6373 C.3       18 UNK        -0.1800 
    102 C         -5.0988  -18.9635  -53.0304 C.2       18 UNK         0.5000 
    103 O         -4.9029  -18.3799  -54.0980 O.2       18 UNK        -0.5000 
    104 N         -4.1511  -19.2202  -52.1189 N.am      19 UNK        -0.5000 
    105 CA        -2.7034  -19.0716  -52.2542 C.3       19 UNK         0.1400 
    106 CB        -2.2815  -17.6130  -52.5404 C.3       19 UNK        -0.1800 
    107 C         -2.1768  -20.1206  -53.2491 C.2       19 UNK         0.5000 
    108 O         -2.3141  -21.3118  -52.9669 O.2       19 UNK        -0.5000 
    109 N         -1.5862  -19.6809  -54.3701 N.am      20 UNK        -0.5000 
    110 CA        -1.0308  -20.4646  -55.4853 C.3       20 UNK         0.1400 
    111 CB        -2.1076  -21.3424  -56.1534 C.3       20 UNK        -0.1800 
    112 C          0.2171  -21.2862  -55.1078 C.2       20 UNK         0.5000 
    113 O          1.2777  -21.0932  -55.7041 O.2       20 UNK        -0.5000 
    114 N          0.0898  -22.1377  -54.0823 N.am      21 UNK        -0.5000 
    115 CA         1.1651  -22.9174  -53.4613 C.3       21 UNK         0.1400 
    116 CB         0.5459  -23.8615  -52.4181 C.3       21 UNK        -0.1800 
    117 C          2.2538  -22.0383  -52.8116 C.2       21 UNK         0.5000 
    118 O          3.3903  -22.4853  -52.6548 O.2       21 UNK        -0.5000 
    119 N          1.8816  -20.7994  -52.4709 N.am      22 UNK        -0.5000 
    120 CA         2.7530  -19.7409  -51.9446 C.3       22 UNK         0.1400 
    121 C          3.7514  -19.1515  -52.9855 C.2       22 UNK         0.5000 
    122 N          3.6199  -19.4321  -54.2780 N.am      22 UNK        -0.7600 
    123 O          4.6674  -18.4254  -52.6106 O.2       22 UNK        -0.5000 
    124 C124        1.9221  -18.6069  -51.2881 C.3       23 UNK        -0.0398 
    125 S125        0.7430  -19.2324  -50.0440 S.3       23 UNK        -0.2404 
    126 C126        0.6217  -17.8116  -48.9188 C.3       23 UNK        -0.0205 
    127 H127       -7.2873  -13.6283  -44.3415 H         1 UNK         0.0600 
    128 H128       -6.8701  -11.9120  -44.3135 H         1 UNK         0.0600 
    129 H129       -6.3595  -12.9669  -42.9914 H         1 UNK         0.0600 
    130 H130       -6.0063  -14.8018  -45.7321 H         1 UNK         0.3000 
    131 H131       -3.7915  -13.8328  -47.1059 H         1 UNK         0.0600 
    132 H132       -5.1916  -15.5626  -48.0485 H         1 UNK         0.0800 
    133 H133       -3.5582  -16.1360  -47.9932 H         1 UNK         0.0800 
    134 H134       -4.3371  -19.6134  -46.6719 H         1 UNK         0.0800 
    135 H135       -4.2251  -18.7698  -48.1971 H         1 UNK         0.0800 
    136 H136       -2.0736  -18.0322  -48.9296 H         1 UNK         0.1150 
    137 H137        1.3068  -18.3168  -46.3118 H         1 UNK         0.1150 
    138 H138       -2.6529  -18.9832  -44.7961 H         1 UNK         0.1150 
    139 H139        0.8267  -18.2473  -43.8572 H         1 UNK         0.0800 
    140 H140       -0.7584  -18.6286  -43.2416 H         1 UNK         0.0800 
    141 H141       -1.9063  -20.8016  -43.5969 H         1 UNK         0.0800 
    142 H142       -1.1213  -22.1153  -42.7717 H         1 UNK         0.0800 
    143 H143       -1.1063  -21.8018  -45.8099 H         1 UNK         0.0600 
    144 H144        0.4336  -23.4633  -44.2338 H         1 UNK         0.3000 
    145 H145        0.8259  -26.0097  -44.9412 H         1 UNK         0.0600 
    146 H146        2.1345  -26.9477  -46.8649 H         1 UNK         0.0600 
    147 H147        0.4094  -26.8983  -47.1857 H         1 UNK         0.0600 
    148 H148        1.4667  -25.7027  -47.9201 H         1 UNK         0.0600 
    149 H149        2.7143  -24.9444  -44.5183 H         1 UNK         0.3000 
    150 H150        4.1279  -22.9914  -44.4849 H         1 UNK         0.0600 
    151 H151        5.5908  -24.6368  -46.6302 H         1 UNK         0.0600 
    152 H152        5.1173  -25.2121  -45.0370 H         1 UNK         0.0600 
    153 H153        6.3375  -23.9596  -45.1835 H         1 UNK         0.0600 
    154 H154        5.2707  -22.2493  -47.1140 H         1 UNK         0.3000 
    155 H155        5.8074  -20.0112  -47.4072 H         1 UNK         0.0600 
    156 H156        2.8126  -19.5872  -47.8952 H         1 UNK         0.0600 
    157 H157        3.8288  -20.7603  -48.7153 H         1 UNK         0.0600 
    158 H158        4.0972  -19.0417  -48.9756 H         1 UNK         0.0600 
    159 H159        4.1444  -17.7503  -46.8321 H         1 UNK         0.3000 
    160 H160        6.1666  -16.3675  -44.2701 H         1 UNK         0.0600 
    161 H161        5.9439  -15.5905  -47.2211 H         1 UNK         0.0600 
    162 H162        7.4383  -15.9069  -46.3512 H         1 UNK         0.0600 
    163 H163        6.4404  -14.5327  -45.9014 H         1 UNK         0.0600 
    164 H164        4.1719  -15.5512  -44.0507 H         1 UNK         0.3000 
    165 H165        1.4241  -15.6578  -44.7712 H         1 UNK         0.0600 
    166 H166        1.6435  -13.2000  -44.0372 H         1 UNK         0.0600 
    167 H167        2.8400  -14.2769  -43.3502 H         1 UNK         0.0600 
    168 H168        3.2752  -13.2117  -44.6864 H         1 UNK         0.0600 
    169 H169        0.2591  -14.6279  -46.3387 H         1 UNK         0.3000 
    170 H170        1.0009  -12.2551  -48.9212 H         1 UNK         0.0600 
    171 H171        0.6756  -14.5724  -49.6896 H         1 UNK         0.0600 
    172 H172       -0.5622  -14.8525  -48.4715 H         1 UNK         0.0600 
    173 H173       -0.8401  -13.6880  -49.7610 H         1 UNK         0.0600 
    174 H174       -1.0286  -12.9071  -46.8133 H         1 UNK         0.3000 
    175 H175       -1.5011   -9.4215  -46.1694 H         1 UNK         0.0600 
    176 H176       -3.4533  -11.4930  -47.2989 H         1 UNK         0.0600 
    177 H177       -3.8896  -10.0488  -46.3890 H         1 UNK         0.0600 
    178 H178       -3.1454   -9.8986  -47.9737 H         1 UNK         0.0600 
    179 H179       -2.6600  -11.6938  -44.9411 H         1 UNK         0.3000 
    180 H180       -0.1768  -12.0160  -42.3540 H         1 UNK         0.0600 
    181 H181       -1.6591  -10.1096  -41.7586 H         1 UNK         0.0600 
    182 H182       -2.2306  -11.5988  -41.0214 H         1 UNK         0.0600 
    183 H183       -3.0495  -10.9474  -42.4395 H         1 UNK         0.0600 
    184 H184       -2.6229  -13.1983  -43.6240 H         1 UNK         0.3000 
    185 H185       -1.1005  -16.2736  -43.9092 H         1 UNK         0.0600 
    186 H186       -2.8913  -17.3776  -42.5666 H         1 UNK         0.0600 
    187 H187       -1.6630  -16.6967  -41.5116 H         1 UNK         0.0600 
    188 H188       -3.2021  -15.8671  -41.7105 H         1 UNK         0.0600 
    189 H189       -3.8632  -15.5929  -44.0796 H         1 UNK         0.3000 
    190 H190       -2.2263  -24.6307  -43.9959 H         1 UNK         0.3000 
    191 H191       -5.0403  -24.1190  -44.2136 H         1 UNK         0.0600 
    192 H192       -4.0952  -25.6894  -42.5438 H         1 UNK         0.0600 
    193 H193       -5.2318  -26.5293  -43.5864 H         1 UNK         0.0600 
    194 H194       -3.5023  -26.7442  -43.8276 H         1 UNK         0.0600 
    195 H195       -2.6756  -25.6509  -46.3852 H         1 UNK         0.3000 
    196 H196       -4.6914  -26.6378  -48.2720 H         1 UNK         0.0600 
    197 H197       -2.7327  -27.2853  -49.6223 H         1 UNK         0.0600 
    198 H198       -2.5218  -27.8470  -47.9707 H         1 UNK         0.0600 
    199 H199       -1.6444  -26.4285  -48.5425 H         1 UNK         0.0600 
    200 H200       -2.3573  -23.9358  -47.9850 H         1 UNK         0.3000 
    201 H201       -2.9027  -22.6518  -50.4364 H         1 UNK         0.0600 
    202 H202       -1.8009  -20.7194  -49.4212 H         1 UNK         0.0600 
    203 H203       -0.9435  -22.1702  -48.9289 H         1 UNK         0.0600 
    204 H204       -2.0374  -21.3579  -47.8067 H         1 UNK         0.0600 
    205 H205       -4.6344  -22.4278  -47.3083 H         1 UNK         0.3000 
    206 H206       -6.3838  -20.2997  -47.9983 H         1 UNK         0.0600 
    207 H207       -6.0730  -21.0794  -45.6715 H         1 UNK         0.0600 
    208 H208       -7.7688  -21.1881  -46.1124 H         1 UNK         0.0600 
    209 H209       -6.7815  -22.6441  -46.0648 H         1 UNK         0.0600 
    210 H210       -6.5961  -23.7993  -48.6321 H         1 UNK         0.3000 
    211 H211       -9.2830  -23.6844  -49.7546 H         1 UNK         0.0600 
    212 H212       -7.1589  -25.8939  -49.8228 H         1 UNK         0.0600 
    213 H213       -8.8410  -26.0654  -50.3062 H         1 UNK         0.0600 
    214 H214       -8.4428  -25.7320  -48.6273 H         1 UNK         0.0600 
    215 H215       -5.9369  -23.8469  -51.0167 H         1 UNK         0.3000 
    216 H216       -6.6755  -23.9361  -53.7905 H         1 UNK         0.0600 
    217 H217       -4.2073  -23.6500  -54.1179 H         1 UNK         0.0600 
    218 H218       -4.5643  -24.8927  -52.9267 H         1 UNK         0.0600 
    219 H219       -4.0224  -23.3004  -52.4053 H         1 UNK         0.0600 
    220 H220       -6.5121  -21.3150  -51.5984 H         1 UNK         0.3000 
    221 H221       -6.7410  -19.1185  -51.6836 H         1 UNK         0.0600 
    222 H222       -7.4207  -19.3501  -54.6654 H         1 UNK         0.0600 
    223 H223       -8.5785  -19.4377  -53.3393 H         1 UNK         0.0600 
    224 H224       -7.6875  -17.9527  -53.6367 H         1 UNK         0.0600 
    225 H225       -4.4341  -19.7954  -51.3254 H         1 UNK         0.3000 
    226 H226       -2.2828  -19.3398  -51.2849 H         1 UNK         0.0600 
    227 H227       -1.1955  -17.5133  -52.5271 H         1 UNK         0.0600 
    228 H228       -2.6353  -17.2518  -53.5059 H         1 UNK         0.0600 
    229 H229       -2.6712  -16.9416  -51.7751 H         1 UNK         0.0600 
    230 H230       -1.5265  -18.6794  -54.4901 H         1 UNK         0.3000 
    231 H231       -0.7088  -19.7319  -56.2269 H         1 UNK         0.0600 
    232 H232       -2.4779  -22.1222  -55.4875 H         1 UNK         0.0600 
    233 H233       -1.7099  -21.8361  -57.0408 H         1 UNK         0.0600 
    234 H234       -2.9619  -20.7434  -56.4691 H         1 UNK         0.0600 
    235 H235       -0.8191  -22.1663  -53.6248 H         1 UNK         0.3000 
    236 H236        1.6418  -23.5172  -54.2389 H         1 UNK         0.0600 
    237 H237       -0.1777  -24.5360  -52.8762 H         1 UNK         0.0600 
    238 H238        1.3108  -24.4781  -51.9442 H         1 UNK         0.0600 
    239 H239        0.0345  -23.3078  -51.6290 H         1 UNK         0.0600 
    240 H240        0.9186  -20.5420  -52.6193 H         1 UNK         0.3000 
    241 H241        3.3673  -20.1952  -51.1658 H         1 UNK         0.0600 
    242 H242        2.8766  -20.0319  -54.6120 H         1 UNK         0.3800 
    243 H243        4.2779  -19.0442  -54.9354 H         1 UNK         0.3800 
    244 H244        2.5868  -17.8846  -50.8108 H         1 UNK         0.0800 
    245 H245        1.3597  -18.0552  -52.0431 H         1 UNK         0.0800 
    246 H246        1.6153  -17.5286  -48.5709 H         1 UNK         0.0800 
    247 H247        0.2257  -16.9584  -49.4686 H         1 UNK         0.0800 
@<TRIPOS>BOND
     1    1    2 1    
     2    1  127 1    
     3    1  128 1    
     4    1  129 1    
     5    2    3 2    
     6    2    4 am   BACKBONE|DICT|INTERRES
     7    4    5 1    
     8    4  130 1    
     9    5    6 1    
    10    5   65 1    
    11    5  131 1    
    12    6    7 1    
    13    6  132 1    
    14    6  133 1    
    15    7    8 1    
    16    8    9 1    
    17    8  134 1    
    18    8  135 1    
    19    9   10 ar   
    20    9   14 ar   
    21   10   11 ar   
    22   10  136 1    
    23   11   12 ar   
    24   11  126 1    
    25   12   13 ar   
    26   12  137 1    
    27   13   14 ar   
    28   13   15 1    
    29   14  138 1    
    30   15   16 1    
    31   15  139 1    
    32   15  140 1    
    33   16   17 1    
    34   17   18 1    
    35   17  141 1    
    36   17  142 1    
    37   18   19 1    
    38   18   67 1    
    39   18  143 1    
    40   19   20 am   BACKBONE|DICT|INTERRES
    41   19  144 1    
    42   20   21 2    
    43   20   22 1    
    44   22   23 1    
    45   22   24 1    
    46   22  145 1    
    47   23  146 1    
    48   23  147 1    
    49   23  148 1    
    50   24   25 am   BACKBONE|DICT|INTERRES
    51   24  149 1    
    52   25   26 2    
    53   25   27 1    
    54   27   28 1    
    55   27   29 1    
    56   27  150 1    
    57   28  151 1    
    58   28  152 1    
    59   28  153 1    
    60   29   30 am   BACKBONE|DICT|INTERRES
    61   29  154 1    
    62   30   31 2    
    63   30   32 1    
    64   32   33 1    
    65   32   34 1    
    66   32  155 1    
    67   33  156 1    
    68   33  157 1    
    69   33  158 1    
    70   34   35 am   BACKBONE|DICT|INTERRES
    71   34  159 1    
    72   35   36 2    
    73   35   37 1    
    74   37   38 1    
    75   37   39 1    
    76   37  160 1    
    77   38  161 1    
    78   38  162 1    
    79   38  163 1    
    80   39   40 am   BACKBONE|DICT|INTERRES
    81   39  164 1    
    82   40   41 2    
    83   40   42 1    
    84   42   43 1    
    85   42   44 1    
    86   42  165 1    
    87   43  166 1    
    88   43  167 1    
    89   43  168 1    
    90   44   45 am   BACKBONE|DICT|INTERRES
    91   44  169 1    
    92   45   46 2    
    93   45   47 1    
    94   47   48 1    
    95   47   49 1    
    96   47  170 1    
    97   48  171 1    
    98   48  172 1    
    99   48  173 1    
   100   49   50 am   BACKBONE|DICT|INTERRES
   101   49  174 1    
   102   50   51 2    
   103   50   52 1    
   104   52   53 1    
   105   52   54 1    
   106   52  175 1    
   107   53  176 1    
   108   53  177 1    
   109   53  178 1    
   110   54   55 am   BACKBONE|DICT|INTERRES
   111   54  179 1    
   112   55   56 2    
   113   55   57 1    
   114   57   58 1    
   115   57   59 1    
   116   57  180 1    
   117   58  181 1    
   118   58  182 1    
   119   58  183 1    
   120   59   60 am   BACKBONE|DICT|INTERRES
   121   59  184 1    
   122   60   61 2    
   123   60   62 1    
   124   62   63 1    
   125   62   64 1    
   126   62  185 1    
   127   63  186 1    
   128   63  187 1    
   129   63  188 1    
   130   64   65 am   BACKBONE|DICT|INTERRES
   131   64  189 1    
   132   65   66 2    
   133   67   68 2    
   134   67   69 am   BACKBONE|DICT|INTERRES
   135   69   70 1    
   136   69  190 1    
   137   70   71 1    
   138   70   72 1    
   139   70  191 1    
   140   71  192 1    
   141   71  193 1    
   142   71  194 1    
   143   72   73 2    
   144   72   74 am   BACKBONE|DICT|INTERRES
   145   74   75 1    
   146   74  195 1    
   147   75   76 1    
   148   75   77 1    
   149   75  196 1    
   150   76  197 1    
   151   76  198 1    
   152   76  199 1    
   153   77   78 2    
   154   77   79 am   BACKBONE|DICT|INTERRES
   155   79   80 1    
   156   79  200 1    
   157   80   81 1    
   158   80   82 1    
   159   80  201 1    
   160   81  202 1    
   161   81  203 1    
   162   81  204 1    
   163   82   83 2    
   164   82   84 am   BACKBONE|DICT|INTERRES
   165   84   85 1    
   166   84  205 1    
   167   85   86 1    
   168   85   87 1    
   169   85  206 1    
   170   86  207 1    
   171   86  208 1    
   172   86  209 1    
   173   87   88 2    
   174   87   89 am   BACKBONE|DICT|INTERRES
   175   89   90 1    
   176   89  210 1    
   177   90   91 1    
   178   90   92 1    
   179   90  211 1    
   180   91  212 1    
   181   91  213 1    
   182   91  214 1    
   183   92   93 2    
   184   92   94 am   BACKBONE|DICT|INTERRES
   185   94   95 1    
   186   94  215 1    
   187   95   96 1    
   188   95   97 1    
   189   95  216 1    
   190   96  217 1    
   191   96  218 1    
   192   96  219 1    
   193   97   98 2    
   194   97   99 am   BACKBONE|DICT|INTERRES
   195   99  100 1    
   196   99  220 1    
   197  100  101 1    
   198  100  102 1    
   199  100  221 1    
   200  101  222 1    
   201  101  223 1    
   202  101  224 1    
   203  102  103 2    
   204  102  104 am   BACKBONE|DICT|INTERRES
   205  104  105 1    
   206  104  225 1    
   207  105  106 1    
   208  105  107 1    
   209  105  226 1    
   210  106  227 1    
   211  106  228 1    
   212  106  229 1    
   213  107  108 2    
   214  107  109 am   BACKBONE|DICT|INTERRES
   215  109  110 1    
   216  109  230 1    
   217  110  111 1    
   218  110  112 1    
   219  110  231 1    
   220  111  232 1    
   221  111  233 1    
   222  111  234 1    
   223  112  113 2    
   224  112  114 am   BACKBONE|DICT|INTERRES
   225  114  115 1    
   226  114  235 1    
   227  115  116 1    
   228  115  117 1    
   229  115  236 1    
   230  116  237 1    
   231  116  238 1    
   232  116  239 1    
   233  117  118 2    
   234  117  119 am   BACKBONE|DICT|INTERRES
   235  119  120 1    
   236  119  240 1    
   237  120  121 1    
   238  120  124 1    
   239  120  241 1    
   240  121  122 am   BACKBONE|DICT|INTERRES
   241  121  123 2    
   242  122  242 1    
   243  122  243 1    
   244  124  125 1    
   245  124  244 1    
   246  124  245 1    
   247  125  126 1    
   248  126  246 1    
   249  126  247 1    
@<TRIPOS>SUBSTRUCTURE
     1 UNK         1 GROUP             0       ****    0 ROOT    
