@<TRIPOS>MOLECULE
3R540
247   249    1
SMALL
USER_CHARGES


@<TRIPOS>ATOM
      1 CA          5.0253  -16.3733  -47.6860 C.3       0 UNK        -0.1800 
      2 C           4.4859  -14.9749  -47.9468 C.2       0 UNK         0.5000 
      3 O           5.0248  -14.2569  -48.7880 O.2       0 UNK        -0.5000 
      4 N           3.4317  -14.5881  -47.2166 N.am      1 UNK        -0.5000 
      5 CA          2.7354  -13.2936  -47.3013 C.3       1 UNK         0.1400 
      6 C6          2.0227  -13.0481  -48.6614 C.3       23 UNK        -0.0398 
      7 S7          0.7000  -14.2680  -48.9585 S.3       23 UNK        -0.2404 
      8 C8          1.3543  -15.2239  -50.3678 C.3       23 UNK        -0.0205 
      9 C9          0.6184  -16.5401  -50.6261 C.ar      23 UNK        -0.0193 
     10 C10         1.3230  -17.6119  -51.1814 C.ar      23 UNK        -0.1150 
     11 C11         0.6982  -18.8399  -51.4196 C.ar      23 UNK        -0.0193 
     12 C12        -0.6538  -18.9936  -51.0946 C.ar      23 UNK        -0.1150 
     13 C13        -1.3819  -17.9289  -50.5565 C.ar      23 UNK        -0.0193 
     14 C14        -0.7424  -16.7048  -50.3382 C.ar      23 UNK        -0.1150 
     15 C15        -2.8663  -18.0754  -50.2438 C.3       23 UNK        -0.0205 
     16 S16        -3.2338  -17.8419  -48.4726 S.3       23 UNK        -0.2404 
     17 C17        -3.3754  -19.5344  -47.7978 C.3       23 UNK        -0.0398 
     18 CA         -2.2116  -20.4967  -48.1285 C.3       11 UNK         0.1400 
     19 N          -0.9211  -20.0512  -47.6014 N.am      11 UNK        -0.5000 
     20 C           0.2534  -20.6010  -47.9390 C.2       10 UNK         0.5000 
     21 O           0.3688  -21.5144  -48.7558 O.2       10 UNK        -0.5000 
     22 CA          1.5047  -20.0880  -47.2070 C.3       10 UNK         0.1400 
     23 CB          2.0089  -18.7780  -47.8266 C.3       10 UNK        -0.1800 
     24 N           1.2907  -19.9123  -45.7701 N.am      10 UNK        -0.5000 
     25 C           1.0192  -20.9118  -44.9187 C.2       9 UNK         0.5000 
     26 O           0.9293  -22.0911  -45.2579 O.2       9 UNK        -0.5000 
     27 CA          0.7753  -20.5350  -43.4463 C.3       9 UNK         0.1400 
     28 CB          2.1032  -20.2605  -42.7251 C.3       9 UNK        -0.1800 
     29 N          -0.1158  -19.3862  -43.2923 N.am      9 UNK        -0.5000 
     30 C          -1.3940  -19.3556  -43.6969 C.2       8 UNK         0.5000 
     31 O          -1.9770  -20.3102  -44.2118 O.2       8 UNK        -0.5000 
     32 CA         -2.1276  -18.0093  -43.5596 C.3       8 UNK         0.1400 
     33 CB         -2.5807  -17.7734  -42.1112 C.3       8 UNK        -0.1800 
     34 N          -1.3223  -16.8755  -44.0156 N.am      8 UNK        -0.5000 
     35 C          -0.8152  -16.7554  -45.2516 C.2       7 UNK         0.5000 
     36 O          -0.9732  -17.5870  -46.1421 O.2       7 UNK        -0.5000 
     37 CA          0.0732  -15.5327  -45.5163 C.3       7 UNK         0.1400 
     38 CB         -0.7738  -14.2513  -45.5985 C.3       7 UNK        -0.1800 
     39 N           1.1150  -15.3899  -44.5002 N.am      7 UNK        -0.5000 
     40 C           2.0837  -16.2874  -44.2683 C.2       6 UNK         0.5000 
     41 O           2.2717  -17.2833  -44.9628 O.2       6 UNK        -0.5000 
     42 CA          2.9813  -16.0456  -43.0444 C.3       6 UNK         0.1400 
     43 CB          4.1504  -15.1149  -43.4003 C.3       6 UNK        -0.1800 
     44 N           2.2321  -15.4973  -41.9141 N.am      6 UNK        -0.5000 
     45 C           1.3108  -16.1794  -41.2181 C.2       5 UNK         0.5000 
     46 O           1.0194  -17.3555  -41.4360 O.2       5 UNK        -0.5000 
     47 CA          0.5622  -15.3987  -40.1229 C.3       5 UNK         0.1400 
     48 CB          1.3926  -15.3415  -38.8322 C.3       5 UNK        -0.1800 
     49 N           0.2225  -14.0384  -40.5444 N.am      5 UNK        -0.5000 
     50 C          -0.6704  -13.7477  -41.5011 C.2       4 UNK         0.5000 
     51 O          -1.3297  -14.5979  -42.0998 O.2       4 UNK        -0.5000 
     52 CA         -0.8104  -12.2614  -41.8869 C.3       4 UNK         0.1400 
     53 CB         -1.8006  -11.5515  -40.9519 C.3       4 UNK        -0.1800 
     54 N           0.4648  -11.5332  -41.8923 N.am      4 UNK        -0.5000 
     55 C           1.5017  -11.8369  -42.6830 C.2       3 UNK         0.5000 
     56 O           1.4941  -12.7828  -43.4771 O.2       3 UNK        -0.5000 
     57 CA          2.7679  -10.9766  -42.5482 C.3       3 UNK         0.1400 
     58 CB          3.4672  -11.2249  -41.1988 C.3       3 UNK        -0.1800 
     59 N           3.6519  -11.3544  -43.6417 N.am      3 UNK        -0.5000 
     60 C           4.6979  -10.6866  -44.1355 C.2       2 UNK         0.5000 
     61 O           5.0924   -9.6063  -43.6956 O.2       2 UNK        -0.5000 
     62 CA          5.4294  -11.3471  -45.3252 C.3       2 UNK         0.1400 
     63 CB          6.7324  -12.0085  -44.8500 C.3       2 UNK        -0.1800 
     64 N           4.6136  -12.3597  -46.0057 N.am      2 UNK        -0.5000 
     65 C           3.5944  -12.0927  -46.8356 C.2       1 UNK         0.5000 
     66 O           3.2966  -10.9492  -47.1839 O.2       1 UNK        -0.5000 
     67 C          -2.5483  -21.9310  -47.6773 C.2       11 UNK         0.5000 
     68 O          -2.9699  -22.7299  -48.5107 O.2       11 UNK        -0.5000 
     69 N          -2.3202  -22.2534  -46.3951 N.am      12 UNK        -0.5000 
     70 CA         -2.5188  -23.5973  -45.8435 C.3       12 UNK         0.1400 
     71 CB         -2.3550  -23.5584  -44.3170 C.3       12 UNK        -0.1800 
     72 C          -1.5808  -24.6503  -46.4644 C.2       12 UNK         0.5000 
     73 O          -1.9995  -25.7895  -46.6732 O.2       12 UNK        -0.5000 
     74 N          -0.3403  -24.2460  -46.7712 N.am      13 UNK        -0.5000 
     75 CA          0.6475  -25.0596  -47.4787 C.3       13 UNK         0.1400 
     76 CB          2.0323  -24.4059  -47.3567 C.3       13 UNK        -0.1800 
     77 C           0.2870  -25.3000  -48.9575 C.2       13 UNK         0.5000 
     78 O           0.6823  -26.3300  -49.5054 O.2       13 UNK        -0.5000 
     79 N          -0.4525  -24.3661  -49.5755 N.am      14 UNK        -0.5000 
     80 CA         -0.9558  -24.4815  -50.9443 C.3       14 UNK         0.1400 
     81 CB         -1.4856  -23.1242  -51.4377 C.3       14 UNK        -0.1800 
     82 C          -2.0296  -25.5768  -51.0569 C.2       14 UNK         0.5000 
     83 O          -1.8874  -26.4744  -51.8885 O.2       14 UNK        -0.5000 
     84 N          -3.0518  -25.5060  -50.1942 N.am      15 UNK        -0.5000 
     85 CA         -4.1418  -26.4726  -50.0756 C.3       15 UNK         0.1400 
     86 CB         -4.9915  -26.5093  -51.3631 C.3       15 UNK        -0.1800 
     87 C          -5.0363  -26.0931  -48.8884 C.2       15 UNK         0.5000 
     88 O          -4.9967  -24.9534  -48.4181 O.2       15 UNK        -0.5000 
     89 N          -5.8877  -27.0364  -48.4655 N.am      16 UNK        -0.5000 
     90 CA         -6.9927  -26.7853  -47.5406 C.3       16 UNK         0.1400 
     91 CB         -7.6729  -28.1157  -47.1824 C.3       16 UNK        -0.1800 
     92 C          -7.9951  -25.7992  -48.1709 C.2       16 UNK         0.5000 
     93 O          -8.4880  -26.0590  -49.2708 O.2       16 UNK        -0.5000 
     94 N          -8.2250  -24.6716  -47.4847 N.am      17 UNK        -0.5000 
     95 CA         -8.9978  -23.5086  -47.9399 C.3       17 UNK         0.1400 
     96 CB        -10.4847  -23.8691  -48.1464 C.3       17 UNK        -0.1800 
     97 C          -8.3728  -22.7942  -49.1617 C.2       17 UNK         0.5000 
     98 O          -9.0970  -22.1891  -49.9538 O.2       17 UNK        -0.5000 
     99 N          -7.0383  -22.8705  -49.2905 N.am      18 UNK        -0.5000 
    100 CA        -6.1589  -22.2298  -50.2796 C.3       18 UNK         0.1400 
    101 CB        -6.3116  -20.6970  -50.2510 C.3       18 UNK        -0.1800 
    102 C         -6.2837  -22.7599  -51.7210 C.2       18 UNK         0.5000 
    103 O         -5.2665  -22.8443  -52.4108 O.2       18 UNK        -0.5000 
    104 N         -7.5056  -23.0998  -52.1533 N.am      19 UNK        -0.5000 
    105 CA        -7.8908  -23.5764  -53.4848 C.3       19 UNK         0.1400 
    106 CB        -7.3684  -25.0105  -53.7223 C.3       19 UNK        -0.1800 
    107 C         -7.4822  -22.5723  -54.5828 C.2       19 UNK         0.5000 
    108 O         -8.1263  -21.5306  -54.7149 O.2       19 UNK        -0.5000 
    109 N         -6.4123  -22.8843  -55.3270 N.am      20 UNK        -0.5000 
    110 CA        -5.8033  -22.0166  -56.3377 C.3       20 UNK         0.1400 
    111 CB        -4.8428  -22.8558  -57.1947 C.3       20 UNK        -0.1800 
    112 C         -5.0646  -20.7996  -55.7430 C.2       20 UNK         0.5000 
    113 O         -4.8027  -19.8432  -56.4750 O.2       20 UNK        -0.5000 
    114 N         -4.7227  -20.8617  -54.4449 N.am      21 UNK        -0.5000 
    115 CA        -4.0994  -19.8071  -53.6353 C.3       21 UNK         0.1400 
    116 CB        -5.1082  -18.6644  -53.3978 C.3       21 UNK        -0.1800 
    117 C         -2.7485  -19.3083  -54.1920 C.2       21 UNK         0.5000 
    118 O         -2.4100  -18.1352  -54.0313 O.2       21 UNK        -0.5000 
    119 N         -2.0199  -20.2141  -54.8584 N.am      22 UNK        -0.5000 
    120 CA        -0.7487  -19.9691  -55.5628 C.3       22 UNK         0.1400 
    121 C         -0.8616  -19.0076  -56.7877 C.2       22 UNK         0.5000 
    122 N         -2.0498  -18.7526  -57.3260 N.am      22 UNK        -0.7600 
    123 O          0.1446  -18.5108  -57.2870 O.2       22 UNK        -0.5000 
    124 C124        0.4212  -19.6035  -54.6040 C.3       23 UNK        -0.0398 
    125 S125        0.6882  -20.9013  -53.3464 S.3       23 UNK        -0.2404 
    126 C126        1.5116  -19.9962  -51.9936 C.3       23 UNK        -0.0205 
    127 H127        4.7765  -17.0318  -48.5182 H         1 UNK         0.0600 
    128 H128        4.6118  -16.8010  -46.7722 H         1 UNK         0.0600 
    129 H129        6.1101  -16.3459  -47.5829 H         1 UNK         0.0600 
    130 H130        3.0247  -15.2508  -46.5723 H         1 UNK         0.3000 
    131 H131        1.9570  -13.3499  -46.5423 H         1 UNK         0.0600 
    132 H132        1.5435  -12.0680  -48.6777 H         1 UNK         0.0800 
    133 H133        2.7353  -13.0474  -49.4870 H         1 UNK         0.0800 
    134 H134        2.4092  -15.4301  -50.1810 H         1 UNK         0.0800 
    135 H135        1.3079  -14.6097  -51.2678 H         1 UNK         0.0800 
    136 H136        2.3712  -17.4926  -51.4172 H         1 UNK         0.1150 
    137 H137       -1.1388  -19.9415  -51.2736 H         1 UNK         0.1150 
    138 H138       -1.3149  -15.8844  -49.9307 H         1 UNK         0.1150 
    139 H139       -3.4049  -17.3105  -50.8039 H         1 UNK         0.0800 
    140 H140       -3.2567  -19.0328  -50.5880 H         1 UNK         0.0800 
    141 H141       -4.3172  -19.9453  -48.1605 H         1 UNK         0.0800 
    142 H142       -3.4861  -19.4451  -46.7155 H         1 UNK         0.0800 
    143 H143       -2.1151  -20.5468  -49.2125 H         1 UNK         0.0600 
    144 H144       -0.9339  -19.2544  -46.9672 H         1 UNK         0.3000 
    145 H145        2.2887  -20.8377  -47.3310 H         1 UNK         0.0600 
    146 H146        2.9171  -18.4371  -47.3327 H         1 UNK         0.0600 
    147 H147        2.2494  -18.9184  -48.8797 H         1 UNK         0.0600 
    148 H148        1.2667  -17.9815  -47.7581 H         1 UNK         0.0600 
    149 H149        1.3746  -18.9646  -45.4146 H         1 UNK         0.3000 
    150 H150        0.2981  -21.3891  -42.9616 H         1 UNK         0.0600 
    151 H151        2.7766  -21.1145  -42.8082 H         1 UNK         0.0600 
    152 H152        1.9435  -20.0737  -41.6631 H         1 UNK         0.0600 
    153 H153        2.6171  -19.3946  -43.1430 H         1 UNK         0.0600 
    154 H154        0.2762  -18.5626  -42.8464 H         1 UNK         0.3000 
    155 H155       -3.0169  -18.0532  -44.1915 H         1 UNK         0.0600 
    156 H156       -1.7324  -17.6797  -41.4328 H         1 UNK         0.0600 
    157 H157       -3.1977  -18.5993  -41.7553 H         1 UNK         0.0600 
    158 H158       -3.1752  -16.8633  -42.0284 H         1 UNK         0.0600 
    159 H159       -1.1588  -16.1326  -43.3426 H         1 UNK         0.3000 
    160 H160        0.5676  -15.6872  -46.4758 H         1 UNK         0.0600 
    161 H161       -1.3403  -14.0770  -44.6849 H         1 UNK         0.0600 
    162 H162       -1.4908  -14.3182  -46.4177 H         1 UNK         0.0600 
    163 H163       -0.1619  -13.3689  -45.7768 H         1 UNK         0.0600 
    164 H164        1.0751  -14.5550  -43.9220 H         1 UNK         0.3000 
    165 H165        3.3965  -17.0087  -42.7403 H         1 UNK         0.0600 
    166 H166        4.8099  -14.9641  -42.5455 H         1 UNK         0.0600 
    167 H167        4.7536  -15.5380  -44.2047 H         1 UNK         0.0600 
    168 H168        3.8019  -14.1386  -43.7304 H         1 UNK         0.0600 
    169 H169        2.3784  -14.5234  -41.6981 H         1 UNK         0.3000 
    170 H170       -0.3661  -15.9326  -39.9084 H         1 UNK         0.0600 
    171 H171        1.6482  -16.3448  -38.4886 H         1 UNK         0.0600 
    172 H172        2.3260  -14.7954  -38.9747 H         1 UNK         0.0600 
    173 H173        0.8386  -14.8556  -38.0288 H         1 UNK         0.0600 
    174 H174        0.7195  -13.2806  -40.1004 H         1 UNK         0.3000 
    175 H175       -1.2157  -12.2250  -42.9002 H         1 UNK         0.0600 
    176 H176       -1.4354  -11.5217  -39.9246 H         1 UNK         0.0600 
    177 H177       -1.9817  -10.5261  -41.2744 H         1 UNK         0.0600 
    178 H178       -2.7643  -12.0627  -40.9433 H         1 UNK         0.0600 
    179 H179        0.5393  -10.7480  -41.2615 H         1 UNK         0.3000 
    180 H180        2.4931   -9.9248  -42.6474 H         1 UNK         0.0600 
    181 H181        3.7451  -12.2727  -41.0773 H         1 UNK         0.0600 
    182 H182        2.8221  -10.9548  -40.3622 H         1 UNK         0.0600 
    183 H183        4.3749  -10.6282  -41.1078 H         1 UNK         0.0600 
    184 H184        3.3522  -12.2011  -44.1068 H         1 UNK         0.3000 
    185 H185        5.6826  -10.5602  -46.0388 H         1 UNK         0.0600 
    186 H186        7.3852  -11.2817  -44.3646 H         1 UNK         0.0600 
    187 H187        6.5403  -12.8076  -44.1327 H         1 UNK         0.0600 
    188 H188        7.2871  -12.4336  -45.6868 H         1 UNK         0.0600 
    189 H189        4.8192  -13.3249  -45.7962 H         1 UNK         0.3000 
    190 H190       -1.9953  -21.5403  -45.7480 H         1 UNK         0.3000 
    191 H191       -3.5439  -23.9000  -46.0680 H         1 UNK         0.0600 
    192 H192       -1.3592  -23.2205  -44.0283 H         1 UNK         0.0600 
    193 H193       -2.5072  -24.5467  -43.8815 H         1 UNK         0.0600 
    194 H194       -3.0818  -22.8865  -43.8602 H         1 UNK         0.0600 
    195 H195       -0.0466  -23.3140  -46.4947 H         1 UNK         0.3000 
    196 H196        0.6918  -26.0349  -46.9896 H         1 UNK         0.0600 
    197 H197        2.7939  -25.0071  -47.8547 H         1 UNK         0.0600 
    198 H198        2.3298  -24.3044  -46.3129 H         1 UNK         0.0600 
    199 H199        2.0506  -23.4138  -47.8079 H         1 UNK         0.0600 
    200 H200       -0.7077  -23.5306  -49.0642 H         1 UNK         0.3000 
    201 H201       -0.1139  -24.7598  -51.5819 H         1 UNK         0.0600 
    202 H202       -0.7821  -22.3238  -51.2125 H         1 UNK         0.0600 
    203 H203       -2.4435  -22.8609  -50.9912 H         1 UNK         0.0600 
    204 H204       -1.6322  -23.1383  -52.5181 H         1 UNK         0.0600 
    205 H205       -3.0988  -24.7365  -49.5308 H         1 UNK         0.3000 
    206 H206       -3.7131  -27.4581  -49.8849 H         1 UNK         0.0600 
    207 H207       -4.4247  -26.8638  -52.2229 H         1 UNK         0.0600 
    208 H208       -5.8501  -27.1736  -51.2586 H         1 UNK         0.0600 
    209 H209       -5.3751  -25.5191  -51.6006 H         1 UNK         0.0600 
    210 H210       -5.8863  -27.9364  -48.9227 H         1 UNK         0.3000 
    211 H211       -6.5812  -26.3523  -46.6263 H         1 UNK         0.0600 
    212 H212       -8.0840  -28.6096  -48.0639 H         1 UNK         0.0600 
    213 H213       -8.4943  -27.9562  -46.4827 H         1 UNK         0.0600 
    214 H214       -6.9714  -28.8027  -46.7088 H         1 UNK         0.0600 
    215 H215       -7.7576  -24.5535  -46.5963 H         1 UNK         0.3000 
    216 H216       -8.9532  -22.7850  -47.1249 H         1 UNK         0.0600 
    217 H217      -11.0838  -22.9731  -48.3130 H         1 UNK         0.0600 
    218 H218      -10.8943  -24.3722  -47.2706 H         1 UNK         0.0600 
    219 H219      -10.6309  -24.5210  -49.0078 H         1 UNK         0.0600 
    220 H220       -6.5424  -23.4684  -48.6383 H         1 UNK         0.3000 
    221 H221       -5.1457  -22.4652  -49.9532 H         1 UNK         0.0600 
    222 H222       -7.2355  -20.3721  -50.7307 H         1 UNK         0.0600 
    223 H223       -6.3194  -20.3151  -49.2311 H         1 UNK         0.0600 
    224 H224       -5.4864  -20.2160  -50.7752 H         1 UNK         0.0600 
    225 H225       -8.2721  -22.9183  -51.5113 H         1 UNK         0.3000 
    226 H226       -8.9809  -23.6184  -53.4936 H         1 UNK         0.0600 
    227 H227       -7.7342  -25.6890  -52.9513 H         1 UNK         0.0600 
    228 H228       -7.7144  -25.3975  -54.6815 H         1 UNK         0.0600 
    229 H229       -6.2799  -25.0649  -53.7180 H         1 UNK         0.0600 
    230 H230       -5.9323  -23.7500  -55.1282 H         1 UNK         0.3000 
    231 H231       -6.5958  -21.6339  -56.9842 H         1 UNK         0.0600 
    232 H232       -5.3657  -23.6790  -57.6820 H         1 UNK         0.0600 
    233 H233       -4.0338  -23.2776  -56.5970 H         1 UNK         0.0600 
    234 H234       -4.3890  -22.2508  -57.9810 H         1 UNK         0.0600 
    235 H235       -4.9585  -21.7065  -53.9300 H         1 UNK         0.3000 
    236 H236       -3.8744  -20.2614  -52.6698 H         1 UNK         0.0600 
    237 H237       -5.3391  -18.1342  -54.3223 H         1 UNK         0.0600 
    238 H238       -6.0444  -19.0438  -52.9884 H         1 UNK         0.0600 
    239 H239       -4.7192  -17.9316  -52.6917 H         1 UNK         0.0600 
    240 H240       -2.3926  -21.1479  -54.9426 H         1 UNK         0.3000 
    241 H241       -0.4917  -20.9279  -56.0140 H         1 UNK         0.0600 
    242 H242       -2.8989  -19.1464  -56.9358 H         1 UNK         0.3800 
    243 H243       -2.1083  -18.1402  -58.1239 H         1 UNK         0.3800 
    244 H244        0.2301  -18.6452  -54.1203 H         1 UNK         0.0800 
    245 H245        1.3545  -19.4869  -55.1566 H         1 UNK         0.0800 
    246 H246        2.4785  -19.6448  -52.3564 H         1 UNK         0.0800 
    247 H247        1.7221  -20.6990  -51.1862 H         1 UNK         0.0800 
@<TRIPOS>BOND
     1    1    2 1    
     2    1  127 1    
     3    1  128 1    
     4    1  129 1    
     5    2    3 2    
     6    2    4 am   BACKBONE|DICT|INTERRES
     7    4    5 1    
     8    4  130 1    
     9    5    6 1    
    10    5   65 1    
    11    5  131 1    
    12    6    7 1    
    13    6  132 1    
    14    6  133 1    
    15    7    8 1    
    16    8    9 1    
    17    8  134 1    
    18    8  135 1    
    19    9   10 ar   
    20    9   14 ar   
    21   10   11 ar   
    22   10  136 1    
    23   11   12 ar   
    24   11  126 1    
    25   12   13 ar   
    26   12  137 1    
    27   13   14 ar   
    28   13   15 1    
    29   14  138 1    
    30   15   16 1    
    31   15  139 1    
    32   15  140 1    
    33   16   17 1    
    34   17   18 1    
    35   17  141 1    
    36   17  142 1    
    37   18   19 1    
    38   18   67 1    
    39   18  143 1    
    40   19   20 am   BACKBONE|DICT|INTERRES
    41   19  144 1    
    42   20   21 2    
    43   20   22 1    
    44   22   23 1    
    45   22   24 1    
    46   22  145 1    
    47   23  146 1    
    48   23  147 1    
    49   23  148 1    
    50   24   25 am   BACKBONE|DICT|INTERRES
    51   24  149 1    
    52   25   26 2    
    53   25   27 1    
    54   27   28 1    
    55   27   29 1    
    56   27  150 1    
    57   28  151 1    
    58   28  152 1    
    59   28  153 1    
    60   29   30 am   BACKBONE|DICT|INTERRES
    61   29  154 1    
    62   30   31 2    
    63   30   32 1    
    64   32   33 1    
    65   32   34 1    
    66   32  155 1    
    67   33  156 1    
    68   33  157 1    
    69   33  158 1    
    70   34   35 am   BACKBONE|DICT|INTERRES
    71   34  159 1    
    72   35   36 2    
    73   35   37 1    
    74   37   38 1    
    75   37   39 1    
    76   37  160 1    
    77   38  161 1    
    78   38  162 1    
    79   38  163 1    
    80   39   40 am   BACKBONE|DICT|INTERRES
    81   39  164 1    
    82   40   41 2    
    83   40   42 1    
    84   42   43 1    
    85   42   44 1    
    86   42  165 1    
    87   43  166 1    
    88   43  167 1    
    89   43  168 1    
    90   44   45 am   BACKBONE|DICT|INTERRES
    91   44  169 1    
    92   45   46 2    
    93   45   47 1    
    94   47   48 1    
    95   47   49 1    
    96   47  170 1    
    97   48  171 1    
    98   48  172 1    
    99   48  173 1    
   100   49   50 am   BACKBONE|DICT|INTERRES
   101   49  174 1    
   102   50   51 2    
   103   50   52 1    
   104   52   53 1    
   105   52   54 1    
   106   52  175 1    
   107   53  176 1    
   108   53  177 1    
   109   53  178 1    
   110   54   55 am   BACKBONE|DICT|INTERRES
   111   54  179 1    
   112   55   56 2    
   113   55   57 1    
   114   57   58 1    
   115   57   59 1    
   116   57  180 1    
   117   58  181 1    
   118   58  182 1    
   119   58  183 1    
   120   59   60 am   BACKBONE|DICT|INTERRES
   121   59  184 1    
   122   60   61 2    
   123   60   62 1    
   124   62   63 1    
   125   62   64 1    
   126   62  185 1    
   127   63  186 1    
   128   63  187 1    
   129   63  188 1    
   130   64   65 am   BACKBONE|DICT|INTERRES
   131   64  189 1    
   132   65   66 2    
   133   67   68 2    
   134   67   69 am   BACKBONE|DICT|INTERRES
   135   69   70 1    
   136   69  190 1    
   137   70   71 1    
   138   70   72 1    
   139   70  191 1    
   140   71  192 1    
   141   71  193 1    
   142   71  194 1    
   143   72   73 2    
   144   72   74 am   BACKBONE|DICT|INTERRES
   145   74   75 1    
   146   74  195 1    
   147   75   76 1    
   148   75   77 1    
   149   75  196 1    
   150   76  197 1    
   151   76  198 1    
   152   76  199 1    
   153   77   78 2    
   154   77   79 am   BACKBONE|DICT|INTERRES
   155   79   80 1    
   156   79  200 1    
   157   80   81 1    
   158   80   82 1    
   159   80  201 1    
   160   81  202 1    
   161   81  203 1    
   162   81  204 1    
   163   82   83 2    
   164   82   84 am   BACKBONE|DICT|INTERRES
   165   84   85 1    
   166   84  205 1    
   167   85   86 1    
   168   85   87 1    
   169   85  206 1    
   170   86  207 1    
   171   86  208 1    
   172   86  209 1    
   173   87   88 2    
   174   87   89 am   BACKBONE|DICT|INTERRES
   175   89   90 1    
   176   89  210 1    
   177   90   91 1    
   178   90   92 1    
   179   90  211 1    
   180   91  212 1    
   181   91  213 1    
   182   91  214 1    
   183   92   93 2    
   184   92   94 am   BACKBONE|DICT|INTERRES
   185   94   95 1    
   186   94  215 1    
   187   95   96 1    
   188   95   97 1    
   189   95  216 1    
   190   96  217 1    
   191   96  218 1    
   192   96  219 1    
   193   97   98 2    
   194   97   99 am   BACKBONE|DICT|INTERRES
   195   99  100 1    
   196   99  220 1    
   197  100  101 1    
   198  100  102 1    
   199  100  221 1    
   200  101  222 1    
   201  101  223 1    
   202  101  224 1    
   203  102  103 2    
   204  102  104 am   BACKBONE|DICT|INTERRES
   205  104  105 1    
   206  104  225 1    
   207  105  106 1    
   208  105  107 1    
   209  105  226 1    
   210  106  227 1    
   211  106  228 1    
   212  106  229 1    
   213  107  108 2    
   214  107  109 am   BACKBONE|DICT|INTERRES
   215  109  110 1    
   216  109  230 1    
   217  110  111 1    
   218  110  112 1    
   219  110  231 1    
   220  111  232 1    
   221  111  233 1    
   222  111  234 1    
   223  112  113 2    
   224  112  114 am   BACKBONE|DICT|INTERRES
   225  114  115 1    
   226  114  235 1    
   227  115  116 1    
   228  115  117 1    
   229  115  236 1    
   230  116  237 1    
   231  116  238 1    
   232  116  239 1    
   233  117  118 2    
   234  117  119 am   BACKBONE|DICT|INTERRES
   235  119  120 1    
   236  119  240 1    
   237  120  121 1    
   238  120  124 1    
   239  120  241 1    
   240  121  122 am   BACKBONE|DICT|INTERRES
   241  121  123 2    
   242  122  242 1    
   243  122  243 1    
   244  124  125 1    
   245  124  244 1    
   246  124  245 1    
   247  125  126 1    
   248  126  246 1    
   249  126  247 1    
@<TRIPOS>SUBSTRUCTURE
     1 UNK         1 GROUP             0       ****    0 ROOT    
