@<TRIPOS>MOLECULE
3R540
247   249    1
SMALL
USER_CHARGES


@<TRIPOS>ATOM
      1 CA         -4.8000  -20.8967  -43.6493 C.3       0 UNK        -0.1800 
      2 C          -4.0712  -19.6522  -44.1327 C.2       0 UNK         0.5000 
      3 O          -4.2083  -18.5937  -43.5222 O.2       0 UNK        -0.5000 
      4 N          -3.2884  -19.7712  -45.2118 N.am      1 UNK        -0.5000 
      5 CA         -2.4774  -18.7009  -45.8042 C.3       1 UNK         0.1400 
      6 C6         -1.7781  -19.1670  -47.1045 C.3       23 UNK        -0.0398 
      7 S7         -1.3756  -17.7764  -48.2085 S.3       23 UNK        -0.2404 
      8 C8         -1.8465  -18.4402  -49.8336 C.3       23 UNK        -0.0205 
      9 C9         -0.7079  -19.2270  -50.4585 C.ar      23 UNK        -0.0193 
     10 C10         0.1760  -18.6018  -51.3412 C.ar      23 UNK        -0.1150 
     11 C11         1.2497  -19.2999  -51.8988 C.ar      23 UNK        -0.0193 
     12 C12         1.4389  -20.6427  -51.5456 C.ar      23 UNK        -0.1150 
     13 C13         0.5528  -21.2845  -50.6751 C.ar      23 UNK        -0.0193 
     14 C14        -0.5262  -20.5743  -50.1439 C.ar      23 UNK        -0.1150 
     15 C15         0.7748  -22.7390  -50.2934 C.3       23 UNK        -0.0205 
     16 S16         1.8492  -22.8899  -48.8309 S.3       23 UNK        -0.2404 
     17 C17         0.7625  -22.2651  -47.5031 C.3       23 UNK        -0.0398 
     18 CA          1.1129  -22.8942  -46.1349 C.3       11 UNK         0.1400 
     19 N           2.4219  -22.4466  -45.6619 N.am      11 UNK        -0.5000 
     20 C           3.2988  -23.2059  -44.9934 C.2       10 UNK         0.5000 
     21 O           3.0419  -24.3429  -44.5948 O.2       10 UNK        -0.5000 
     22 CA          4.7014  -22.6153  -44.7462 C.3       10 UNK         0.1400 
     23 CB          5.6944  -23.1611  -45.7840 C.3       10 UNK        -0.1800 
     24 N           4.7170  -21.1532  -44.8079 N.am      10 UNK        -0.5000 
     25 C           4.3648  -20.3523  -43.7945 C.2       9 UNK         0.5000 
     26 O           4.0937  -20.7675  -42.6682 O.2       9 UNK        -0.5000 
     27 CA          4.2981  -18.8368  -44.0765 C.3       9 UNK         0.1400 
     28 CB          5.4820  -18.1142  -43.4158 C.3       9 UNK        -0.1800 
     29 N           4.2703  -18.4907  -45.5009 N.am      9 UNK        -0.5000 
     30 C           3.2429  -18.7067  -46.3328 C.2       8 UNK         0.5000 
     31 O           2.1982  -19.2700  -46.0034 O.2       8 UNK        -0.5000 
     32 CA          3.4503  -18.2617  -47.7922 C.3       8 UNK         0.1400 
     33 CB          3.3041  -19.4499  -48.7529 C.3       8 UNK        -0.1800 
     34 N           2.5339  -17.2023  -48.2096 N.am      8 UNK        -0.5000 
     35 C           2.4930  -15.9609  -47.7078 C.2       7 UNK         0.5000 
     36 O           3.1711  -15.5847  -46.7510 O.2       7 UNK        -0.5000 
     37 CA          1.5689  -14.9505  -48.4062 C.3       7 UNK         0.1400 
     38 CB          1.1306  -15.3671  -49.8286 C.3       7 UNK        -0.1800 
     39 N           0.4139  -14.6970  -47.5529 N.am      7 UNK        -0.5000 
     40 C          -0.4171  -13.6548  -47.6704 C.2       6 UNK         0.5000 
     41 O          -0.3034  -12.7774  -48.5275 O.2       6 UNK        -0.5000 
     42 CA         -1.5617  -13.5604  -46.6482 C.3       6 UNK         0.1400 
     43 CB         -2.8100  -14.3096  -47.1385 C.3       6 UNK        -0.1800 
     44 N          -1.1879  -14.0705  -45.3318 N.am      6 UNK        -0.5000 
     45 C          -0.4531  -13.4015  -44.4334 C.2       5 UNK         0.5000 
     46 O           0.0589  -12.3014  -44.6492 O.2       5 UNK        -0.5000 
     47 CA         -0.3133  -14.0759  -43.0523 C.3       5 UNK         0.1400 
     48 CB          0.2091  -13.1281  -41.9535 C.3       5 UNK        -0.1800 
     49 N          -1.5627  -14.7246  -42.6415 N.am      5 UNK        -0.5000 
     50 C          -2.7622  -14.1559  -42.4407 C.2       4 UNK         0.5000 
     51 O          -2.9650  -12.9414  -42.4486 O.2       4 UNK        -0.5000 
     52 CA         -3.9499  -15.1160  -42.2297 C.3       4 UNK         0.1400 
     53 CB         -4.7289  -15.2822  -43.5448 C.3       4 UNK        -0.1800 
     54 N          -3.5356  -16.4394  -41.7636 N.am      4 UNK        -0.5000 
     55 C          -3.0795  -16.7110  -40.5337 C.2       3 UNK         0.5000 
     56 O          -3.0517  -15.8922  -39.6144 O.2       3 UNK        -0.5000 
     57 CA         -2.5177  -18.1260  -40.3138 C.3       3 UNK         0.1400 
     58 CB         -3.6453  -19.1329  -40.0389 C.3       3 UNK        -0.1800 
     59 N          -1.7188  -18.5814  -41.4536 N.am      3 UNK        -0.5000 
     60 C          -0.5048  -18.1076  -41.7700 C.2       2 UNK         0.5000 
     61 O           0.0791  -17.2346  -41.1292 O.2       2 UNK        -0.5000 
     62 CA          0.1696  -18.7052  -43.0167 C.3       2 UNK         0.1400 
     63 CB          0.9374  -19.9738  -42.6292 C.3       2 UNK        -0.1800 
     64 N          -0.7790  -19.0282  -44.0790 N.am      2 UNK        -0.5000 
     65 C          -1.4585  -18.1273  -44.7999 C.2       1 UNK         0.5000 
     66 O          -1.3493  -16.9073  -44.6636 O.2       1 UNK        -0.5000 
     67 C           0.0450  -22.6157  -45.0623 C.2       11 UNK         0.5000 
     68 O          -0.7769  -21.7127  -45.2162 O.2       11 UNK        -0.5000 
     69 N           0.0846  -23.3923  -43.9743 N.am      12 UNK        -0.5000 
     70 CA         -0.9373  -23.3725  -42.9259 C.3       12 UNK         0.1400 
     71 CB         -0.3177  -23.8697  -41.6117 C.3       12 UNK        -0.1800 
     72 C          -2.1740  -24.2124  -43.2986 C.2       12 UNK         0.5000 
     73 O          -3.2718  -23.9078  -42.8331 O.2       12 UNK        -0.5000 
     74 N          -1.9757  -25.2586  -44.1140 N.am      13 UNK        -0.5000 
     75 CA         -3.0274  -26.1839  -44.5394 C.3       13 UNK         0.1400 
     76 CB         -2.3863  -27.5138  -44.9662 C.3       13 UNK        -0.1800 
     77 C          -3.8990  -25.6171  -45.6742 C.2       13 UNK         0.5000 
     78 O          -5.1103  -25.8408  -45.6776 O.2       13 UNK        -0.5000 
     79 N          -3.2706  -24.9039  -46.6175 N.am      14 UNK        -0.5000 
     80 CA         -3.9422  -24.2418  -47.7338 C.3       14 UNK         0.1400 
     81 CB         -2.9723  -24.1401  -48.9204 C.3       14 UNK        -0.1800 
     82 C          -4.4064  -22.8454  -47.2999 C.2       14 UNK         0.5000 
     83 O          -3.6348  -22.1291  -46.6612 O.2       14 UNK        -0.5000 
     84 N          -5.6423  -22.4822  -47.6609 N.am      15 UNK        -0.5000 
     85 CA         -6.2508  -21.1804  -47.3803 C.3       15 UNK         0.1400 
     86 CB         -7.7496  -21.2627  -47.7107 C.3       15 UNK        -0.1800 
     87 C          -5.5937  -20.0346  -48.1724 C.2       15 UNK         0.5000 
     88 O          -4.9381  -20.2817  -49.1850 O.2       15 UNK        -0.5000 
     89 N          -5.8332  -18.7915  -47.7306 N.am      16 UNK        -0.5000 
     90 CA         -5.3085  -17.5539  -48.3248 C.3       16 UNK         0.1400 
     91 CB         -5.8000  -16.3567  -47.4986 C.3       16 UNK        -0.1800 
     92 C          -5.6366  -17.3561  -49.8199 C.2       16 UNK         0.5000 
     93 O          -4.8637  -16.7175  -50.5345 O.2       16 UNK        -0.5000 
     94 N          -6.7484  -17.9498  -50.2754 N.am      17 UNK        -0.5000 
     95 CA         -7.1806  -17.9909  -51.6736 C.3       17 UNK         0.1400 
     96 CB         -8.5921  -18.5944  -51.7335 C.3       17 UNK        -0.1800 
     97 C          -6.2270  -18.7636  -52.6102 C.2       17 UNK         0.5000 
     98 O          -6.2802  -18.5520  -53.8229 O.2       17 UNK        -0.5000 
     99 N          -5.3588  -19.6241  -52.0530 N.am      18 UNK        -0.5000 
    100 CA        -4.3782  -20.4197  -52.7962 C.3       18 UNK         0.1400 
    101 CB        -3.7669  -21.4847  -51.8744 C.3       18 UNK        -0.1800 
    102 C         -3.2727  -19.5917  -53.4797 C.2       18 UNK         0.5000 
    103 O         -2.5904  -20.1318  -54.3495 O.2       18 UNK        -0.5000 
    104 N         -3.1394  -18.2999  -53.1350 N.am      19 UNK        -0.5000 
    105 CA        -2.2173  -17.3374  -53.7539 C.3       19 UNK         0.1400 
    106 CB        -2.3498  -15.9766  -53.0500 C.3       19 UNK        -0.1800 
    107 C         -2.4021  -17.1583  -55.2738 C.2       19 UNK         0.5000 
    108 O         -1.4560  -16.7590  -55.9530 O.2       19 UNK        -0.5000 
    109 N         -3.5988  -17.4804  -55.7841 N.am      20 UNK        -0.5000 
    110 CA        -3.9198  -17.5155  -57.2105 C.3       20 UNK         0.1400 
    111 CB        -5.4393  -17.6805  -57.3665 C.3       20 UNK        -0.1800 
    112 C         -3.1752  -18.6231  -57.9873 C.2       20 UNK         0.5000 
    113 O         -3.0393  -18.5049  -59.2060 O.2       20 UNK        -0.5000 
    114 N         -2.7170  -19.6692  -57.2851 N.am      21 UNK        -0.5000 
    115 CA        -1.9815  -20.8001  -57.8485 C.3       21 UNK         0.1400 
    116 CB        -2.7624  -22.0951  -57.5720 C.3       21 UNK        -0.1800 
    117 C         -0.5613  -20.8904  -57.2681 C.2       21 UNK         0.5000 
    118 O          0.3908  -21.0572  -58.0314 O.2       21 UNK        -0.5000 
    119 N         -0.4435  -20.7846  -55.9362 N.am      22 UNK        -0.5000 
    120 CA         0.7942  -20.9560  -55.1573 C.3       22 UNK         0.1400 
    121 C          1.4185  -22.3844  -55.2822 C.2       22 UNK         0.5000 
    122 N          0.6056  -23.4282  -55.4090 N.am      22 UNK        -0.7600 
    123 O          2.6332  -22.5664  -55.2672 O.2       22 UNK        -0.5000 
    124 C124        1.7824  -19.7757  -55.3771 C.3       23 UNK        -0.0398 
    125 S125        3.0505  -19.5884  -54.0724 S.3       23 UNK        -0.2404 
    126 C126        2.2129  -18.5535  -52.8227 C.3       23 UNK        -0.0205 
    127 H127       -5.8778  -20.7482  -43.7088 H         1 UNK         0.0600 
    128 H128       -4.5399  -21.1034  -42.6114 H         1 UNK         0.0600 
    129 H129       -4.5423  -21.7762  -44.2381 H         1 UNK         0.0600 
    130 H130       -3.2204  -20.6802  -45.6709 H         1 UNK         0.3000 
    131 H131       -3.1748  -17.8982  -46.0510 H         1 UNK         0.0600 
    132 H132       -2.4278  -19.8596  -47.6399 H         1 UNK         0.0800 
    133 H133       -0.8634  -19.7208  -46.8956 H         1 UNK         0.0800 
    134 H134       -2.7403  -19.0568  -49.7573 H         1 UNK         0.0800 
    135 H135       -2.1210  -17.6051  -50.4733 H         1 UNK         0.0800 
    136 H136        0.0340  -17.5599  -51.5870 H         1 UNK         0.1150 
    137 H137        2.2821  -21.1935  -51.9364 H         1 UNK         0.1150 
    138 H138       -1.2122  -21.0617  -49.4664 H         1 UNK         0.1150 
    139 H139       -0.1773  -23.2386  -50.1128 H         1 UNK         0.0800 
    140 H140        1.2396  -23.2693  -51.1260 H         1 UNK         0.0800 
    141 H141       -0.2712  -22.4886  -47.7654 H         1 UNK         0.0800 
    142 H142        0.8432  -21.1787  -47.4635 H         1 UNK         0.0800 
    143 H143        1.1298  -23.9771  -46.2785 H         1 UNK         0.0600 
    144 H144        2.6639  -21.4901  -45.8835 H         1 UNK         0.3000 
    145 H145        5.0304  -22.9402  -43.7568 H         1 UNK         0.0600 
    146 H146        5.7344  -24.2507  -45.7512 H         1 UNK         0.0600 
    147 H147        5.4156  -22.8738  -46.7989 H         1 UNK         0.0600 
    148 H148        6.7037  -22.7946  -45.5955 H         1 UNK         0.0600 
    149 H149        4.9573  -20.7336  -45.6933 H         1 UNK         0.3000 
    150 H150        3.3778  -18.4642  -43.6229 H         1 UNK         0.0600 
    151 H151        6.4353  -18.4340  -43.8385 H         1 UNK         0.0600 
    152 H152        5.5147  -18.3144  -42.3439 H         1 UNK         0.0600 
    153 H153        5.4038  -17.0339  -43.5396 H         1 UNK         0.0600 
    154 H154        5.0877  -18.0150  -45.8553 H         1 UNK         0.3000 
    155 H155        4.4665  -17.8762  -47.8970 H         1 UNK         0.0600 
    156 H156        2.2749  -19.8063  -48.7870 H         1 UNK         0.0600 
    157 H157        3.9334  -20.2878  -48.4503 H         1 UNK         0.0600 
    158 H158        3.5934  -19.1761  -49.7675 H         1 UNK         0.0600 
    159 H159        1.8983  -17.4372  -48.9576 H         1 UNK         0.3000 
    160 H160        2.1420  -14.0248  -48.4908 H         1 UNK         0.0600 
    161 H161        0.4261  -16.1945  -49.8018 H         1 UNK         0.0600 
    162 H162        1.9833  -15.6657  -50.4398 H         1 UNK         0.0600 
    163 H163        0.6436  -14.5436  -50.3502 H         1 UNK         0.0600 
    164 H164        0.2644  -15.3569  -46.8018 H         1 UNK         0.3000 
    165 H165       -1.8247  -12.5050  -46.5489 H         1 UNK         0.0600 
    166 H166       -3.0908  -13.9934  -48.1440 H         1 UNK         0.0600 
    167 H167       -2.6509  -15.3867  -47.1641 H         1 UNK         0.0600 
    168 H168       -3.6618  -14.1162  -46.4864 H         1 UNK         0.0600 
    169 H169       -1.5104  -15.0018  -45.0854 H         1 UNK         0.3000 
    170 H170        0.4189  -14.8754  -43.1751 H         1 UNK         0.0600 
    171 H171        1.2013  -12.7512  -42.2039 H         1 UNK         0.0600 
    172 H172       -0.4425  -12.2650  -41.8158 H         1 UNK         0.0600 
    173 H173        0.2901  -13.6442  -40.9967 H         1 UNK         0.0600 
    174 H174       -1.5380  -15.7351  -42.6518 H         1 UNK         0.3000 
    175 H175       -4.6135  -14.6733  -41.4841 H         1 UNK         0.0600 
    176 H176       -5.6052  -15.9159  -43.4073 H         1 UNK         0.0600 
    177 H177       -5.0779  -14.3194  -43.9202 H         1 UNK         0.0600 
    178 H178       -4.1100  -15.7336  -44.3217 H         1 UNK         0.0600 
    179 H179       -3.5965  -17.1966  -42.4412 H         1 UNK         0.3000 
    180 H180       -1.8704  -18.0961  -39.4346 H         1 UNK         0.0600 
    181 H181       -4.3440  -19.1989  -40.8730 H         1 UNK         0.0600 
    182 H182       -4.2176  -18.8422  -39.1571 H         1 UNK         0.0600 
    183 H183       -3.2478  -20.1309  -39.8536 H         1 UNK         0.0600 
    184 H184       -2.1434  -19.2633  -42.0640 H         1 UNK         0.3000 
    185 H185        0.8795  -17.9733  -43.4078 H         1 UNK         0.0600 
    186 H186        1.4201  -20.4220  -43.4967 H         1 UNK         0.0600 
    187 H187        1.7139  -19.7478  -41.8979 H         1 UNK         0.0600 
    188 H188        0.2842  -20.7234  -42.1847 H         1 UNK         0.0600 
    189 H189       -0.8968  -20.0102  -44.3150 H         1 UNK         0.3000 
    190 H190        0.8362  -24.0642  -43.8815 H         1 UNK         0.3000 
    191 H191       -1.2800  -22.3475  -42.7711 H         1 UNK         0.0600 
    192 H192        0.0437  -24.8951  -41.6983 H         1 UNK         0.0600 
    193 H193       -1.0480  -23.8453  -40.8018 H         1 UNK         0.0600 
    194 H194        0.5217  -23.2423  -41.3107 H         1 UNK         0.0600 
    195 H195       -1.0398  -25.4503  -44.4371 H         1 UNK         0.3000 
    196 H196       -3.6812  -26.3861  -43.6879 H         1 UNK         0.0600 
    197 H197       -3.1474  -28.2334  -45.2710 H         1 UNK         0.0600 
    198 H198       -1.8271  -27.9629  -44.1452 H         1 UNK         0.0600 
    199 H199       -1.7032  -27.3831  -45.8064 H         1 UNK         0.0600 
    200 H200       -2.2889  -24.7075  -46.5021 H         1 UNK         0.3000 
    201 H201       -4.8054  -24.8334  -48.0468 H         1 UNK         0.0600 
    202 H202       -3.4609  -23.6885  -49.7841 H         1 UNK         0.0600 
    203 H203       -2.1067  -23.5256  -48.6786 H         1 UNK         0.0600 
    204 H204       -2.6138  -25.1232  -49.2255 H         1 UNK         0.0600 
    205 H205       -6.1945  -23.1192  -48.2154 H         1 UNK         0.3000 
    206 H206       -6.1352  -20.9714  -46.3156 H         1 UNK         0.0600 
    207 H207       -8.2365  -22.0524  -47.1380 H         1 UNK         0.0600 
    208 H208       -8.2613  -20.3303  -47.4693 H         1 UNK         0.0600 
    209 H209       -7.9175  -21.4643  -48.7697 H         1 UNK         0.0600 
    210 H210       -6.4055  -18.6734  -46.9072 H         1 UNK         0.3000 
    211 H211       -4.2237  -17.5914  -48.2460 H         1 UNK         0.0600 
    212 H212       -6.8891  -16.3060  -47.4731 H         1 UNK         0.0600 
    213 H213       -5.4393  -15.4167  -47.9177 H         1 UNK         0.0600 
    214 H214       -5.4405  -16.4123  -46.4709 H         1 UNK         0.0600 
    215 H215       -7.3162  -18.4587  -49.6149 H         1 UNK         0.3000 
    216 H216       -7.2298  -16.9630  -52.0386 H         1 UNK         0.0600 
    217 H217       -8.9660  -18.6154  -52.7581 H         1 UNK         0.0600 
    218 H218       -9.2979  -18.0084  -51.1445 H         1 UNK         0.0600 
    219 H219       -8.6074  -19.6181  -51.3572 H         1 UNK         0.0600 
    220 H220       -5.3548  -19.7441  -51.0442 H         1 UNK         0.3000 
    221 H221       -4.9155  -20.9400  -53.5916 H         1 UNK         0.0600 
    222 H222       -3.2088  -21.0349  -51.0551 H         1 UNK         0.0600 
    223 H223       -4.5390  -22.1214  -51.4428 H         1 UNK         0.0600 
    224 H224       -3.0787  -22.1313  -52.4206 H         1 UNK         0.0600 
    225 H225       -3.7543  -17.9348  -52.4201 H         1 UNK         0.3000 
    226 H226       -1.2029  -17.7105  -53.6089 H         1 UNK         0.0600 
    227 H227       -1.7201  -15.2243  -53.5271 H         1 UNK         0.0600 
    228 H228       -3.3767  -15.6099  -53.0787 H         1 UNK         0.0600 
    229 H229       -2.0424  -16.0252  -52.0075 H         1 UNK         0.0600 
    230 H230       -4.3246  -17.7891  -55.1504 H         1 UNK         0.3000 
    231 H231       -3.6314  -16.5571  -57.6470 H         1 UNK         0.0600 
    232 H232       -5.7887  -18.6146  -56.9246 H         1 UNK         0.0600 
    233 H233       -5.7277  -17.6856  -58.4185 H         1 UNK         0.0600 
    234 H234       -5.9767  -16.8622  -56.8868 H         1 UNK         0.0600 
    235 H235       -2.8379  -19.6701  -56.2784 H         1 UNK         0.3000 
    236 H236       -1.8821  -20.6957  -58.9306 H         1 UNK         0.0600 
    237 H237       -2.2278  -22.9645  -57.9570 H         1 UNK         0.0600 
    238 H238       -2.9235  -22.2517  -56.5049 H         1 UNK         0.0600 
    239 H239       -3.7387  -22.0734  -58.0561 H         1 UNK         0.0600 
    240 H240       -1.2812  -20.6310  -55.3767 H         1 UNK         0.3000 
    241 H241        0.4596  -20.8983  -54.1228 H         1 UNK         0.0600 
    242 H242        0.9984  -24.3526  -55.4935 H         1 UNK         0.3800 
    243 H243       -0.3938  -23.3050  -55.4268 H         1 UNK         0.3800 
    244 H244        1.2304  -18.8375  -55.4453 H         1 UNK         0.0800 
    245 H245        2.2912  -19.8884  -56.3352 H         1 UNK         0.0800 
    246 H246        2.9787  -18.0917  -52.1988 H         1 UNK         0.0800 
    247 H247        1.6985  -17.7355  -53.3291 H         1 UNK         0.0800 
@<TRIPOS>BOND
     1    1    2 1    
     2    1  127 1    
     3    1  128 1    
     4    1  129 1    
     5    2    3 2    
     6    2    4 am   BACKBONE|DICT|INTERRES
     7    4    5 1    
     8    4  130 1    
     9    5    6 1    
    10    5   65 1    
    11    5  131 1    
    12    6    7 1    
    13    6  132 1    
    14    6  133 1    
    15    7    8 1    
    16    8    9 1    
    17    8  134 1    
    18    8  135 1    
    19    9   10 ar   
    20    9   14 ar   
    21   10   11 ar   
    22   10  136 1    
    23   11   12 ar   
    24   11  126 1    
    25   12   13 ar   
    26   12  137 1    
    27   13   14 ar   
    28   13   15 1    
    29   14  138 1    
    30   15   16 1    
    31   15  139 1    
    32   15  140 1    
    33   16   17 1    
    34   17   18 1    
    35   17  141 1    
    36   17  142 1    
    37   18   19 1    
    38   18   67 1    
    39   18  143 1    
    40   19   20 am   BACKBONE|DICT|INTERRES
    41   19  144 1    
    42   20   21 2    
    43   20   22 1    
    44   22   23 1    
    45   22   24 1    
    46   22  145 1    
    47   23  146 1    
    48   23  147 1    
    49   23  148 1    
    50   24   25 am   BACKBONE|DICT|INTERRES
    51   24  149 1    
    52   25   26 2    
    53   25   27 1    
    54   27   28 1    
    55   27   29 1    
    56   27  150 1    
    57   28  151 1    
    58   28  152 1    
    59   28  153 1    
    60   29   30 am   BACKBONE|DICT|INTERRES
    61   29  154 1    
    62   30   31 2    
    63   30   32 1    
    64   32   33 1    
    65   32   34 1    
    66   32  155 1    
    67   33  156 1    
    68   33  157 1    
    69   33  158 1    
    70   34   35 am   BACKBONE|DICT|INTERRES
    71   34  159 1    
    72   35   36 2    
    73   35   37 1    
    74   37   38 1    
    75   37   39 1    
    76   37  160 1    
    77   38  161 1    
    78   38  162 1    
    79   38  163 1    
    80   39   40 am   BACKBONE|DICT|INTERRES
    81   39  164 1    
    82   40   41 2    
    83   40   42 1    
    84   42   43 1    
    85   42   44 1    
    86   42  165 1    
    87   43  166 1    
    88   43  167 1    
    89   43  168 1    
    90   44   45 am   BACKBONE|DICT|INTERRES
    91   44  169 1    
    92   45   46 2    
    93   45   47 1    
    94   47   48 1    
    95   47   49 1    
    96   47  170 1    
    97   48  171 1    
    98   48  172 1    
    99   48  173 1    
   100   49   50 am   BACKBONE|DICT|INTERRES
   101   49  174 1    
   102   50   51 2    
   103   50   52 1    
   104   52   53 1    
   105   52   54 1    
   106   52  175 1    
   107   53  176 1    
   108   53  177 1    
   109   53  178 1    
   110   54   55 am   BACKBONE|DICT|INTERRES
   111   54  179 1    
   112   55   56 2    
   113   55   57 1    
   114   57   58 1    
   115   57   59 1    
   116   57  180 1    
   117   58  181 1    
   118   58  182 1    
   119   58  183 1    
   120   59   60 am   BACKBONE|DICT|INTERRES
   121   59  184 1    
   122   60   61 2    
   123   60   62 1    
   124   62   63 1    
   125   62   64 1    
   126   62  185 1    
   127   63  186 1    
   128   63  187 1    
   129   63  188 1    
   130   64   65 am   BACKBONE|DICT|INTERRES
   131   64  189 1    
   132   65   66 2    
   133   67   68 2    
   134   67   69 am   BACKBONE|DICT|INTERRES
   135   69   70 1    
   136   69  190 1    
   137   70   71 1    
   138   70   72 1    
   139   70  191 1    
   140   71  192 1    
   141   71  193 1    
   142   71  194 1    
   143   72   73 2    
   144   72   74 am   BACKBONE|DICT|INTERRES
   145   74   75 1    
   146   74  195 1    
   147   75   76 1    
   148   75   77 1    
   149   75  196 1    
   150   76  197 1    
   151   76  198 1    
   152   76  199 1    
   153   77   78 2    
   154   77   79 am   BACKBONE|DICT|INTERRES
   155   79   80 1    
   156   79  200 1    
   157   80   81 1    
   158   80   82 1    
   159   80  201 1    
   160   81  202 1    
   161   81  203 1    
   162   81  204 1    
   163   82   83 2    
   164   82   84 am   BACKBONE|DICT|INTERRES
   165   84   85 1    
   166   84  205 1    
   167   85   86 1    
   168   85   87 1    
   169   85  206 1    
   170   86  207 1    
   171   86  208 1    
   172   86  209 1    
   173   87   88 2    
   174   87   89 am   BACKBONE|DICT|INTERRES
   175   89   90 1    
   176   89  210 1    
   177   90   91 1    
   178   90   92 1    
   179   90  211 1    
   180   91  212 1    
   181   91  213 1    
   182   91  214 1    
   183   92   93 2    
   184   92   94 am   BACKBONE|DICT|INTERRES
   185   94   95 1    
   186   94  215 1    
   187   95   96 1    
   188   95   97 1    
   189   95  216 1    
   190   96  217 1    
   191   96  218 1    
   192   96  219 1    
   193   97   98 2    
   194   97   99 am   BACKBONE|DICT|INTERRES
   195   99  100 1    
   196   99  220 1    
   197  100  101 1    
   198  100  102 1    
   199  100  221 1    
   200  101  222 1    
   201  101  223 1    
   202  101  224 1    
   203  102  103 2    
   204  102  104 am   BACKBONE|DICT|INTERRES
   205  104  105 1    
   206  104  225 1    
   207  105  106 1    
   208  105  107 1    
   209  105  226 1    
   210  106  227 1    
   211  106  228 1    
   212  106  229 1    
   213  107  108 2    
   214  107  109 am   BACKBONE|DICT|INTERRES
   215  109  110 1    
   216  109  230 1    
   217  110  111 1    
   218  110  112 1    
   219  110  231 1    
   220  111  232 1    
   221  111  233 1    
   222  111  234 1    
   223  112  113 2    
   224  112  114 am   BACKBONE|DICT|INTERRES
   225  114  115 1    
   226  114  235 1    
   227  115  116 1    
   228  115  117 1    
   229  115  236 1    
   230  116  237 1    
   231  116  238 1    
   232  116  239 1    
   233  117  118 2    
   234  117  119 am   BACKBONE|DICT|INTERRES
   235  119  120 1    
   236  119  240 1    
   237  120  121 1    
   238  120  124 1    
   239  120  241 1    
   240  121  122 am   BACKBONE|DICT|INTERRES
   241  121  123 2    
   242  122  242 1    
   243  122  243 1    
   244  124  125 1    
   245  124  244 1    
   246  124  245 1    
   247  125  126 1    
   248  126  246 1    
   249  126  247 1    
@<TRIPOS>SUBSTRUCTURE
     1 UNK         1 GROUP             0       ****    0 ROOT    
