@<TRIPOS>MOLECULE
3R540
247   249    1
SMALL
USER_CHARGES


@<TRIPOS>ATOM
      1 CA         -2.5556  -12.1958  -48.8623 C.3       0 UNK        -0.1800 
      2 C          -1.0728  -12.2658  -48.5274 C.2       0 UNK         0.5000 
      3 O          -0.7257  -12.5510  -47.3818 O.2       0 UNK        -0.5000 
      4 N          -0.2135  -12.0156  -49.5283 N.am      1 UNK        -0.5000 
      5 CA          1.2577  -12.0230  -49.4841 C.3       1 UNK         0.1400 
      6 C6          1.8940  -13.4236  -49.7382 C.3       23 UNK        -0.0398 
      7 S7          1.4337  -14.7549  -48.5725 S.3       23 UNK        -0.2404 
      8 C8          0.0608  -15.5637  -49.4530 C.3       23 UNK        -0.0205 
      9 C9          0.5260  -16.7486  -50.2848 C.ar      23 UNK        -0.0193 
     10 C10         1.0270  -16.5568  -51.5751 C.ar      23 UNK        -0.1150 
     11 C11         1.4228  -17.6489  -52.3516 C.ar      23 UNK        -0.0193 
     12 C12         1.3208  -18.9391  -51.8263 C.ar      23 UNK        -0.1150 
     13 C13         0.8092  -19.1478  -50.5427 C.ar      23 UNK        -0.0193 
     14 C14         0.4150  -18.0464  -49.7764 C.ar      23 UNK        -0.1150 
     15 C15         0.6155  -20.5673  -50.0287 C.3       23 UNK        -0.0205 
     16 S16         1.7809  -21.0235  -48.7063 S.3       23 UNK        -0.2404 
     17 C17         0.7821  -20.7209  -47.2104 C.3       23 UNK        -0.0398 
     18 CA          0.0400  -21.9814  -46.6968 C.3       11 UNK         0.1400 
     19 N          -0.3287  -21.8412  -45.2878 N.am      11 UNK        -0.5000 
     20 C          -0.9107  -22.7814  -44.5311 C.2       10 UNK         0.5000 
     21 O          -1.1415  -23.9288  -44.9113 O.2       10 UNK        -0.5000 
     22 CA         -1.3633  -22.3393  -43.1296 C.3       10 UNK         0.1400 
     23 CB         -0.2000  -22.4088  -42.1292 C.3       10 UNK        -0.1800 
     24 N          -1.9239  -20.9868  -43.1462 N.am      10 UNK        -0.5000 
     25 C          -3.1014  -20.6666  -43.7012 C.2       9 UNK         0.5000 
     26 O          -3.8552  -21.4876  -44.2232 O.2       9 UNK        -0.5000 
     27 CA         -3.4815  -19.1746  -43.7089 C.3       9 UNK         0.1400 
     28 CB         -4.0572  -18.7529  -42.3489 C.3       9 UNK        -0.1800 
     29 N          -2.3560  -18.3039  -44.0527 N.am      9 UNK        -0.5000 
     30 C          -1.7718  -18.2671  -45.2582 C.2       8 UNK         0.5000 
     31 O          -2.1263  -18.9578  -46.2124 O.2       8 UNK        -0.5000 
     32 CA         -0.5599  -17.3321  -45.4176 C.3       8 UNK         0.1400 
     33 CB         -1.0284  -15.9038  -45.7304 C.3       8 UNK        -0.1800 
     34 N           0.3484  -17.2981  -44.2682 N.am      8 UNK        -0.5000 
     35 C           0.9131  -18.3557  -43.6653 C.2       7 UNK         0.5000 
     36 O           0.6428  -19.5262  -43.9356 O.2       7 UNK        -0.5000 
     37 CA          1.9857  -18.0253  -42.6087 C.3       7 UNK         0.1400 
     38 CB          2.6903  -19.2704  -42.0322 C.3       7 UNK        -0.1800 
     39 N           2.9487  -17.0594  -43.1416 N.am      7 UNK        -0.5000 
     40 C           3.7597  -17.2129  -44.1998 C.2       6 UNK         0.5000 
     41 O           3.9569  -18.2838  -44.7744 O.2       6 UNK        -0.5000 
     42 CA          4.4316  -15.9378  -44.7410 C.3       6 UNK         0.1400 
     43 CB          3.7036  -15.4737  -46.0121 C.3       6 UNK        -0.1800 
     44 N           4.4277  -14.8465  -43.7635 N.am      6 UNK        -0.5000 
     45 C           5.3616  -14.6757  -42.8176 C.2       5 UNK         0.5000 
     46 O           6.3838  -15.3571  -42.7345 O.2       5 UNK        -0.5000 
     47 CA          5.0957  -13.5795  -41.7683 C.3       5 UNK         0.1400 
     48 CB          5.7467  -12.2525  -42.1831 C.3       5 UNK        -0.1800 
     49 N           3.6652  -13.3739  -41.5219 N.am      5 UNK        -0.5000 
     50 C           2.9072  -14.2169  -40.8038 C.2       4 UNK         0.5000 
     51 O           3.3464  -15.2339  -40.2675 O.2       4 UNK        -0.5000 
     52 CA          1.4040  -13.9022  -40.6777 C.3       4 UNK         0.1400 
     53 CB          1.1222  -13.1453  -39.3712 C.3       4 UNK        -0.1800 
     54 N           0.8564  -13.1374  -41.7978 N.am      4 UNK        -0.5000 
     55 C           0.7831  -13.5622  -43.0654 C.2       3 UNK         0.5000 
     56 O           1.1933  -14.6639  -43.4367 O.2       3 UNK        -0.5000 
     57 CA          0.1751  -12.5944  -44.1008 C.3       3 UNK         0.1400 
     58 CB         -0.4750  -11.3342  -43.4877 C.3       3 UNK        -0.1800 
     59 N           1.1431  -12.2080  -45.1288 N.am      3 UNK        -0.5000 
     60 C           2.3503  -11.6509  -44.9407 C.2       2 UNK         0.5000 
     61 O           2.8321  -11.4393  -43.8262 O.2       2 UNK        -0.5000 
     62 CA          3.1620  -11.2648  -46.1953 C.3       2 UNK         0.1400 
     63 CB          4.6451  -11.6504  -46.0598 C.3       2 UNK        -0.1800 
     64 N           2.6133  -11.8629  -47.4164 N.am      2 UNK        -0.5000 
     65 C           1.8244  -11.2210  -48.2876 C.2       1 UNK         0.5000 
     66 O           1.5254  -10.0292  -48.1821 O.2       1 UNK        -0.5000 
     67 C          -1.1919  -22.3226  -47.5636 C.2       11 UNK         0.5000 
     68 O          -1.1505  -23.2849  -48.3301 O.2       11 UNK        -0.5000 
     69 N          -2.2785  -21.5532  -47.3966 N.am      12 UNK        -0.5000 
     70 CA         -3.5596  -21.7740  -48.0647 C.3       12 UNK         0.1400 
     71 CB         -4.5153  -20.6093  -47.7699 C.3       12 UNK        -0.1800 
     72 C          -4.2037  -23.1160  -47.6830 C.2       12 UNK         0.5000 
     73 O          -4.6757  -23.8217  -48.5711 O.2       12 UNK        -0.5000 
     74 N          -4.1782  -23.4683  -46.3891 N.am      13 UNK        -0.5000 
     75 CA         -4.6841  -24.7415  -45.8696 C.3       13 UNK         0.1400 
     76 CB         -4.6405  -24.7355  -44.3347 C.3       13 UNK        -0.1800 
     77 C          -3.9352  -25.9624  -46.4357 C.2       13 UNK         0.5000 
     78 O          -4.5781  -26.9356  -46.8308 O.2       13 UNK        -0.5000 
     79 N          -2.6000  -25.8716  -46.5220 N.am      14 UNK        -0.5000 
     80 CA         -1.7346  -26.8775  -47.1466 C.3       14 UNK         0.1400 
     81 CB         -0.2652  -26.5239  -46.8727 C.3       14 UNK        -0.1800 
     82 C          -1.9844  -27.0329  -48.6608 C.2       14 UNK         0.5000 
     83 O          -1.8506  -28.1350  -49.1927 O.2       14 UNK        -0.5000 
     84 N          -2.3841  -25.9349  -49.3129 N.am      15 UNK        -0.5000 
     85 CA         -2.7828  -25.8615  -50.7185 C.3       15 UNK         0.1400 
     86 CB         -2.4159  -24.4647  -51.2345 C.3       15 UNK        -0.1800 
     87 C          -4.2819  -26.1670  -50.9449 C.2       15 UNK         0.5000 
     88 O          -4.7901  -25.9251  -52.0449 O.2       15 UNK        -0.5000 
     89 N          -4.9702  -26.6574  -49.9000 N.am      16 UNK        -0.5000 
     90 CA         -6.3828  -27.0553  -49.8414 C.3       16 UNK         0.1400 
     91 CB         -6.6232  -28.2880  -50.7373 C.3       16 UNK        -0.1800 
     92 C          -7.3775  -25.9131  -50.1421 C.2       16 UNK         0.5000 
     93 O          -8.5187  -26.1833  -50.5200 O.2       16 UNK        -0.5000 
     94 N          -6.9177  -24.6604  -50.0017 N.am      17 UNK        -0.5000 
     95 CA         -7.5675  -23.4070  -50.3979 C.3       17 UNK         0.1400 
     96 CB         -8.7893  -23.1237  -49.5005 C.3       17 UNK        -0.1800 
     97 C          -7.9013  -23.3365  -51.9069 C.2       17 UNK         0.5000 
     98 O          -8.7878  -22.5750  -52.2991 O.2       17 UNK        -0.5000 
     99 N          -7.2063  -24.1439  -52.7204 N.am      18 UNK        -0.5000 
    100 CA        -7.4788  -24.3423  -54.1401 C.3       18 UNK         0.1400 
    101 CB        -7.8389  -25.8182  -54.3790 C.3       18 UNK        -0.1800 
    102 C         -6.2729  -23.9290  -54.9903 C.2       18 UNK         0.5000 
    103 O         -6.4344  -23.1433  -55.9250 O.2       18 UNK        -0.5000 
    104 N         -5.0863  -24.4560  -54.6576 N.am      19 UNK        -0.5000 
    105 CA        -3.8479  -24.1845  -55.3928 C.3       19 UNK         0.1400 
    106 CB        -2.9007  -25.3859  -55.2397 C.3       19 UNK        -0.1800 
    107 C         -3.1647  -22.8723  -54.9599 C.2       19 UNK         0.5000 
    108 O         -2.3249  -22.3562  -55.6982 O.2       19 UNK        -0.5000 
    109 N         -3.5292  -22.3596  -53.7800 N.am      20 UNK        -0.5000 
    110 CA        -3.0142  -21.1517  -53.1426 C.3       20 UNK         0.1400 
    111 CB        -1.5779  -21.4037  -52.6345 C.3       20 UNK        -0.1800 
    112 C         -3.9907  -20.7897  -51.9972 C.2       20 UNK         0.5000 
    113 O         -4.8853  -21.5887  -51.7113 O.2       20 UNK        -0.5000 
    114 N         -3.8632  -19.6484  -51.3029 N.am      21 UNK        -0.5000 
    115 CA        -2.8972  -18.5571  -51.4572 C.3       21 UNK         0.1400 
    116 CB        -3.1009  -17.5695  -50.2964 C.3       21 UNK        -0.1800 
    117 C         -3.0055  -17.8183  -52.8032 C.2       21 UNK         0.5000 
    118 O         -4.0620  -17.8441  -53.4373 O.2       21 UNK        -0.5000 
    119 N         -1.9076  -17.1670  -53.2037 N.am      22 UNK        -0.5000 
    120 CA        -1.7990  -16.4016  -54.4593 C.3       22 UNK         0.1400 
    121 C         -2.5885  -15.0577  -54.4823 C.2       22 UNK         0.5000 
    122 N         -3.1078  -14.5651  -53.3641 N.am      22 UNK        -0.7600 
    123 O         -2.7356  -14.4512  -55.5399 O.2       22 UNK        -0.5000 
    124 C124       -0.3229  -16.1627  -54.8728 C.3       23 UNK        -0.0398 
    125 S125        0.6544  -17.6999  -55.0160 S.3       23 UNK        -0.2404 
    126 C126        1.9519  -17.4445  -53.7624 C.3       23 UNK        -0.0205 
    127 H127       -2.7255  -11.9408  -49.9085 H         1 UNK         0.0600 
    128 H128       -3.0439  -11.4427  -48.2439 H         1 UNK         0.0600 
    129 H129       -3.0278  -13.1584  -48.6659 H         1 UNK         0.0600 
    130 H130       -0.5991  -11.7580  -50.4255 H         1 UNK         0.3000 
    131 H131        1.5475  -11.4210  -50.3470 H         1 UNK         0.0600 
    132 H132        1.6351  -13.7425  -50.7465 H         1 UNK         0.0800 
    133 H133        2.9824  -13.3458  -49.7489 H         1 UNK         0.0800 
    134 H134       -0.6707  -15.8946  -48.7161 H         1 UNK         0.0800 
    135 H135       -0.4615  -14.8453  -50.0857 H         1 UNK         0.0800 
    136 H136        1.1028  -15.5587  -51.9798 H         1 UNK         0.1150 
    137 H137        1.6167  -19.7841  -52.4325 H         1 UNK         0.1150 
    138 H138        0.0013  -18.1947  -48.7908 H         1 UNK         0.1150 
    139 H139       -0.4156  -20.6852  -49.6974 H         1 UNK         0.0800 
    140 H140        0.7497  -21.2822  -50.8415 H         1 UNK         0.0800 
    141 H141        0.0918  -19.8955  -47.3733 H         1 UNK         0.0800 
    142 H142        1.4794  -20.3710  -46.4475 H         1 UNK         0.0800 
    143 H143        0.7254  -22.8299  -46.7521 H         1 UNK         0.0600 
    144 H144       -0.1304  -20.9420  -44.8550 H         1 UNK         0.3000 
    145 H145       -2.1406  -23.0280  -42.7927 H         1 UNK         0.0600 
    146 H146       -0.5201  -22.1148  -41.1295 H         1 UNK         0.0600 
    147 H147        0.1911  -23.4246  -42.0602 H         1 UNK         0.0600 
    148 H148        0.6262  -21.7611  -42.4223 H         1 UNK         0.0600 
    149 H149       -1.3262  -20.2451  -42.8109 H         1 UNK         0.3000 
    150 H150       -4.2585  -19.0358  -44.4639 H         1 UNK         0.0600 
    151 H151       -4.9088  -19.3774  -42.0755 H         1 UNK         0.0600 
    152 H152       -4.4071  -17.7207  -42.3722 H         1 UNK         0.0600 
    153 H153       -3.3175  -18.8391  -41.5519 H         1 UNK         0.0600 
    154 H154       -1.9927  -17.7095  -43.3226 H         1 UNK         0.3000 
    155 H155        0.0193  -17.6907  -46.2701 H         1 UNK         0.0600 
    156 H156       -0.1870  -15.2610  -45.9904 H         1 UNK         0.0600 
    157 H157       -1.5421  -15.4558  -44.8793 H         1 UNK         0.0600 
    158 H158       -1.7205  -15.8892  -46.5729 H         1 UNK         0.0600 
    159 H159        0.6548  -16.3721  -43.9785 H         1 UNK         0.3000 
    160 H160        1.4708  -17.5260  -41.7867 H         1 UNK         0.0600 
    161 H161        3.1552  -19.8764  -42.8102 H         1 UNK         0.0600 
    162 H162        1.9792  -19.9071  -41.5055 H         1 UNK         0.0600 
    163 H163        3.4641  -18.9888  -41.3181 H         1 UNK         0.0600 
    164 H164        2.8475  -16.1194  -42.7857 H         1 UNK         0.3000 
    165 H165        5.4587  -16.1938  -45.0094 H         1 UNK         0.0600 
    166 H166        2.7143  -15.0733  -45.7863 H         1 UNK         0.0600 
    167 H167        4.2703  -14.7093  -46.5397 H         1 UNK         0.0600 
    168 H168        3.5674  -16.2987  -46.7131 H         1 UNK         0.0600 
    169 H169        3.6082  -14.2555  -43.7453 H         1 UNK         0.3000 
    170 H170        5.5635  -13.8990  -40.8344 H         1 UNK         0.0600 
    171 H171        6.8227  -12.3715  -42.3167 H         1 UNK         0.0600 
    172 H172        5.3412  -11.8803  -43.1223 H         1 UNK         0.0600 
    173 H173        5.5958  -11.4843  -41.4246 H         1 UNK         0.0600 
    174 H174        3.2327  -12.5764  -41.9747 H         1 UNK         0.3000 
    175 H175        0.8748  -14.8568  -40.6394 H         1 UNK         0.0600 
    176 H176        1.6038  -12.1667  -39.3617 H         1 UNK         0.0600 
    177 H177        0.0524  -12.9955  -39.2242 H         1 UNK         0.0600 
    178 H178        1.4921  -13.7018  -38.5089 H         1 UNK         0.0600 
    179 H179        0.5236  -12.2078  -41.5872 H         1 UNK         0.3000 
    180 H180       -0.6107  -13.1509  -44.6118 H         1 UNK         0.0600 
    181 H181        0.2520  -10.6964  -42.9834 H         1 UNK         0.0600 
    182 H182       -1.2500  -11.5985  -42.7670 H         1 UNK         0.0600 
    183 H183       -0.9539  -10.7341  -44.2618 H         1 UNK         0.0600 
    184 H184        0.8173  -12.3499  -46.0801 H         1 UNK         0.3000 
    185 H185        3.1210  -10.1762  -46.2660 H         1 UNK         0.0600 
    186 H186        5.1810  -11.5123  -46.9990 H         1 UNK         0.0600 
    187 H187        5.1375  -11.0222  -45.3173 H         1 UNK         0.0600 
    188 H188        4.7749  -12.6837  -45.7445 H         1 UNK         0.0600 
    189 H189        2.7639  -12.8549  -47.5428 H         1 UNK         0.3000 
    190 H190       -2.2271  -20.7458  -46.7802 H         1 UNK         0.3000 
    191 H191       -3.3704  -21.7922  -49.1394 H         1 UNK         0.0600 
    192 H192       -4.0962  -19.6609  -48.1031 H         1 UNK         0.0600 
    193 H193       -4.7277  -20.5219  -46.7040 H         1 UNK         0.0600 
    194 H194       -5.4663  -20.7453  -48.2865 H         1 UNK         0.0600 
    195 H195       -3.8164  -22.8095  -45.7064 H         1 UNK         0.3000 
    196 H196       -5.7288  -24.8269  -46.1759 H         1 UNK         0.0600 
    197 H197       -5.0428  -25.6647  -43.9293 H         1 UNK         0.0600 
    198 H198       -5.2357  -23.9186  -43.9265 H         1 UNK         0.0600 
    199 H199       -3.6228  -24.6282  -43.9604 H         1 UNK         0.0600 
    200 H200       -2.1380  -25.0535  -46.1330 H         1 UNK         0.3000 
    201 H201       -1.9473  -27.8398  -46.6767 H         1 UNK         0.0600 
    202 H202       -0.0619  -26.4873  -45.8023 H         1 UNK         0.0600 
    203 H203        0.0009  -25.5548  -47.2959 H         1 UNK         0.0600 
    204 H204        0.4042  -27.2679  -47.3064 H         1 UNK         0.0600 
    205 H205       -2.4302  -25.0647  -48.7956 H         1 UNK         0.3000 
    206 H206       -2.2133  -26.5953  -51.2920 H         1 UNK         0.0600 
    207 H207       -1.3667  -24.2363  -51.0461 H         1 UNK         0.0600 
    208 H208       -2.5701  -24.3918  -52.3073 H         1 UNK         0.0600 
    209 H209       -3.0185  -23.6897  -50.7607 H         1 UNK         0.0600 
    210 H210       -4.4725  -26.7535  -49.0234 H         1 UNK         0.3000 
    211 H211       -6.5706  -27.3530  -48.8091 H         1 UNK         0.0600 
    212 H212       -6.5215  -28.0440  -51.7953 H         1 UNK         0.0600 
    213 H213       -7.6252  -28.6925  -50.5902 H         1 UNK         0.0600 
    214 H214       -5.9173  -29.0861  -50.5074 H         1 UNK         0.0600 
    215 H215       -5.9783  -24.5415  -49.6252 H         1 UNK         0.3000 
    216 H216       -6.8364  -22.6199  -50.2118 H         1 UNK         0.0600 
    217 H217       -8.5215  -23.1741  -48.4450 H         1 UNK         0.0600 
    218 H218       -9.5955  -23.8359  -49.6776 H         1 UNK         0.0600 
    219 H219       -9.1880  -22.1256  -49.6848 H         1 UNK         0.0600 
    220 H220       -6.4758  -24.7185  -52.3153 H         1 UNK         0.3000 
    221 H221       -8.3280  -23.7351  -54.4603 H         1 UNK         0.0600 
    222 H222       -7.0397  -26.4889  -54.0604 H         1 UNK         0.0600 
    223 H223       -8.7396  -26.0937  -53.8299 H         1 UNK         0.0600 
    224 H224       -8.0298  -26.0092  -55.4358 H         1 UNK         0.0600 
    225 H225       -5.0181  -25.0829  -53.8617 H         1 UNK         0.3000 
    226 H226       -4.0780  -24.0859  -56.4560 H         1 UNK         0.0600 
    227 H227       -3.3350  -26.2821  -55.6830 H         1 UNK         0.0600 
    228 H228       -1.9504  -25.2046  -55.7435 H         1 UNK         0.0600 
    229 H229       -2.6830  -25.6082  -54.1962 H         1 UNK         0.0600 
    230 H230       -4.2725  -22.8036  -53.2535 H         1 UNK         0.3000 
    231 H231       -3.0147  -20.3641  -53.8962 H         1 UNK         0.0600 
    232 H232       -0.9888  -20.4897  -52.6713 H         1 UNK         0.0600 
    233 H233       -1.0384  -22.1312  -53.2403 H         1 UNK         0.0600 
    234 H234       -1.5700  -21.7692  -51.6078 H         1 UNK         0.0600 
    235 H235       -4.5646  -19.4765  -50.6001 H         1 UNK         0.3000 
    236 H236       -1.8938  -18.9666  -51.3651 H         1 UNK         0.0600 
    237 H237       -2.8569  -18.0305  -49.3391 H         1 UNK         0.0600 
    238 H238       -2.4595  -16.6946  -50.4000 H         1 UNK         0.0600 
    239 H239       -4.1300  -17.2114  -50.2470 H         1 UNK         0.0600 
    240 H240       -1.0702  -17.2018  -52.6392 H         1 UNK         0.3000 
    241 H241       -2.2510  -17.0155  -55.2410 H         1 UNK         0.0600 
    242 H242       -3.0105  -15.0558  -52.4915 H         1 UNK         0.3800 
    243 H243       -3.6210  -13.6983  -53.3988 H         1 UNK         0.3800 
    244 H244       -0.2812  -15.6701  -55.8459 H         1 UNK         0.0800 
    245 H245        0.1600  -15.4773  -54.1758 H         1 UNK         0.0800 
    246 H246        2.3878  -16.4504  -53.8740 H         1 UNK         0.0800 
    247 H247        2.7623  -18.1505  -53.9497 H         1 UNK         0.0800 
@<TRIPOS>BOND
     1    1    2 1    
     2    1  127 1    
     3    1  128 1    
     4    1  129 1    
     5    2    3 2    
     6    2    4 am   BACKBONE|DICT|INTERRES
     7    4    5 1    
     8    4  130 1    
     9    5    6 1    
    10    5   65 1    
    11    5  131 1    
    12    6    7 1    
    13    6  132 1    
    14    6  133 1    
    15    7    8 1    
    16    8    9 1    
    17    8  134 1    
    18    8  135 1    
    19    9   10 ar   
    20    9   14 ar   
    21   10   11 ar   
    22   10  136 1    
    23   11   12 ar   
    24   11  126 1    
    25   12   13 ar   
    26   12  137 1    
    27   13   14 ar   
    28   13   15 1    
    29   14  138 1    
    30   15   16 1    
    31   15  139 1    
    32   15  140 1    
    33   16   17 1    
    34   17   18 1    
    35   17  141 1    
    36   17  142 1    
    37   18   19 1    
    38   18   67 1    
    39   18  143 1    
    40   19   20 am   BACKBONE|DICT|INTERRES
    41   19  144 1    
    42   20   21 2    
    43   20   22 1    
    44   22   23 1    
    45   22   24 1    
    46   22  145 1    
    47   23  146 1    
    48   23  147 1    
    49   23  148 1    
    50   24   25 am   BACKBONE|DICT|INTERRES
    51   24  149 1    
    52   25   26 2    
    53   25   27 1    
    54   27   28 1    
    55   27   29 1    
    56   27  150 1    
    57   28  151 1    
    58   28  152 1    
    59   28  153 1    
    60   29   30 am   BACKBONE|DICT|INTERRES
    61   29  154 1    
    62   30   31 2    
    63   30   32 1    
    64   32   33 1    
    65   32   34 1    
    66   32  155 1    
    67   33  156 1    
    68   33  157 1    
    69   33  158 1    
    70   34   35 am   BACKBONE|DICT|INTERRES
    71   34  159 1    
    72   35   36 2    
    73   35   37 1    
    74   37   38 1    
    75   37   39 1    
    76   37  160 1    
    77   38  161 1    
    78   38  162 1    
    79   38  163 1    
    80   39   40 am   BACKBONE|DICT|INTERRES
    81   39  164 1    
    82   40   41 2    
    83   40   42 1    
    84   42   43 1    
    85   42   44 1    
    86   42  165 1    
    87   43  166 1    
    88   43  167 1    
    89   43  168 1    
    90   44   45 am   BACKBONE|DICT|INTERRES
    91   44  169 1    
    92   45   46 2    
    93   45   47 1    
    94   47   48 1    
    95   47   49 1    
    96   47  170 1    
    97   48  171 1    
    98   48  172 1    
    99   48  173 1    
   100   49   50 am   BACKBONE|DICT|INTERRES
   101   49  174 1    
   102   50   51 2    
   103   50   52 1    
   104   52   53 1    
   105   52   54 1    
   106   52  175 1    
   107   53  176 1    
   108   53  177 1    
   109   53  178 1    
   110   54   55 am   BACKBONE|DICT|INTERRES
   111   54  179 1    
   112   55   56 2    
   113   55   57 1    
   114   57   58 1    
   115   57   59 1    
   116   57  180 1    
   117   58  181 1    
   118   58  182 1    
   119   58  183 1    
   120   59   60 am   BACKBONE|DICT|INTERRES
   121   59  184 1    
   122   60   61 2    
   123   60   62 1    
   124   62   63 1    
   125   62   64 1    
   126   62  185 1    
   127   63  186 1    
   128   63  187 1    
   129   63  188 1    
   130   64   65 am   BACKBONE|DICT|INTERRES
   131   64  189 1    
   132   65   66 2    
   133   67   68 2    
   134   67   69 am   BACKBONE|DICT|INTERRES
   135   69   70 1    
   136   69  190 1    
   137   70   71 1    
   138   70   72 1    
   139   70  191 1    
   140   71  192 1    
   141   71  193 1    
   142   71  194 1    
   143   72   73 2    
   144   72   74 am   BACKBONE|DICT|INTERRES
   145   74   75 1    
   146   74  195 1    
   147   75   76 1    
   148   75   77 1    
   149   75  196 1    
   150   76  197 1    
   151   76  198 1    
   152   76  199 1    
   153   77   78 2    
   154   77   79 am   BACKBONE|DICT|INTERRES
   155   79   80 1    
   156   79  200 1    
   157   80   81 1    
   158   80   82 1    
   159   80  201 1    
   160   81  202 1    
   161   81  203 1    
   162   81  204 1    
   163   82   83 2    
   164   82   84 am   BACKBONE|DICT|INTERRES
   165   84   85 1    
   166   84  205 1    
   167   85   86 1    
   168   85   87 1    
   169   85  206 1    
   170   86  207 1    
   171   86  208 1    
   172   86  209 1    
   173   87   88 2    
   174   87   89 am   BACKBONE|DICT|INTERRES
   175   89   90 1    
   176   89  210 1    
   177   90   91 1    
   178   90   92 1    
   179   90  211 1    
   180   91  212 1    
   181   91  213 1    
   182   91  214 1    
   183   92   93 2    
   184   92   94 am   BACKBONE|DICT|INTERRES
   185   94   95 1    
   186   94  215 1    
   187   95   96 1    
   188   95   97 1    
   189   95  216 1    
   190   96  217 1    
   191   96  218 1    
   192   96  219 1    
   193   97   98 2    
   194   97   99 am   BACKBONE|DICT|INTERRES
   195   99  100 1    
   196   99  220 1    
   197  100  101 1    
   198  100  102 1    
   199  100  221 1    
   200  101  222 1    
   201  101  223 1    
   202  101  224 1    
   203  102  103 2    
   204  102  104 am   BACKBONE|DICT|INTERRES
   205  104  105 1    
   206  104  225 1    
   207  105  106 1    
   208  105  107 1    
   209  105  226 1    
   210  106  227 1    
   211  106  228 1    
   212  106  229 1    
   213  107  108 2    
   214  107  109 am   BACKBONE|DICT|INTERRES
   215  109  110 1    
   216  109  230 1    
   217  110  111 1    
   218  110  112 1    
   219  110  231 1    
   220  111  232 1    
   221  111  233 1    
   222  111  234 1    
   223  112  113 2    
   224  112  114 am   BACKBONE|DICT|INTERRES
   225  114  115 1    
   226  114  235 1    
   227  115  116 1    
   228  115  117 1    
   229  115  236 1    
   230  116  237 1    
   231  116  238 1    
   232  116  239 1    
   233  117  118 2    
   234  117  119 am   BACKBONE|DICT|INTERRES
   235  119  120 1    
   236  119  240 1    
   237  120  121 1    
   238  120  124 1    
   239  120  241 1    
   240  121  122 am   BACKBONE|DICT|INTERRES
   241  121  123 2    
   242  122  242 1    
   243  122  243 1    
   244  124  125 1    
   245  124  244 1    
   246  124  245 1    
   247  125  126 1    
   248  126  246 1    
   249  126  247 1    
@<TRIPOS>SUBSTRUCTURE
     1 UNK         1 GROUP             0       ****    0 ROOT    
