@<TRIPOS>MOLECULE
3R540
247   249    1
SMALL
USER_CHARGES


@<TRIPOS>ATOM
      1 CA         -1.9221  -14.3248  -44.0297 C.3       0 UNK        -0.1800 
      2 C          -1.8658  -13.8671  -45.4800 C.2       0 UNK         0.5000 
      3 O          -2.8674  -13.3920  -46.0150 O.2       0 UNK        -0.5000 
      4 N          -0.6966  -14.0094  -46.1141 N.am      1 UNK        -0.5000 
      5 CA         -0.4325  -13.5855  -47.4964 C.3       1 UNK         0.1400 
      6 C6          0.7832  -14.3254  -48.1079 C.3       23 UNK        -0.0398 
      7 S7          0.5440  -16.1319  -48.1506 S.3       23 UNK        -0.2404 
      8 C8         -0.1727  -16.3474  -49.8049 C.3       23 UNK        -0.0205 
      9 C9         -0.8371  -17.7071  -49.9606 C.ar      23 UNK        -0.0193 
     10 C10        -2.2289  -17.8194  -49.8909 C.ar      23 UNK        -0.1150 
     11 C11        -2.8530  -19.0457  -50.1342 C.ar      23 UNK        -0.0193 
     12 C12        -2.0739  -20.1719  -50.4073 C.ar      23 UNK        -0.1150 
     13 C13        -0.6787  -20.0850  -50.4383 C.ar      23 UNK        -0.0193 
     14 C14        -0.0674  -18.8454  -50.2212 C.ar      23 UNK        -0.1150 
     15 C15         0.1719  -21.3138  -50.7445 C.3       23 UNK        -0.0205 
     16 S16        -0.3319  -22.7993  -49.8115 S.3       23 UNK        -0.2404 
     17 C17        -0.1245  -22.2207  -48.0946 C.3       23 UNK        -0.0398 
     18 CA          0.0438  -23.3821  -47.0881 C.3       11 UNK         0.1400 
     19 N           0.5944  -22.9247  -45.8138 N.am      11 UNK        -0.5000 
     20 C           0.9807  -23.7212  -44.8077 C.2       10 UNK         0.5000 
     21 O           0.9799  -24.9504  -44.8669 O.2       10 UNK        -0.5000 
     22 CA          1.3711  -23.0211  -43.4938 C.3       10 UNK         0.1400 
     23 CB          2.8100  -22.4867  -43.5550 C.3       10 UNK        -0.1800 
     24 N           0.4512  -21.9299  -43.1678 N.am      10 UNK        -0.5000 
     25 C          -0.8424  -22.1024  -42.8595 C.2       9 UNK         0.5000 
     26 O          -1.3777  -23.2054  -42.7463 O.2       9 UNK        -0.5000 
     27 CA         -1.6881  -20.8273  -42.7043 C.3       9 UNK         0.1400 
     28 CB         -1.5465  -20.2428  -41.2911 C.3       9 UNK        -0.1800 
     29 N          -1.3330  -19.8138  -43.6991 N.am      9 UNK        -0.5000 
     30 C          -1.6406  -19.9030  -45.0024 C.2       8 UNK         0.5000 
     31 O          -2.2661  -20.8419  -45.4902 O.2       8 UNK        -0.5000 
     32 CA         -1.1340  -18.7807  -45.9263 C.3       8 UNK         0.1400 
     33 CB         -2.1425  -17.6223  -45.9489 C.3       8 UNK        -0.1800 
     34 N           0.1858  -18.2816  -45.5392 N.am      8 UNK        -0.5000 
     35 C           1.3048  -19.0197  -45.5187 C.2       7 UNK         0.5000 
     36 O           1.3478  -20.1965  -45.8733 O.2       7 UNK        -0.5000 
     37 CA          2.5778  -18.3625  -44.9523 C.3       7 UNK         0.1400 
     38 CB          3.4634  -17.8283  -46.0872 C.3       7 UNK        -0.1800 
     39 N           2.3226  -17.2818  -43.9974 N.am      7 UNK        -0.5000 
     40 C           1.6380  -17.3813  -42.8500 C.2       6 UNK         0.5000 
     41 O           1.1194  -18.4333  -42.4729 O.2       6 UNK        -0.5000 
     42 CA          1.4810  -16.1046  -41.9894 C.3       6 UNK         0.1400 
     43 CB          1.6730  -16.4113  -40.4943 C.3       6 UNK        -0.1800 
     44 N           2.3623  -14.9861  -42.3485 N.am      6 UNK        -0.5000 
     45 C           2.2950  -14.2376  -43.4559 C.2       5 UNK         0.5000 
     46 O           1.4952  -14.4430  -44.3707 O.2       5 UNK        -0.5000 
     47 CA          3.2820  -13.0631  -43.5287 C.3       5 UNK         0.1400 
     48 CB          3.4324  -12.5053  -44.9532 C.3       5 UNK        -0.1800 
     49 N           2.8171  -12.0032  -42.6366 N.am      5 UNK        -0.5000 
     50 C           3.2557  -11.8105  -41.3849 C.2       4 UNK         0.5000 
     51 O           4.1252  -12.5138  -40.8671 O.2       4 UNK        -0.5000 
     52 CA          2.6015  -10.6863  -40.5479 C.3       4 UNK         0.1400 
     53 CB          3.6342   -9.9064  -39.7070 C.3       4 UNK        -0.1800 
     54 N           1.7396   -9.7717  -41.3085 N.am      4 UNK        -0.5000 
     55 C           2.0998   -8.8954  -42.2571 C.2       3 UNK         0.5000 
     56 O           3.2586   -8.7049  -42.6308 O.2       3 UNK        -0.5000 
     57 CA          0.9428   -8.1374  -42.9400 C.3       3 UNK         0.1400 
     58 CB          1.1676   -6.6174  -42.8899 C.3       3 UNK        -0.1800 
     59 N           0.7562   -8.5501  -44.3335 N.am      3 UNK        -0.5000 
     60 C           0.5406   -9.8049  -44.7486 C.2       2 UNK         0.5000 
     61 O           0.4457  -10.7719  -43.9835 O.2       2 UNK        -0.5000 
     62 CA          0.4227  -10.0223  -46.2671 C.3       2 UNK         0.1400 
     63 CB          1.7073   -9.5934  -47.0063 C.3       2 UNK        -0.1800 
     64 N           0.1600  -11.4397  -46.4767 N.am      2 UNK        -0.5000 
     65 C          -0.2312  -12.0574  -47.5946 C.2       1 UNK         0.5000 
     66 O          -0.4325  -11.4802  -48.6638 O.2       1 UNK        -0.5000 
     67 C          -1.2678  -24.1672  -46.8865 C.2       11 UNK         0.5000 
     68 O          -1.3921  -25.2655  -47.4279 O.2       11 UNK        -0.5000 
     69 N          -2.1984  -23.6264  -46.0846 N.am      12 UNK        -0.5000 
     70 CA         -3.4763  -24.2532  -45.7317 C.3       12 UNK         0.1400 
     71 CB         -4.3245  -23.2857  -44.8941 C.3       12 UNK        -0.1800 
     72 C          -3.3250  -25.6057  -45.0164 C.2       12 UNK         0.5000 
     73 O          -4.0890  -26.5281  -45.3020 O.2       12 UNK        -0.5000 
     74 N          -2.3269  -25.7095  -44.1291 N.am      13 UNK        -0.5000 
     75 CA         -1.9528  -26.9535  -43.4581 C.3       13 UNK         0.1400 
     76 CB         -0.9776  -26.6403  -42.3131 C.3       13 UNK        -0.1800 
     77 C          -1.3498  -27.9942  -44.4227 C.2       13 UNK         0.5000 
     78 O          -1.5818  -29.1900  -44.2407 O.2       13 UNK        -0.5000 
     79 N          -0.5911  -27.5264  -45.4234 N.am      14 UNK        -0.5000 
     80 CA          0.0546  -28.3595  -46.4342 C.3       14 UNK         0.1400 
     81 CB          1.2061  -27.5803  -47.0911 C.3       14 UNK        -0.1800 
     82 C          -0.9307  -28.8922  -47.4906 C.2       14 UNK         0.5000 
     83 O          -0.9849  -30.1055  -47.6990 O.2       14 UNK        -0.5000 
     84 N          -1.6734  -27.9906  -48.1494 N.am      15 UNK        -0.5000 
     85 CA         -2.5521  -28.3223  -49.2801 C.3       15 UNK         0.1400 
     86 CB         -1.7027  -28.6540  -50.5253 C.3       15 UNK        -0.1800 
     87 C          -3.5802  -27.2316  -49.6380 C.2       15 UNK         0.5000 
     88 O          -4.5481  -27.5427  -50.3316 O.2       15 UNK        -0.5000 
     89 N          -3.3473  -25.9811  -49.2139 N.am      16 UNK        -0.5000 
     90 CA         -4.1251  -24.7609  -49.4839 C.3       16 UNK         0.1400 
     91 CB         -5.5996  -24.9153  -49.0544 C.3       16 UNK        -0.1800 
     92 C          -3.9999  -24.2050  -50.9170 C.2       16 UNK         0.5000 
     93 O          -4.5576  -23.1406  -51.1852 O.2       16 UNK        -0.5000 
     94 N          -3.2528  -24.8963  -51.7908 N.am      17 UNK        -0.5000 
     95 CA         -2.9762  -24.5565  -53.1892 C.3       17 UNK         0.1400 
     96 CB         -1.9939  -23.3659  -53.2640 C.3       17 UNK        -0.1800 
     97 C          -4.2720  -24.3690  -54.0101 C.2       17 UNK         0.5000 
     98 O          -5.0568  -25.3134  -54.1177 O.2       17 UNK        -0.5000 
     99 N          -4.4734  -23.1734  -54.5699 N.am      18 UNK        -0.5000 
    100 CA        -5.6480  -22.7554  -55.3227 C.3       18 UNK         0.1400 
    101 CB        -5.5319  -23.2348  -56.7809 C.3       18 UNK        -0.1800 
    102 C         -5.7300  -21.2254  -55.2542 C.2       18 UNK         0.5000 
    103 O         -4.7279  -20.5743  -54.9463 O.2       18 UNK        -0.5000 
    104 N         -6.8987  -20.6658  -55.5941 N.am      19 UNK        -0.5000 
    105 CA        -7.1744  -19.2228  -55.5864 C.3       19 UNK         0.1400 
    106 CB        -8.6353  -18.9854  -55.9958 C.3       19 UNK        -0.1800 
    107 C         -6.2244  -18.3893  -56.4716 C.2       19 UNK         0.5000 
    108 O         -5.9409  -17.2373  -56.1418 O.2       19 UNK        -0.5000 
    109 N         -5.7110  -19.0030  -57.5469 N.am      20 UNK        -0.5000 
    110 CA        -4.6910  -18.4382  -58.4314 C.3       20 UNK         0.1400 
    111 CB        -4.5428  -19.3453  -59.6624 C.3       20 UNK        -0.1800 
    112 C         -3.3241  -18.2331  -57.7453 C.2       20 UNK         0.5000 
    113 O         -2.5830  -17.3348  -58.1464 O.2       20 UNK        -0.5000 
    114 N         -3.0162  -19.0513  -56.7284 N.am      21 UNK        -0.5000 
    115 CA        -1.8314  -18.9026  -55.8847 C.3       21 UNK         0.1400 
    116 CB        -1.4073  -20.2726  -55.3315 C.3       21 UNK        -0.1800 
    117 C         -2.0933  -17.9120  -54.7385 C.2       21 UNK         0.5000 
    118 O         -1.2044  -17.1232  -54.4144 O.2       21 UNK        -0.5000 
    119 N         -3.3008  -17.9625  -54.1561 N.am      22 UNK        -0.5000 
    120 CA        -3.7298  -17.0607  -53.0749 C.3       22 UNK         0.1400 
    121 C         -3.8739  -15.5760  -53.5115 C.2       22 UNK         0.5000 
    122 N         -4.3797  -15.2956  -54.7062 N.am      22 UNK        -0.7600 
    123 O         -3.5255  -14.6714  -52.7580 O.2       22 UNK        -0.5000 
    124 C124       -5.0277  -17.5256  -52.3634 C.3       23 UNK        -0.0398 
    125 S125       -5.0302  -19.2697  -51.8235 S.3       23 UNK        -0.2404 
    126 C126       -4.3684  -19.1623  -50.1297 C.3       23 UNK        -0.0205 
    127 H127       -1.1339  -15.0441  -43.8097 H         1 UNK         0.0600 
    128 H128       -1.8056  -13.4710  -43.3623 H         1 UNK         0.0600 
    129 H129       -2.8796  -14.8006  -43.8179 H         1 UNK         0.0600 
    130 H130        0.1085  -14.3531  -45.5943 H         1 UNK         0.3000 
    131 H131       -1.3094  -13.8281  -48.1005 H         1 UNK         0.0600 
    132 H132        0.9864  -13.9734  -49.1211 H         1 UNK         0.0800 
    133 H133        1.6845  -14.1191  -47.5276 H         1 UNK         0.0800 
    134 H134       -0.8993  -15.5555  -49.9936 H         1 UNK         0.0800 
    135 H135        0.6101  -16.2305  -50.5557 H         1 UNK         0.0800 
    136 H136       -2.8288  -16.9431  -49.6897 H         1 UNK         0.1150 
    137 H137       -2.5599  -21.1175  -50.6046 H         1 UNK         0.1150 
    138 H138        1.0090  -18.7585  -50.2691 H         1 UNK         0.1150 
    139 H139        0.1010  -21.5268  -51.8116 H         1 UNK         0.0800 
    140 H140        1.2247  -21.1143  -50.5390 H         1 UNK         0.0800 
    141 H141       -0.9647  -21.5783  -47.8265 H         1 UNK         0.0800 
    142 H142        0.7617  -21.5854  -48.0693 H         1 UNK         0.0800 
    143 H143        0.7767  -24.0777  -47.5027 H         1 UNK         0.0600 
    144 H144        0.6948  -21.9185  -45.7022 H         1 UNK         0.3000 
    145 H145        1.3164  -23.7606  -42.6920 H         1 UNK         0.0600 
    146 H146        3.0993  -22.0238  -42.6114 H         1 UNK         0.0600 
    147 H147        3.5154  -23.2952  -43.7504 H         1 UNK         0.0600 
    148 H148        2.9362  -21.7459  -44.3444 H         1 UNK         0.0600 
    149 H149        0.8055  -20.9874  -43.2496 H         1 UNK         0.3000 
    150 H150       -2.7355  -21.0985  -42.8513 H         1 UNK         0.0600 
    151 H151       -1.8746  -20.9623  -40.5400 H         1 UNK         0.0600 
    152 H152       -2.1556  -19.3468  -41.1712 H         1 UNK         0.0600 
    153 H153       -0.5138  -19.9801  -41.0607 H         1 UNK         0.0600 
    154 H154       -0.7459  -19.0527  -43.3803 H         1 UNK         0.3000 
    155 H155       -1.0550  -19.1852  -46.9378 H         1 UNK         0.0600 
    156 H156       -1.8488  -16.8492  -46.6573 H         1 UNK         0.0600 
    157 H157       -2.2462  -17.1597  -44.9673 H         1 UNK         0.0600 
    158 H158       -3.1296  -17.9733  -46.2526 H         1 UNK         0.0600 
    159 H159        0.2464  -17.3151  -45.2568 H         1 UNK         0.3000 
    160 H160        3.1321  -19.1408  -44.4242 H         1 UNK         0.0600 
    161 H161        2.9914  -16.9943  -46.6070 H         1 UNK         0.0600 
    162 H162        3.6652  -18.6048  -46.8264 H         1 UNK         0.0600 
    163 H163        4.4256  -17.4844  -45.7075 H         1 UNK         0.0600 
    164 H164        2.6516  -16.3637  -44.2597 H         1 UNK         0.3000 
    165 H165        0.4521  -15.7684  -42.1267 H         1 UNK         0.0600 
    166 H166        2.6816  -16.7702  -40.2860 H         1 UNK         0.0600 
    167 H167        1.4986  -15.5251  -39.8837 H         1 UNK         0.0600 
    168 H168        0.9746  -17.1766  -40.1528 H         1 UNK         0.0600 
    169 H169        3.0570  -14.7364  -41.6577 H         1 UNK         0.3000 
    170 H170        4.2636  -13.4264  -43.2175 H         1 UNK         0.0600 
    171 H171        3.8152  -13.2683  -45.6320 H         1 UNK         0.0600 
    172 H172        2.4819  -12.1621  -45.3535 H         1 UNK         0.0600 
    173 H173        4.1281  -11.6665  -44.9769 H         1 UNK         0.0600 
    174 H174        2.0442  -11.4398  -42.9775 H         1 UNK         0.3000 
    175 H175        1.9380  -11.1967  -39.8485 H         1 UNK         0.0600 
    176 H176        3.1537   -9.1293  -39.1126 H         1 UNK         0.0600 
    177 H177        4.1535  -10.5676  -39.0124 H         1 UNK         0.0600 
    178 H178        4.3925   -9.4326  -40.3307 H         1 UNK         0.0600 
    179 H179        0.7513   -9.8744  -41.1226 H         1 UNK         0.3000 
    180 H180        0.0156   -8.3550  -42.4059 H         1 UNK         0.0600 
    181 H181        2.0519   -6.3211  -43.4557 H         1 UNK         0.0600 
    182 H182        1.3064   -6.2777  -41.8627 H         1 UNK         0.0600 
    183 H183        0.3123   -6.0777  -43.2968 H         1 UNK         0.0600 
    184 H184        0.8432   -7.8198  -45.0249 H         1 UNK         0.3000 
    185 H185       -0.4290   -9.4465  -46.6338 H         1 UNK         0.0600 
    186 H186        1.6342   -9.7786  -48.0777 H         1 UNK         0.0600 
    187 H187        1.8975   -8.5269  -46.8837 H         1 UNK         0.0600 
    188 H188        2.5838  -10.1256  -46.6365 H         1 UNK         0.0600 
    189 H189        0.2372  -11.9838  -45.6245 H         1 UNK         0.3000 
    190 H190       -2.0488  -22.6895  -45.7184 H         1 UNK         0.3000 
    191 H191       -4.0164  -24.4432  -46.6562 H         1 UNK         0.0600 
    192 H192       -4.5333  -22.3677  -45.4433 H         1 UNK         0.0600 
    193 H193       -5.2851  -23.7323  -44.6345 H         1 UNK         0.0600 
    194 H194       -3.8264  -23.0157  -43.9634 H         1 UNK         0.0600 
    195 H195       -1.7837  -24.8831  -43.9029 H         1 UNK         0.3000 
    196 H196       -2.8556  -27.3879  -43.0236 H         1 UNK         0.0600 
    197 H197       -0.7064  -27.5475  -41.7719 H         1 UNK         0.0600 
    198 H198       -1.4225  -25.9522  -41.5939 H         1 UNK         0.0600 
    199 H199       -0.0557  -26.1886  -42.6801 H         1 UNK         0.0600 
    200 H200       -0.4232  -26.5291  -45.4812 H         1 UNK         0.3000 
    201 H201        0.4941  -29.2227  -45.9295 H         1 UNK         0.0600 
    202 H202        1.9465  -27.2764  -46.3509 H         1 UNK         0.0600 
    203 H203        0.8564  -26.6815  -47.5983 H         1 UNK         0.0600 
    204 H204        1.7195  -28.1949  -47.8315 H         1 UNK         0.0600 
    205 H205       -1.5889  -27.0127  -47.8835 H         1 UNK         0.3000 
    206 H206       -3.1321  -29.2072  -49.0096 H         1 UNK         0.0600 
    207 H207       -1.0789  -29.5332  -50.3659 H         1 UNK         0.0600 
    208 H208       -2.3331  -28.8675  -51.3897 H         1 UNK         0.0600 
    209 H209       -1.0476  -27.8242  -50.7929 H         1 UNK         0.0600 
    210 H210       -2.5179  -25.8097  -48.6505 H         1 UNK         0.3000 
    211 H211       -3.6802  -23.9911  -48.8534 H         1 UNK         0.0600 
    212 H212       -5.6857  -25.3490  -48.0583 H         1 UNK         0.0600 
    213 H213       -6.1579  -25.5493  -49.7434 H         1 UNK         0.0600 
    214 H214       -6.0999  -23.9466  -49.0322 H         1 UNK         0.0600 
    215 H215       -2.8717  -25.7740  -51.4718 H         1 UNK         0.3000 
    216 H216       -2.4716  -25.4220  -53.6208 H         1 UNK         0.0600 
    217 H217       -1.0690  -23.5970  -52.7362 H         1 UNK         0.0600 
    218 H218       -2.4076  -22.4594  -52.8202 H         1 UNK         0.0600 
    219 H219       -1.7209  -23.1439  -54.2961 H         1 UNK         0.0600 
    220 H220       -3.8284  -22.4171  -54.3765 H         1 UNK         0.3000 
    221 H221       -6.5450  -23.1720  -54.8600 H         1 UNK         0.0600 
    222 H222       -4.6461  -22.8248  -57.2682 H         1 UNK         0.0600 
    223 H223       -5.4699  -24.3217  -56.8366 H         1 UNK         0.0600 
    224 H224       -6.4005  -22.9321  -57.3667 H         1 UNK         0.0600 
    225 H225       -7.6693  -21.2653  -55.8523 H         1 UNK         0.3000 
    226 H226       -7.0482  -18.8749  -54.5598 H         1 UNK         0.0600 
    227 H227       -9.3230  -19.4868  -55.3146 H         1 UNK         0.0600 
    228 H228       -8.8789  -17.9222  -55.9759 H         1 UNK         0.0600 
    229 H229       -8.8346  -19.3493  -57.0045 H         1 UNK         0.0600 
    230 H230       -6.0030  -19.9496  -57.7387 H         1 UNK         0.3000 
    231 H231       -5.0410  -17.4595  -58.7664 H         1 UNK         0.0600 
    232 H232       -5.4852  -19.4346  -60.2031 H         1 UNK         0.0600 
    233 H233       -4.2167  -20.3488  -59.3856 H         1 UNK         0.0600 
    234 H234       -3.8069  -18.9414  -60.3591 H         1 UNK         0.0600 
    235 H235       -3.7036  -19.7257  -56.4116 H         1 UNK         0.3000 
    236 H236       -1.0056  -18.5173  -56.4866 H         1 UNK         0.0600 
    237 H237       -1.2559  -20.9956  -56.1330 H         1 UNK         0.0600 
    238 H238       -0.4692  -20.1934  -54.7808 H         1 UNK         0.0600 
    239 H239       -2.1490  -20.6791  -54.6452 H         1 UNK         0.0600 
    240 H240       -3.9539  -18.6845  -54.4356 H         1 UNK         0.3000 
    241 H241       -2.9303  -17.0775  -52.3359 H         1 UNK         0.0600 
    242 H242       -4.4706  -14.3343  -54.9928 H         1 UNK         0.3800 
    243 H243       -4.7588  -16.0325  -55.2958 H         1 UNK         0.3800 
    244 H244       -5.2311  -16.8922  -51.4983 H         1 UNK         0.0800 
    245 H245       -5.8808  -17.3962  -53.0308 H         1 UNK         0.0800 
    246 H246       -4.6533  -20.0654  -49.5877 H         1 UNK         0.0800 
    247 H247       -4.8273  -18.3288  -49.5960 H         1 UNK         0.0800 
@<TRIPOS>BOND
     1    1    2 1    
     2    1  127 1    
     3    1  128 1    
     4    1  129 1    
     5    2    3 2    
     6    2    4 am   BACKBONE|DICT|INTERRES
     7    4    5 1    
     8    4  130 1    
     9    5    6 1    
    10    5   65 1    
    11    5  131 1    
    12    6    7 1    
    13    6  132 1    
    14    6  133 1    
    15    7    8 1    
    16    8    9 1    
    17    8  134 1    
    18    8  135 1    
    19    9   10 ar   
    20    9   14 ar   
    21   10   11 ar   
    22   10  136 1    
    23   11   12 ar   
    24   11  126 1    
    25   12   13 ar   
    26   12  137 1    
    27   13   14 ar   
    28   13   15 1    
    29   14  138 1    
    30   15   16 1    
    31   15  139 1    
    32   15  140 1    
    33   16   17 1    
    34   17   18 1    
    35   17  141 1    
    36   17  142 1    
    37   18   19 1    
    38   18   67 1    
    39   18  143 1    
    40   19   20 am   BACKBONE|DICT|INTERRES
    41   19  144 1    
    42   20   21 2    
    43   20   22 1    
    44   22   23 1    
    45   22   24 1    
    46   22  145 1    
    47   23  146 1    
    48   23  147 1    
    49   23  148 1    
    50   24   25 am   BACKBONE|DICT|INTERRES
    51   24  149 1    
    52   25   26 2    
    53   25   27 1    
    54   27   28 1    
    55   27   29 1    
    56   27  150 1    
    57   28  151 1    
    58   28  152 1    
    59   28  153 1    
    60   29   30 am   BACKBONE|DICT|INTERRES
    61   29  154 1    
    62   30   31 2    
    63   30   32 1    
    64   32   33 1    
    65   32   34 1    
    66   32  155 1    
    67   33  156 1    
    68   33  157 1    
    69   33  158 1    
    70   34   35 am   BACKBONE|DICT|INTERRES
    71   34  159 1    
    72   35   36 2    
    73   35   37 1    
    74   37   38 1    
    75   37   39 1    
    76   37  160 1    
    77   38  161 1    
    78   38  162 1    
    79   38  163 1    
    80   39   40 am   BACKBONE|DICT|INTERRES
    81   39  164 1    
    82   40   41 2    
    83   40   42 1    
    84   42   43 1    
    85   42   44 1    
    86   42  165 1    
    87   43  166 1    
    88   43  167 1    
    89   43  168 1    
    90   44   45 am   BACKBONE|DICT|INTERRES
    91   44  169 1    
    92   45   46 2    
    93   45   47 1    
    94   47   48 1    
    95   47   49 1    
    96   47  170 1    
    97   48  171 1    
    98   48  172 1    
    99   48  173 1    
   100   49   50 am   BACKBONE|DICT|INTERRES
   101   49  174 1    
   102   50   51 2    
   103   50   52 1    
   104   52   53 1    
   105   52   54 1    
   106   52  175 1    
   107   53  176 1    
   108   53  177 1    
   109   53  178 1    
   110   54   55 am   BACKBONE|DICT|INTERRES
   111   54  179 1    
   112   55   56 2    
   113   55   57 1    
   114   57   58 1    
   115   57   59 1    
   116   57  180 1    
   117   58  181 1    
   118   58  182 1    
   119   58  183 1    
   120   59   60 am   BACKBONE|DICT|INTERRES
   121   59  184 1    
   122   60   61 2    
   123   60   62 1    
   124   62   63 1    
   125   62   64 1    
   126   62  185 1    
   127   63  186 1    
   128   63  187 1    
   129   63  188 1    
   130   64   65 am   BACKBONE|DICT|INTERRES
   131   64  189 1    
   132   65   66 2    
   133   67   68 2    
   134   67   69 am   BACKBONE|DICT|INTERRES
   135   69   70 1    
   136   69  190 1    
   137   70   71 1    
   138   70   72 1    
   139   70  191 1    
   140   71  192 1    
   141   71  193 1    
   142   71  194 1    
   143   72   73 2    
   144   72   74 am   BACKBONE|DICT|INTERRES
   145   74   75 1    
   146   74  195 1    
   147   75   76 1    
   148   75   77 1    
   149   75  196 1    
   150   76  197 1    
   151   76  198 1    
   152   76  199 1    
   153   77   78 2    
   154   77   79 am   BACKBONE|DICT|INTERRES
   155   79   80 1    
   156   79  200 1    
   157   80   81 1    
   158   80   82 1    
   159   80  201 1    
   160   81  202 1    
   161   81  203 1    
   162   81  204 1    
   163   82   83 2    
   164   82   84 am   BACKBONE|DICT|INTERRES
   165   84   85 1    
   166   84  205 1    
   167   85   86 1    
   168   85   87 1    
   169   85  206 1    
   170   86  207 1    
   171   86  208 1    
   172   86  209 1    
   173   87   88 2    
   174   87   89 am   BACKBONE|DICT|INTERRES
   175   89   90 1    
   176   89  210 1    
   177   90   91 1    
   178   90   92 1    
   179   90  211 1    
   180   91  212 1    
   181   91  213 1    
   182   91  214 1    
   183   92   93 2    
   184   92   94 am   BACKBONE|DICT|INTERRES
   185   94   95 1    
   186   94  215 1    
   187   95   96 1    
   188   95   97 1    
   189   95  216 1    
   190   96  217 1    
   191   96  218 1    
   192   96  219 1    
   193   97   98 2    
   194   97   99 am   BACKBONE|DICT|INTERRES
   195   99  100 1    
   196   99  220 1    
   197  100  101 1    
   198  100  102 1    
   199  100  221 1    
   200  101  222 1    
   201  101  223 1    
   202  101  224 1    
   203  102  103 2    
   204  102  104 am   BACKBONE|DICT|INTERRES
   205  104  105 1    
   206  104  225 1    
   207  105  106 1    
   208  105  107 1    
   209  105  226 1    
   210  106  227 1    
   211  106  228 1    
   212  106  229 1    
   213  107  108 2    
   214  107  109 am   BACKBONE|DICT|INTERRES
   215  109  110 1    
   216  109  230 1    
   217  110  111 1    
   218  110  112 1    
   219  110  231 1    
   220  111  232 1    
   221  111  233 1    
   222  111  234 1    
   223  112  113 2    
   224  112  114 am   BACKBONE|DICT|INTERRES
   225  114  115 1    
   226  114  235 1    
   227  115  116 1    
   228  115  117 1    
   229  115  236 1    
   230  116  237 1    
   231  116  238 1    
   232  116  239 1    
   233  117  118 2    
   234  117  119 am   BACKBONE|DICT|INTERRES
   235  119  120 1    
   236  119  240 1    
   237  120  121 1    
   238  120  124 1    
   239  120  241 1    
   240  121  122 am   BACKBONE|DICT|INTERRES
   241  121  123 2    
   242  122  242 1    
   243  122  243 1    
   244  124  125 1    
   245  124  244 1    
   246  124  245 1    
   247  125  126 1    
   248  126  246 1    
   249  126  247 1    
@<TRIPOS>SUBSTRUCTURE
     1 UNK         1 GROUP             0       ****    0 ROOT    
