@<TRIPOS>MOLECULE
3R540
247   249    1
SMALL
USER_CHARGES


@<TRIPOS>ATOM
      1 CA          0.3428  -12.6913  -48.9606 C.3       0 UNK        -0.1800 
      2 C           1.8616  -12.7387  -49.0557 C.2       0 UNK         0.5000 
      3 O           2.4213  -12.3820  -50.0924 O.2       0 UNK        -0.5000 
      4 N           2.5275  -13.1847  -47.9871 N.am      1 UNK        -0.5000 
      5 CA          3.9801  -13.3348  -47.9071 C.3       1 UNK         0.1400 
      6 C6          4.5317  -14.5739  -48.6746 C.3       23 UNK        -0.0398 
      7 S7          3.5884  -16.1270  -48.4549 S.3       23 UNK        -0.2404 
      8 C8          2.7557  -16.2446  -50.0687 C.3       23 UNK        -0.0205 
      9 C9          1.5349  -17.1425  -49.9895 C.ar      23 UNK        -0.0193 
     10 C10         0.3236  -16.6289  -49.5225 C.ar      23 UNK        -0.1150 
     11 C11        -0.8085  -17.4419  -49.4373 C.ar      23 UNK        -0.0193 
     12 C12        -0.7187  -18.7858  -49.8150 C.ar      23 UNK        -0.1150 
     13 C13         0.4894  -19.3124  -50.2859 C.ar      23 UNK        -0.0193 
     14 C14         1.6099  -18.4806  -50.3811 C.ar      23 UNK        -0.1150 
     15 C15         0.5829  -20.7824  -50.6790 C.3       23 UNK        -0.0205 
     16 S16         1.9566  -21.6663  -49.8576 S.3       23 UNK        -0.2404 
     17 C17         1.6395  -21.3321  -48.0884 C.3       23 UNK        -0.0398 
     18 CA          0.9132  -22.4805  -47.3528 C.3       11 UNK         0.1400 
     19 N           0.9267  -22.2840  -45.9027 N.am      11 UNK        -0.5000 
     20 C           0.4837  -23.1725  -45.0023 C.2       10 UNK         0.5000 
     21 O           0.0744  -24.2962  -45.2912 O.2       10 UNK        -0.5000 
     22 CA          0.4414  -22.7091  -43.5368 C.3       10 UNK         0.1400 
     23 CB          1.8269  -22.8358  -42.8867 C.3       10 UNK        -0.1800 
     24 N          -0.0538  -21.3382  -43.3978 N.am      10 UNK        -0.5000 
     25 C          -1.2907  -20.9422  -43.7330 C.2       9 UNK         0.5000 
     26 O          -2.1605  -21.7065  -44.1506 O.2       9 UNK        -0.5000 
     27 CA         -1.5980  -19.4372  -43.6250 C.3       9 UNK         0.1400 
     28 CB         -1.8722  -19.0350  -42.1686 C.3       9 UNK        -0.1800 
     29 N          -0.5294  -18.6011  -44.1704 N.am      9 UNK        -0.5000 
     30 C          -0.1436  -18.5927  -45.4542 C.2       8 UNK         0.5000 
     31 O          -0.6758  -19.2705  -46.3325 O.2       8 UNK        -0.5000 
     32 CA          1.0807  -17.7249  -45.7961 C.3       8 UNK         0.1400 
     33 CB          0.6979  -16.2417  -45.9187 C.3       8 UNK        -0.1800 
     34 N           2.1401  -17.8665  -44.7978 N.am      8 UNK        -0.5000 
     35 C           2.8373  -18.9894  -44.5783 C.2       7 UNK         0.5000 
     36 O           2.6787  -20.0315  -45.2136 O.2       7 UNK        -0.5000 
     37 CA          3.8530  -18.9502  -43.4220 C.3       7 UNK         0.1400 
     38 CB          5.1451  -18.2438  -43.8600 C.3       7 UNK        -0.1800 
     39 N           3.3194  -18.2913  -42.2283 N.am      7 UNK        -0.5000 
     40 C           2.3042  -18.7627  -41.4893 C.2       6 UNK         0.5000 
     41 O           1.7353  -19.8297  -41.7114 O.2       6 UNK        -0.5000 
     42 CA          1.8042  -17.8662  -40.3398 C.3       6 UNK         0.1400 
     43 CB          2.6151  -18.1240  -39.0613 C.3       6 UNK        -0.1800 
     44 N           1.8401  -16.4361  -40.6603 N.am      6 UNK        -0.5000 
     45 C           1.1808  -15.8702  -41.6797 C.2       5 UNK         0.5000 
     46 O           0.4601  -16.5021  -42.4560 O.2       5 UNK        -0.5000 
     47 CA          1.4254  -14.3663  -41.8942 C.3       5 UNK         0.1400 
     48 CB          2.8602  -14.1189  -42.3908 C.3       5 UNK        -0.1800 
     49 N           0.5092  -13.8078  -42.8821 N.am      5 UNK        -0.5000 
     50 C          -0.7781  -13.5034  -42.6921 C.2       4 UNK         0.5000 
     51 O          -1.3471  -13.5979  -41.6027 O.2       4 UNK        -0.5000 
     52 CA         -1.5306  -12.9675  -43.9337 C.3       4 UNK         0.1400 
     53 CB         -2.9868  -12.5761  -43.6249 C.3       4 UNK        -0.1800 
     54 N          -0.8503  -11.8152  -44.5367 N.am      4 UNK        -0.5000 
     55 C           0.2660  -11.8709  -45.2736 C.2       3 UNK         0.5000 
     56 O           0.8162  -12.9335  -45.5804 O.2       3 UNK        -0.5000 
     57 CA          0.9183  -10.5432  -45.6966 C.3       3 UNK         0.1400 
     58 CB          0.5648   -9.3474  -44.7895 C.3       3 UNK        -0.1800 
     59 N           2.3584  -10.7630  -45.6886 N.am      3 UNK        -0.5000 
     60 C           3.2588  -10.2136  -46.5068 C.2       2 UNK         0.5000 
     61 O           2.9988   -9.3393  -47.3332 O.2       2 UNK        -0.5000 
     62 CA          4.6953  -10.7617  -46.3923 C.3       2 UNK         0.1400 
     63 CB          5.5335   -9.8419  -45.4914 C.3       2 UNK        -0.1800 
     64 N           4.7469  -12.1252  -45.8409 N.am      2 UNK        -0.5000 
     65 C           4.3999  -13.2883  -46.4203 C.2       1 UNK         0.5000 
     66 O           4.3941  -14.3288  -45.7658 O.2       1 UNK        -0.5000 
     67 C          -0.5211  -22.6904  -47.8774 C.2       11 UNK         0.5000 
     68 O          -0.7631  -23.6717  -48.5785 O.2       11 UNK        -0.5000 
     69 N          -1.4507  -21.8026  -47.4944 N.am      12 UNK        -0.5000 
     70 CA         -2.8698  -21.8854  -47.8454 C.3       12 UNK         0.1400 
     71 CB         -3.6060  -20.6500  -47.3100 C.3       12 UNK        -0.1800 
     72 C          -3.5421  -23.1760  -47.3434 C.2       12 UNK         0.5000 
     73 O          -4.3190  -23.7787  -48.0813 O.2       12 UNK        -0.5000 
     74 N          -3.2090  -23.6012  -46.1176 N.am      13 UNK        -0.5000 
     75 CA         -3.6758  -24.8568  -45.5312 C.3       13 UNK         0.1400 
     76 CB         -3.3078  -24.8961  -44.0401 C.3       13 UNK        -0.1800 
     77 C          -3.1328  -26.0986  -46.2645 C.2       13 UNK         0.5000 
     78 O          -3.8930  -27.0358  -46.5097 O.2       13 UNK        -0.5000 
     79 N          -1.8362  -26.0838  -46.6020 N.am      14 UNK        -0.5000 
     80 CA         -1.1429  -27.1809  -47.2758 C.3       14 UNK         0.1400 
     81 CB          0.3755  -26.9862  -47.1391 C.3       14 UNK        -0.1800 
     82 C          -1.5376  -27.3300  -48.7556 C.2       14 UNK         0.5000 
     83 O          -1.8124  -28.4453  -49.2006 O.2       14 UNK        -0.5000 
     84 N          -1.5409  -26.2135  -49.4946 N.am      15 UNK        -0.5000 
     85 CA         -1.7940  -26.1800  -50.9366 C.3       15 UNK         0.1400 
     86 CB         -1.1449  -24.9172  -51.5255 C.3       15 UNK        -0.1800 
     87 C          -3.2883  -26.2240  -51.3024 C.2       15 UNK         0.5000 
     88 O          -3.6030  -26.5663  -52.4417 O.2       15 UNK        -0.5000 
     89 N          -4.1551  -25.8716  -50.3412 N.am      16 UNK        -0.5000 
     90 CA         -5.5823  -25.5563  -50.4533 C.3       16 UNK         0.1400 
     91 CB         -6.3861  -26.6061  -51.2456 C.3       16 UNK        -0.1800 
     92 C          -5.7693  -24.1386  -51.0196 C.2       16 UNK         0.5000 
     93 O          -5.2566  -23.8247  -52.0956 O.2       16 UNK        -0.5000 
     94 N          -6.5019  -23.2995  -50.2768 N.am      17 UNK        -0.5000 
     95 CA         -6.6401  -21.8604  -50.5158 C.3       17 UNK         0.1400 
     96 CB         -7.4867  -21.2441  -49.3925 C.3       17 UNK        -0.1800 
     97 C          -7.2186  -21.4901  -51.8931 C.2       17 UNK         0.5000 
     98 O          -6.8094  -20.4845  -52.4742 O.2       17 UNK        -0.5000 
     99 N          -8.1328  -22.3261  -52.4028 N.am      18 UNK        -0.5000 
    100 CA        -8.7439  -22.1814  -53.7240 C.3       18 UNK         0.1400 
    101 CB        -9.9718  -23.1001  -53.8130 C.3       18 UNK        -0.1800 
    102 C         -7.7653  -22.4754  -54.8770 C.2       18 UNK         0.5000 
    103 O         -7.8723  -21.8495  -55.9316 O.2       18 UNK        -0.5000 
    104 N         -6.8271  -23.4070  -54.6568 N.am      19 UNK        -0.5000 
    105 CA        -5.7839  -23.7698  -55.6169 C.3       19 UNK         0.1400 
    106 CB        -5.3220  -25.2094  -55.3515 C.3       19 UNK        -0.1800 
    107 C         -4.5999  -22.7906  -55.5555 C.2       19 UNK         0.5000 
    108 O         -4.0415  -22.4459  -56.5975 O.2       19 UNK        -0.5000 
    109 N         -4.2632  -22.3322  -54.3412 N.am      20 UNK        -0.5000 
    110 CA        -3.2610  -21.2959  -54.0843 C.3       20 UNK         0.1400 
    111 CB        -2.9603  -21.2551  -52.5767 C.3       20 UNK        -0.1800 
    112 C         -3.6955  -19.8987  -54.5708 C.2       20 UNK         0.5000 
    113 O         -2.8342  -19.0527  -54.8121 O.2       20 UNK        -0.5000 
    114 N         -5.0170  -19.6849  -54.6770 N.am      21 UNK        -0.5000 
    115 CA        -5.7037  -18.4181  -54.9521 C.3       21 UNK         0.1400 
    116 CB        -5.3990  -17.9183  -56.3793 C.3       21 UNK        -0.1800 
    117 C         -5.4150  -17.3697  -53.8571 C.2       21 UNK         0.5000 
    118 O         -5.2034  -16.1922  -54.1530 O.2       21 UNK        -0.5000 
    119 N         -5.3802  -17.8390  -52.6064 N.am      22 UNK        -0.5000 
    120 CA        -4.9600  -17.0978  -51.4190 C.3       22 UNK         0.1400 
    121 C         -5.4210  -17.8876  -50.1707 C.2       22 UNK         0.5000 
    122 N         -6.2954  -17.3250  -49.3484 N.am      22 UNK        -0.7600 
    123 O         -4.9688  -19.0031  -49.9329 O.2       22 UNK        -0.5000 
    124 C124       -3.4268  -16.8496  -51.4227 C.3       23 UNK        -0.0398 
    125 S125       -2.8734  -15.7066  -50.1116 S.3       23 UNK        -0.2404 
    126 C126       -2.1190  -16.8631  -48.9230 C.3       23 UNK        -0.0205 
    127 H127       -0.1040  -13.0960  -49.8688 H         1 UNK         0.0600 
    128 H128       -0.0279  -13.2763  -48.1188 H         1 UNK         0.0600 
    129 H129        0.0047  -11.6622  -48.8424 H         1 UNK         0.0600 
    130 H130        2.0187  -13.4242  -47.1407 H         1 UNK         0.3000 
    131 H131        4.4281  -12.4758  -48.4033 H         1 UNK         0.0600 
    132 H132        4.5702  -14.3406  -49.7393 H         1 UNK         0.0800 
    133 H133        5.5691  -14.7642  -48.3945 H         1 UNK         0.0800 
    134 H134        3.4614  -16.6178  -50.8122 H         1 UNK         0.0800 
    135 H135        2.4478  -15.2555  -50.4081 H         1 UNK         0.0800 
    136 H136        0.2616  -15.5936  -49.2211 H         1 UNK         0.1150 
    137 H137       -1.5897  -19.4215  -49.7369 H         1 UNK         0.1150 
    138 H138        2.5465  -18.8818  -50.7418 H         1 UNK         0.1150 
    139 H139       -0.3517  -21.3014  -50.4618 H         1 UNK         0.0800 
    140 H140        0.7212  -20.8469  -51.7588 H         1 UNK         0.0800 
    141 H141        1.1086  -20.3897  -47.9592 H         1 UNK         0.0800 
    142 H142        2.6164  -21.1757  -47.6300 H         1 UNK         0.0800 
    143 H143        1.4668  -23.4017  -47.5469 H         1 UNK         0.0600 
    144 H144        1.2918  -21.3958  -45.5722 H         1 UNK         0.3000 
    145 H145       -0.2455  -23.3674  -43.0011 H         1 UNK         0.0600 
    146 H146        1.7836  -22.6077  -41.8217 H         1 UNK         0.0600 
    147 H147        2.2143  -23.8506  -42.9856 H         1 UNK         0.0600 
    148 H148        2.5504  -22.1606  -43.3445 H         1 UNK         0.0600 
    149 H149        0.5943  -20.6609  -43.0051 H         1 UNK         0.3000 
    150 H150       -2.5005  -19.2404  -44.2071 H         1 UNK         0.0600 
    151 H151       -2.6965  -19.6152  -41.7523 H         1 UNK         0.0600 
    152 H152       -2.1438  -17.9817  -42.0950 H         1 UNK         0.0600 
    153 H153       -1.0010  -19.1998  -41.5346 H         1 UNK         0.0600 
    154 H154       -0.0602  -17.9757  -43.5197 H         1 UNK         0.3000 
    155 H155        1.4731  -18.0571  -46.7599 H         1 UNK         0.0600 
    156 H156       -0.0406  -16.0912  -46.7033 H         1 UNK         0.0600 
    157 H157        0.2712  -15.8508  -44.9960 H         1 UNK         0.0600 
    158 H158        1.5643  -15.6301  -46.1705 H         1 UNK         0.0600 
    159 H159        2.3025  -17.0713  -44.1994 H         1 UNK         0.3000 
    160 H160        4.0990  -19.9811  -43.1587 H         1 UNK         0.0600 
    161 H161        5.5729  -18.7257  -44.7401 H         1 UNK         0.0600 
    162 H162        5.8992  -18.2770  -43.0735 H         1 UNK         0.0600 
    163 H163        4.9688  -17.1972  -44.1133 H         1 UNK         0.0600 
    164 H164        3.7281  -17.4046  -41.9739 H         1 UNK         0.3000 
    165 H165        0.7643  -18.1341  -40.1426 H         1 UNK         0.0600 
    166 H166        2.2118  -17.5629  -38.2181 H         1 UNK         0.0600 
    167 H167        2.5888  -19.1801  -38.7892 H         1 UNK         0.0600 
    168 H168        3.6618  -17.8424  -39.1834 H         1 UNK         0.0600 
    169 H169        2.4177  -15.8574  -40.0676 H         1 UNK         0.3000 
    170 H170        1.2797  -13.8503  -40.9431 H         1 UNK         0.0600 
    171 H171        3.5990  -14.4595  -41.6647 H         1 UNK         0.0600 
    172 H172        3.0559  -14.6406  -43.3289 H         1 UNK         0.0600 
    173 H173        3.0414  -13.0569  -42.5578 H         1 UNK         0.0600 
    174 H174        0.8660  -13.7094  -43.8272 H         1 UNK         0.3000 
    175 H175       -1.5553  -13.7789  -44.6646 H         1 UNK         0.0600 
    176 H176       -3.0406  -11.7646  -42.8981 H         1 UNK         0.0600 
    177 H177       -3.5078  -12.2543  -44.5268 H         1 UNK         0.0600 
    178 H178       -3.5415  -13.4220  -43.2167 H         1 UNK         0.0600 
    179 H179       -1.2178  -10.9074  -44.2916 H         1 UNK         0.3000 
    180 H180        0.5872  -10.3318  -46.7150 H         1 UNK         0.0600 
    181 H181        0.8118   -9.5463  -43.7458 H         1 UNK         0.0600 
    182 H182       -0.4968   -9.1044  -44.8451 H         1 UNK         0.0600 
    183 H183        1.1094   -8.4530  -45.0925 H         1 UNK         0.0600 
    184 H184        2.6628  -11.5212  -45.0935 H         1 UNK         0.3000 
    185 H185        5.1523  -10.7413  -47.3820 H         1 UNK         0.0600 
    186 H186        5.5432   -8.8209  -45.8757 H         1 UNK         0.0600 
    187 H187        5.1412   -9.8052  -44.4741 H         1 UNK         0.0600 
    188 H188        6.5697  -10.1769  -45.4399 H         1 UNK         0.0600 
    189 H189        5.0407  -12.1716  -44.8767 H         1 UNK         0.3000 
    190 H190       -1.1687  -20.9996  -46.9369 H         1 UNK         0.3000 
    191 H191       -2.9404  -21.8772  -48.9353 H         1 UNK         0.0600 
    192 H192       -4.6564  -20.6645  -47.6029 H         1 UNK         0.0600 
    193 H193       -3.1725  -19.7335  -47.7067 H         1 UNK         0.0600 
    194 H194       -3.5660  -20.5937  -46.2222 H         1 UNK         0.0600 
    195 H195       -2.6072  -23.0191  -45.5422 H         1 UNK         0.3000 
    196 H196       -4.7649  -24.8765  -45.6088 H         1 UNK         0.0600 
    197 H197       -3.6664  -25.8141  -43.5731 H         1 UNK         0.0600 
    198 H198       -3.7556  -24.0603  -43.5022 H         1 UNK         0.0600 
    199 H199       -2.2292  -24.8498  -43.8890 H         1 UNK         0.0600 
    200 H200       -1.2664  -25.2885  -46.3274 H         1 UNK         0.3000 
    201 H201       -1.4064  -28.1108  -46.7674 H         1 UNK         0.0600 
    202 H202        0.6782  -26.9820  -46.0918 H         1 UNK         0.0600 
    203 H203        0.7027  -26.0455  -47.5839 H         1 UNK         0.0600 
    204 H204        0.9206  -27.7919  -47.6323 H         1 UNK         0.0600 
    205 H205       -1.2897  -25.3260  -49.0597 H         1 UNK         0.3000 
    206 H206       -1.3172  -27.0480  -51.3970 H         1 UNK         0.0600 
    207 H207       -0.0733  -24.8924  -51.3264 H         1 UNK         0.0600 
    208 H208       -1.2782  -24.8733  -52.6072 H         1 UNK         0.0600 
    209 H209       -1.5832  -24.0124  -51.1046 H         1 UNK         0.0600 
    210 H210       -3.7484  -25.5897  -49.4584 H         1 UNK         0.3000 
    211 H211       -5.9579  -25.5693  -49.4290 H         1 UNK         0.0600 
    212 H212       -6.1733  -26.5681  -52.3143 H         1 UNK         0.0600 
    213 H213       -7.4569  -26.4374  -51.1280 H         1 UNK         0.0600 
    214 H214       -6.1741  -27.6157  -50.8937 H         1 UNK         0.0600 
    215 H215       -6.8685  -23.6362  -49.3983 H         1 UNK         0.3000 
    216 H216       -5.6370  -21.4364  -50.4606 H         1 UNK         0.0600 
    217 H217       -7.6027  -20.1691  -49.5360 H         1 UNK         0.0600 
    218 H218       -7.0163  -21.3905  -48.4201 H         1 UNK         0.0600 
    219 H219       -8.4855  -21.6802  -49.3546 H         1 UNK         0.0600 
    220 H220       -8.4061  -23.1290  -51.8555 H         1 UNK         0.3000 
    221 H221       -9.0824  -21.1486  -53.8321 H         1 UNK         0.0600 
    222 H222       -9.7000  -24.1495  -53.6914 H         1 UNK         0.0600 
    223 H223      -10.7066  -22.8519  -53.0470 H         1 UNK         0.0600 
    224 H224      -10.4657  -22.9988  -54.7804 H         1 UNK         0.0600 
    225 H225       -6.7548  -23.8220  -53.7374 H         1 UNK         0.3000 
    226 H226       -6.1986  -23.7329  -56.6267 H         1 UNK         0.0600 
    227 H227       -6.1501  -25.9127  -55.4384 H         1 UNK         0.0600 
    228 H228       -4.5582  -25.5133  -56.0682 H         1 UNK         0.0600 
    229 H229       -4.8962  -25.3156  -54.3545 H         1 UNK         0.0600 
    230 H230       -4.7221  -22.7360  -53.5279 H         1 UNK         0.3000 
    231 H231       -2.3450  -21.5665  -54.6133 H         1 UNK         0.0600 
    232 H232       -2.6334  -22.2280  -52.2125 H         1 UNK         0.0600 
    233 H233       -3.8376  -20.9603  -52.0002 H         1 UNK         0.0600 
    234 H234       -2.1684  -20.5388  -52.3543 H         1 UNK         0.0600 
    235 H235       -5.6238  -20.4399  -54.3855 H         1 UNK         0.3000 
    236 H236       -6.7720  -18.6322  -54.8975 H         1 UNK         0.0600 
    237 H237       -6.0134  -17.0523  -56.6276 H         1 UNK         0.0600 
    238 H238       -4.3562  -17.6214  -56.4935 H         1 UNK         0.0600 
    239 H239       -5.6114  -18.6899  -57.1194 H         1 UNK         0.0600 
    240 H240       -5.6346  -18.8092  -52.4417 H         1 UNK         0.3000 
    241 H241       -5.4700  -16.1325  -51.4317 H         1 UNK         0.0600 
    242 H242       -6.6694  -16.4051  -49.5213 H         1 UNK         0.3800 
    243 H243       -6.5855  -17.8312  -48.5275 H         1 UNK         0.3800 
    244 H244       -2.8853  -17.7945  -51.3634 H         1 UNK         0.0800 
    245 H245       -3.1234  -16.4021  -52.3695 H         1 UNK         0.0800 
    246 H246       -2.8276  -17.6561  -48.6860 H         1 UNK         0.0800 
    247 H247       -1.9391  -16.3331  -47.9880 H         1 UNK         0.0800 
@<TRIPOS>BOND
     1    1    2 1    
     2    1  127 1    
     3    1  128 1    
     4    1  129 1    
     5    2    3 2    
     6    2    4 am   BACKBONE|DICT|INTERRES
     7    4    5 1    
     8    4  130 1    
     9    5    6 1    
    10    5   65 1    
    11    5  131 1    
    12    6    7 1    
    13    6  132 1    
    14    6  133 1    
    15    7    8 1    
    16    8    9 1    
    17    8  134 1    
    18    8  135 1    
    19    9   10 ar   
    20    9   14 ar   
    21   10   11 ar   
    22   10  136 1    
    23   11   12 ar   
    24   11  126 1    
    25   12   13 ar   
    26   12  137 1    
    27   13   14 ar   
    28   13   15 1    
    29   14  138 1    
    30   15   16 1    
    31   15  139 1    
    32   15  140 1    
    33   16   17 1    
    34   17   18 1    
    35   17  141 1    
    36   17  142 1    
    37   18   19 1    
    38   18   67 1    
    39   18  143 1    
    40   19   20 am   BACKBONE|DICT|INTERRES
    41   19  144 1    
    42   20   21 2    
    43   20   22 1    
    44   22   23 1    
    45   22   24 1    
    46   22  145 1    
    47   23  146 1    
    48   23  147 1    
    49   23  148 1    
    50   24   25 am   BACKBONE|DICT|INTERRES
    51   24  149 1    
    52   25   26 2    
    53   25   27 1    
    54   27   28 1    
    55   27   29 1    
    56   27  150 1    
    57   28  151 1    
    58   28  152 1    
    59   28  153 1    
    60   29   30 am   BACKBONE|DICT|INTERRES
    61   29  154 1    
    62   30   31 2    
    63   30   32 1    
    64   32   33 1    
    65   32   34 1    
    66   32  155 1    
    67   33  156 1    
    68   33  157 1    
    69   33  158 1    
    70   34   35 am   BACKBONE|DICT|INTERRES
    71   34  159 1    
    72   35   36 2    
    73   35   37 1    
    74   37   38 1    
    75   37   39 1    
    76   37  160 1    
    77   38  161 1    
    78   38  162 1    
    79   38  163 1    
    80   39   40 am   BACKBONE|DICT|INTERRES
    81   39  164 1    
    82   40   41 2    
    83   40   42 1    
    84   42   43 1    
    85   42   44 1    
    86   42  165 1    
    87   43  166 1    
    88   43  167 1    
    89   43  168 1    
    90   44   45 am   BACKBONE|DICT|INTERRES
    91   44  169 1    
    92   45   46 2    
    93   45   47 1    
    94   47   48 1    
    95   47   49 1    
    96   47  170 1    
    97   48  171 1    
    98   48  172 1    
    99   48  173 1    
   100   49   50 am   BACKBONE|DICT|INTERRES
   101   49  174 1    
   102   50   51 2    
   103   50   52 1    
   104   52   53 1    
   105   52   54 1    
   106   52  175 1    
   107   53  176 1    
   108   53  177 1    
   109   53  178 1    
   110   54   55 am   BACKBONE|DICT|INTERRES
   111   54  179 1    
   112   55   56 2    
   113   55   57 1    
   114   57   58 1    
   115   57   59 1    
   116   57  180 1    
   117   58  181 1    
   118   58  182 1    
   119   58  183 1    
   120   59   60 am   BACKBONE|DICT|INTERRES
   121   59  184 1    
   122   60   61 2    
   123   60   62 1    
   124   62   63 1    
   125   62   64 1    
   126   62  185 1    
   127   63  186 1    
   128   63  187 1    
   129   63  188 1    
   130   64   65 am   BACKBONE|DICT|INTERRES
   131   64  189 1    
   132   65   66 2    
   133   67   68 2    
   134   67   69 am   BACKBONE|DICT|INTERRES
   135   69   70 1    
   136   69  190 1    
   137   70   71 1    
   138   70   72 1    
   139   70  191 1    
   140   71  192 1    
   141   71  193 1    
   142   71  194 1    
   143   72   73 2    
   144   72   74 am   BACKBONE|DICT|INTERRES
   145   74   75 1    
   146   74  195 1    
   147   75   76 1    
   148   75   77 1    
   149   75  196 1    
   150   76  197 1    
   151   76  198 1    
   152   76  199 1    
   153   77   78 2    
   154   77   79 am   BACKBONE|DICT|INTERRES
   155   79   80 1    
   156   79  200 1    
   157   80   81 1    
   158   80   82 1    
   159   80  201 1    
   160   81  202 1    
   161   81  203 1    
   162   81  204 1    
   163   82   83 2    
   164   82   84 am   BACKBONE|DICT|INTERRES
   165   84   85 1    
   166   84  205 1    
   167   85   86 1    
   168   85   87 1    
   169   85  206 1    
   170   86  207 1    
   171   86  208 1    
   172   86  209 1    
   173   87   88 2    
   174   87   89 am   BACKBONE|DICT|INTERRES
   175   89   90 1    
   176   89  210 1    
   177   90   91 1    
   178   90   92 1    
   179   90  211 1    
   180   91  212 1    
   181   91  213 1    
   182   91  214 1    
   183   92   93 2    
   184   92   94 am   BACKBONE|DICT|INTERRES
   185   94   95 1    
   186   94  215 1    
   187   95   96 1    
   188   95   97 1    
   189   95  216 1    
   190   96  217 1    
   191   96  218 1    
   192   96  219 1    
   193   97   98 2    
   194   97   99 am   BACKBONE|DICT|INTERRES
   195   99  100 1    
   196   99  220 1    
   197  100  101 1    
   198  100  102 1    
   199  100  221 1    
   200  101  222 1    
   201  101  223 1    
   202  101  224 1    
   203  102  103 2    
   204  102  104 am   BACKBONE|DICT|INTERRES
   205  104  105 1    
   206  104  225 1    
   207  105  106 1    
   208  105  107 1    
   209  105  226 1    
   210  106  227 1    
   211  106  228 1    
   212  106  229 1    
   213  107  108 2    
   214  107  109 am   BACKBONE|DICT|INTERRES
   215  109  110 1    
   216  109  230 1    
   217  110  111 1    
   218  110  112 1    
   219  110  231 1    
   220  111  232 1    
   221  111  233 1    
   222  111  234 1    
   223  112  113 2    
   224  112  114 am   BACKBONE|DICT|INTERRES
   225  114  115 1    
   226  114  235 1    
   227  115  116 1    
   228  115  117 1    
   229  115  236 1    
   230  116  237 1    
   231  116  238 1    
   232  116  239 1    
   233  117  118 2    
   234  117  119 am   BACKBONE|DICT|INTERRES
   235  119  120 1    
   236  119  240 1    
   237  120  121 1    
   238  120  124 1    
   239  120  241 1    
   240  121  122 am   BACKBONE|DICT|INTERRES
   241  121  123 2    
   242  122  242 1    
   243  122  243 1    
   244  124  125 1    
   245  124  244 1    
   246  124  245 1    
   247  125  126 1    
   248  126  246 1    
   249  126  247 1    
@<TRIPOS>SUBSTRUCTURE
     1 UNK         1 GROUP             0       ****    0 ROOT    
