@<TRIPOS>MOLECULE
3R540
247   249    1
SMALL
USER_CHARGES


@<TRIPOS>ATOM
      1 CA          5.8370  -15.1408  -52.1304 C.3       0 UNK        -0.1800 
      2 C           5.3607  -14.8043  -50.7244 C.2       0 UNK         0.5000 
      3 O           5.9231  -13.9127  -50.0897 O.2       0 UNK        -0.5000 
      4 N           4.3301  -15.5189  -50.2498 N.am      1 UNK        -0.5000 
      5 CA          3.7048  -15.4012  -48.9243 C.3       1 UNK         0.1400 
      6 C6          3.0675  -14.0124  -48.6278 C.3       23 UNK        -0.0398 
      7 S7          1.7476  -13.3501  -49.7217 S.3       23 UNK        -0.2404 
      8 C8          1.3484  -14.5742  -51.0191 C.3       23 UNK        -0.0205 
      9 C9          0.5707  -15.7758  -50.5020 C.ar      23 UNK        -0.0193 
     10 C10        -0.7072  -15.6067  -49.9631 C.ar      23 UNK        -0.1150 
     11 C11        -1.4450  -16.7064  -49.5156 C.ar      23 UNK        -0.0193 
     12 C12        -0.8867  -17.9851  -49.5938 C.ar      23 UNK        -0.1150 
     13 C13         0.3975  -18.1655  -50.1194 C.ar      23 UNK        -0.0193 
     14 C14         1.1082  -17.0619  -50.5945 C.ar      23 UNK        -0.1150 
     15 C15         1.0275  -19.5485  -50.1732 C.3       23 UNK        -0.0205 
     16 S16         2.2989  -19.7917  -48.8825 S.3       23 UNK        -0.2404 
     17 C17         1.3473  -19.6066  -47.3342 C.3       23 UNK        -0.0398 
     18 CA          0.8072  -20.9344  -46.7512 C.3       11 UNK         0.1400 
     19 N           0.4106  -20.8128  -45.3435 N.am      11 UNK        -0.5000 
     20 C           0.1678  -21.8621  -44.5451 C.2       10 UNK         0.5000 
     21 O           0.2819  -23.0350  -44.9014 O.2       10 UNK        -0.5000 
     22 CA         -0.3226  -21.5448  -43.1247 C.3       10 UNK         0.1400 
     23 CB          0.7995  -20.9349  -42.2713 C.3       10 UNK        -0.1800 
     24 N          -1.4846  -20.6561  -43.1073 N.am      10 UNK        -0.5000 
     25 C          -2.7124  -21.0068  -43.5136 C.2       9 UNK         0.5000 
     26 O          -2.9618  -22.0682  -44.0829 O.2       9 UNK        -0.5000 
     27 CA         -3.8531  -20.0183  -43.2297 C.3       9 UNK         0.1400 
     28 CB         -4.1146  -19.8979  -41.7194 C.3       9 UNK        -0.1800 
     29 N          -3.5468  -18.6995  -43.7735 N.am      9 UNK        -0.5000 
     30 C          -4.3084  -18.0384  -44.6559 C.2       8 UNK         0.5000 
     31 O          -5.3979  -18.4430  -45.0650 O.2       8 UNK        -0.5000 
     32 CA         -3.7758  -16.6909  -45.1886 C.3       8 UNK         0.1400 
     33 CB         -4.5039  -15.5202  -44.5117 C.3       8 UNK        -0.1800 
     34 N          -2.3334  -16.4955  -45.0398 N.am      8 UNK        -0.5000 
     35 C          -1.3811  -17.2780  -45.5630 C.2       7 UNK         0.5000 
     36 O          -1.6058  -18.2655  -46.2628 O.2       7 UNK        -0.5000 
     37 CA          0.0693  -16.9580  -45.1636 C.3       7 UNK         0.1400 
     38 CB          0.7457  -16.0757  -46.2232 C.3       7 UNK        -0.1800 
     39 N           0.2260  -16.3635  -43.8287 N.am      7 UNK        -0.5000 
     40 C          -0.2098  -16.9147  -42.6811 C.2       6 UNK         0.5000 
     41 O          -0.8518  -17.9658  -42.6447 O.2       6 UNK        -0.5000 
     42 CA          0.1038  -16.2025  -41.3517 C.3       6 UNK         0.1400 
     43 CB          0.9302  -17.1106  -40.4274 C.3       6 UNK        -0.1800 
     44 N           0.8055  -14.9317  -41.5284 N.am      6 UNK        -0.5000 
     45 C           0.1988  -13.7569  -41.7500 C.2       5 UNK         0.5000 
     46 O          -1.0241  -13.6251  -41.8109 O.2       5 UNK        -0.5000 
     47 CA          1.1002  -12.5221  -41.9578 C.3       5 UNK         0.1400 
     48 CB          1.2093  -11.7127  -40.6565 C.3       5 UNK        -0.1800 
     49 N           2.4495  -12.8384  -42.4339 N.am      5 UNK        -0.5000 
     50 C           2.7334  -13.4178  -43.6076 C.2       4 UNK         0.5000 
     51 O           1.8709  -13.7536  -44.4192 O.2       4 UNK        -0.5000 
     52 CA          4.2140  -13.7059  -43.9265 C.3       4 UNK         0.1400 
     53 CB          5.2128  -13.1495  -42.8865 C.3       4 UNK        -0.1800 
     54 N           4.4456  -15.1359  -44.1459 N.am      4 UNK        -0.5000 
     55 C           4.2111  -16.1392  -43.2853 C.2       3 UNK         0.5000 
     56 O           3.7397  -15.9660  -42.1601 O.2       3 UNK        -0.5000 
     57 CA          4.5458  -17.5754  -43.7466 C.3       3 UNK         0.1400 
     58 CB          3.3828  -18.5423  -43.4802 C.3       3 UNK        -0.1800 
     59 N           4.9014  -17.6538  -45.1656 N.am      3 UNK        -0.5000 
     60 C           6.1507  -17.6001  -45.6439 C.2       2 UNK         0.5000 
     61 O           7.1525  -17.5058  -44.9341 O.2       2 UNK        -0.5000 
     62 CA          6.3126  -17.6416  -47.1770 C.3       2 UNK         0.1400 
     63 CB          6.5506  -19.0849  -47.6468 C.3       2 UNK        -0.1800 
     64 N           5.1987  -17.0753  -47.9478 N.am      2 UNK        -0.5000 
     65 C           4.7196  -15.8268  -47.8402 C.2       1 UNK         0.5000 
     66 O           5.0766  -15.0332  -46.9687 O.2       1 UNK        -0.5000 
     67 C          -0.3506  -21.5072  -47.5893 C.2       11 UNK         0.5000 
     68 O          -0.1125  -22.3756  -48.4253 O.2       11 UNK        -0.5000 
     69 N          -1.5820  -21.0505  -47.3175 N.am      12 UNK        -0.5000 
     70 CA         -2.8118  -21.5361  -47.9434 C.3       12 UNK         0.1400 
     71 CB         -4.0104  -20.7583  -47.3869 C.3       12 UNK        -0.1800 
     72 C          -3.0226  -23.0553  -47.8020 C.2       12 UNK         0.5000 
     73 O          -3.4016  -23.6987  -48.7785 O.2       12 UNK        -0.5000 
     74 N          -2.7479  -23.6003  -46.6091 N.am      13 UNK        -0.5000 
     75 CA         -2.8042  -25.0348  -46.3327 C.3       13 UNK         0.1400 
     76 CB         -2.8641  -25.2575  -44.8137 C.3       13 UNK        -0.1800 
     77 C          -1.6250  -25.8157  -46.9434 C.2       13 UNK         0.5000 
     78 O          -1.8253  -26.9393  -47.4070 O.2       13 UNK        -0.5000 
     79 N          -0.4183  -25.2330  -46.9027 N.am      14 UNK        -0.5000 
     80 CA          0.8146  -25.8594  -47.3834 C.3       14 UNK         0.1400 
     81 CB          2.0265  -25.1057  -46.8134 C.3       14 UNK        -0.1800 
     82 C           0.8997  -25.9363  -48.9186 C.2       14 UNK         0.5000 
     83 O           1.2751  -26.9798  -49.4560 O.2       14 UNK        -0.5000 
     84 N           0.5704  -24.8280  -49.5892 N.am      15 UNK        -0.5000 
     85 CA          0.5818  -24.6806  -51.0416 C.3       15 UNK         0.1400 
     86 CB          1.0462  -23.2492  -51.3745 C.3       15 UNK        -0.1800 
     87 C          -0.8083  -24.9702  -51.6398 C.2       15 UNK         0.5000 
     88 O          -1.7337  -25.3673  -50.9304 O.2       15 UNK        -0.5000 
     89 N          -0.9389  -24.7401  -52.9520 N.am      16 UNK        -0.5000 
     90 CA         -2.1983  -24.8383  -53.6951 C.3       16 UNK         0.1400 
     91 CB         -1.8743  -25.1106  -55.1730 C.3       16 UNK        -0.1800 
     92 C          -3.0864  -23.5825  -53.5590 C.2       16 UNK         0.5000 
     93 O          -4.1930  -23.5726  -54.0957 O.2       16 UNK        -0.5000 
     94 N          -2.6002  -22.5408  -52.8669 N.am      17 UNK        -0.5000 
     95 CA         -3.2188  -21.2154  -52.7502 C.3       17 UNK         0.1400 
     96 CB         -2.2603  -20.2796  -51.9998 C.3       17 UNK        -0.1800 
     97 C          -4.6344  -21.1871  -52.1340 C.2       17 UNK         0.5000 
     98 O          -5.3711  -20.2316  -52.3807 O.2       17 UNK        -0.5000 
     99 N          -5.0302  -22.2407  -51.4055 N.am      18 UNK        -0.5000 
    100 CA        -6.4119  -22.4515  -50.9614 C.3       18 UNK         0.1400 
    101 CB        -6.4778  -23.6435  -49.9962 C.3       18 UNK        -0.1800 
    102 C         -7.4061  -22.6481  -52.1254 C.2       18 UNK         0.5000 
    103 O         -8.5610  -22.2415  -52.0005 O.2       18 UNK        -0.5000 
    104 N         -6.9473  -23.2136  -53.2539 N.am      19 UNK        -0.5000 
    105 CA        -7.7391  -23.3631  -54.4808 C.3       19 UNK         0.1400 
    106 CB        -7.0833  -24.4060  -55.3986 C.3       19 UNK        -0.1800 
    107 C         -7.9295  -22.0263  -55.2248 C.2       19 UNK         0.5000 
    108 O         -8.9012  -21.8764  -55.9655 O.2       19 UNK        -0.5000 
    109 N         -7.0268  -21.0665  -54.9779 N.am      20 UNK        -0.5000 
    110 CA        -7.1289  -19.6711  -55.4111 C.3       20 UNK         0.1400 
    111 CB        -5.7118  -19.1165  -55.6381 C.3       20 UNK        -0.1800 
    112 C         -7.9205  -18.8033  -54.4059 C.2       20 UNK         0.5000 
    113 O         -7.9968  -17.5882  -54.5904 O.2       20 UNK        -0.5000 
    114 N         -8.4896  -19.4369  -53.3680 N.am      21 UNK        -0.5000 
    115 CA        -9.2943  -18.8671  -52.2849 C.3       21 UNK         0.1400 
    116 CB       -10.5687  -18.1886  -52.8314 C.3       21 UNK        -0.1800 
    117 C         -8.4994  -17.9695  -51.3147 C.2       21 UNK         0.5000 
    118 O         -9.1024  -17.1378  -50.6329 O.2       21 UNK        -0.5000 
    119 N         -7.1744  -18.1580  -51.2389 N.am      22 UNK        -0.5000 
    120 CA        -6.3179  -17.5193  -50.2305 C.3       22 UNK         0.1400 
    121 C         -6.4651  -18.1831  -48.8318 C.2       22 UNK         0.5000 
    122 N         -6.1906  -17.4499  -47.7628 N.am      22 UNK        -0.7600 
    123 O         -6.7964  -19.3596  -48.7082 O.2       22 UNK        -0.5000 
    124 C124       -4.8348  -17.4608  -50.6893 C.3       23 UNK        -0.0398 
    125 S125       -4.0292  -15.9143  -50.1483 S.3       23 UNK        -0.2404 
    126 C126       -2.8245  -16.4943  -48.9127 C.3       23 UNK        -0.0205 
    127 H127        6.8794  -15.4584  -52.1073 H         1 UNK         0.0600 
    128 H128        5.2477  -15.9407  -52.5796 H         1 UNK         0.0600 
    129 H129        5.7611  -14.2627  -52.7717 H         1 UNK         0.0600 
    130 H130        3.9536  -16.2478  -50.8368 H         1 UNK         0.3000 
    131 H131        2.9072  -16.1399  -48.8719 H         1 UNK         0.0600 
    132 H132        3.8463  -13.2498  -48.5858 H         1 UNK         0.0800 
    133 H133        2.6363  -14.0282  -47.6250 H         1 UNK         0.0800 
    134 H134        0.7218  -14.0725  -51.7577 H         1 UNK         0.0800 
    135 H135        2.2409  -14.8691  -51.5671 H         1 UNK         0.0800 
    136 H136       -1.1319  -14.6148  -49.8960 H         1 UNK         0.1150 
    137 H137       -1.4439  -18.8349  -49.2262 H         1 UNK         0.1150 
    138 H138        2.0885  -17.2102  -51.0223 H         1 UNK         0.1150 
    139 H139        0.2620  -20.3179  -50.0931 H         1 UNK         0.0800 
    140 H140        1.4909  -19.6940  -51.1500 H         1 UNK         0.0800 
    141 H141        0.5487  -18.8836  -47.4749 H         1 UNK         0.0800 
    142 H142        2.0333  -19.1557  -46.6169 H         1 UNK         0.0800 
    143 H143        1.6225  -21.6603  -46.7876 H         1 UNK         0.0600 
    144 H144        0.2280  -19.8887  -44.9866 H         1 UNK         0.3000 
    145 H145       -0.6158  -22.4900  -42.6624 H         1 UNK         0.0600 
    146 H146        0.4911  -20.8366  -41.2304 H         1 UNK         0.0600 
    147 H147        1.0813  -19.9448  -42.6264 H         1 UNK         0.0600 
    148 H148        1.6932  -21.5601  -42.2888 H         1 UNK         0.0600 
    149 H149       -1.3367  -19.7329  -42.7075 H         1 UNK         0.3000 
    150 H150       -4.7524  -20.4277  -43.6948 H         1 UNK         0.0600 
    151 H151       -4.3123  -20.8751  -41.2771 H         1 UNK         0.0600 
    152 H152       -4.9838  -19.2702  -41.5229 H         1 UNK         0.0600 
    153 H153       -3.2642  -19.4624  -41.1929 H         1 UNK         0.0600 
    154 H154       -2.6552  -18.2982  -43.5052 H         1 UNK         0.3000 
    155 H155       -4.0000  -16.6595  -46.2540 H         1 UNK         0.0600 
    156 H156       -5.5849  -15.6107  -44.6271 H         1 UNK         0.0600 
    157 H157       -4.2114  -14.5662  -44.9507 H         1 UNK         0.0600 
    158 H158       -4.2897  -15.4792  -43.4430 H         1 UNK         0.0600 
    159 H159       -2.0426  -15.7259  -44.4546 H         1 UNK         0.3000 
    160 H160        0.5911  -17.9121  -45.1421 H         1 UNK         0.0600 
    161 H161        0.3099  -15.0764  -46.2494 H         1 UNK         0.0600 
    162 H162        0.6411  -16.4988  -47.2229 H         1 UNK         0.0600 
    163 H163        1.8128  -15.9728  -46.0264 H         1 UNK         0.0600 
    164 H164        0.7294  -15.4845  -43.7873 H         1 UNK         0.3000 
    165 H165       -0.8534  -16.0189  -40.8594 H         1 UNK         0.0600 
    166 H166        1.1041  -16.6350  -39.4622 H         1 UNK         0.0600 
    167 H167        0.4136  -18.0520  -40.2348 H         1 UNK         0.0600 
    168 H168        1.9000  -17.3535  -40.8587 H         1 UNK         0.0600 
    169 H169        1.8183  -14.9734  -41.5328 H         1 UNK         0.3000 
    170 H170        0.6208  -11.8944  -42.7118 H         1 UNK         0.0600 
    171 H171        1.7057  -12.2821  -39.8696 H         1 UNK         0.0600 
    172 H172        1.7703  -10.7907  -40.8103 H         1 UNK         0.0600 
    173 H173        0.2223  -11.4324  -40.2861 H         1 UNK         0.0600 
    174 H174        3.2122  -12.6171  -41.8104 H         1 UNK         0.3000 
    175 H175        4.4189  -13.2118  -44.8772 H         1 UNK         0.0600 
    176 H176        5.0816  -13.5997  -41.9020 H         1 UNK         0.0600 
    177 H177        6.2398  -13.3401  -43.1983 H         1 UNK         0.0600 
    178 H178        5.1097  -12.0690  -42.7784 H         1 UNK         0.0600 
    179 H179        4.7923  -15.3638  -45.0727 H         1 UNK         0.3000 
    180 H180        5.3901  -17.9086  -43.1397 H         1 UNK         0.0600 
    181 H181        3.6165  -19.5499  -43.8247 H         1 UNK         0.0600 
    182 H182        2.4735  -18.2191  -43.9798 H         1 UNK         0.0600 
    183 H183        3.1690  -18.6106  -42.4137 H         1 UNK         0.0600 
    184 H184        4.1416  -17.7176  -45.8255 H         1 UNK         0.3000 
    185 H185        7.2007  -17.0544  -47.4194 H         1 UNK         0.0600 
    186 H186        6.7897  -19.1205  -48.7099 H         1 UNK         0.0600 
    187 H187        7.3866  -19.5391  -47.1130 H         1 UNK         0.0600 
    188 H188        5.6736  -19.7115  -47.4784 H         1 UNK         0.0600 
    189 H189        4.8492  -17.6553  -48.6969 H         1 UNK         0.3000 
    190 H190       -1.6818  -20.2865  -46.6584 H         1 UNK         0.3000 
    191 H191       -2.7427  -21.3202  -49.0085 H         1 UNK         0.0600 
    192 H192       -3.9149  -19.6901  -47.5813 H         1 UNK         0.0600 
    193 H193       -4.1181  -20.8937  -46.3112 H         1 UNK         0.0600 
    194 H194       -4.9378  -21.0933  -47.8524 H         1 UNK         0.0600 
    195 H195       -2.5022  -22.9964  -45.8315 H         1 UNK         0.3000 
    196 H196       -3.7246  -25.4318  -46.7663 H         1 UNK         0.0600 
    197 H197       -3.7482  -24.7881  -44.3820 H         1 UNK         0.0600 
    198 H198       -1.9879  -24.8439  -44.3123 H         1 UNK         0.0600 
    199 H199       -2.9105  -26.3206  -44.5744 H         1 UNK         0.0600 
    200 H200       -0.3271  -24.3225  -46.4666 H         1 UNK         0.3000 
    201 H201        0.8478  -26.8809  -46.9987 H         1 UNK         0.0600 
    202 H202        2.0231  -25.1211  -45.7234 H         1 UNK         0.0600 
    203 H203        2.0386  -24.0635  -47.1333 H         1 UNK         0.0600 
    204 H204        2.9611  -25.5617  -47.1423 H         1 UNK         0.0600 
    205 H205        0.2394  -24.0174  -49.0683 H         1 UNK         0.3000 
    206 H206        1.2922  -25.3850  -51.4789 H         1 UNK         0.0600 
    207 H207        0.2948  -22.5097  -51.0977 H         1 UNK         0.0600 
    208 H208        1.9661  -22.9986  -50.8453 H         1 UNK         0.0600 
    209 H209        1.2495  -23.1302  -52.4389 H         1 UNK         0.0600 
    210 H210       -0.1347  -24.4294  -53.4783 H         1 UNK         0.3000 
    211 H211       -2.7744  -25.6842  -53.3143 H         1 UNK         0.0600 
    212 H212       -1.3108  -24.2905  -55.6198 H         1 UNK         0.0600 
    213 H213       -2.7861  -25.2389  -55.7581 H         1 UNK         0.0600 
    214 H214       -1.2883  -26.0228  -55.2868 H         1 UNK         0.0600 
    215 H215       -1.6903  -22.6477  -52.4468 H         1 UNK         0.3000 
    216 H216       -3.3255  -20.8290  -53.7659 H         1 UNK         0.0600 
    217 H217       -2.6802  -19.2783  -51.9002 H         1 UNK         0.0600 
    218 H218       -1.3151  -20.1754  -52.5330 H         1 UNK         0.0600 
    219 H219       -2.0364  -20.6481  -51.0012 H         1 UNK         0.0600 
    220 H220       -4.3707  -22.9835  -51.2184 H         1 UNK         0.3000 
    221 H221       -6.7286  -21.5599  -50.4161 H         1 UNK         0.0600 
    222 H222       -6.0195  -24.5363  -50.4231 H         1 UNK         0.0600 
    223 H223       -5.9710  -23.4153  -49.0597 H         1 UNK         0.0600 
    224 H224       -7.5100  -23.8903  -49.7438 H         1 UNK         0.0600 
    225 H225       -5.9679  -23.4766  -53.3212 H         1 UNK         0.3000 
    226 H226       -8.7291  -23.7333  -54.2059 H         1 UNK         0.0600 
    227 H227       -6.9146  -25.3465  -54.8740 H         1 UNK         0.0600 
    228 H228       -7.7210  -24.6214  -56.2567 H         1 UNK         0.0600 
    229 H229       -6.1252  -24.0595  -55.7866 H         1 UNK         0.0600 
    230 H230       -6.2746  -21.2747  -54.3363 H         1 UNK         0.3000 
    231 H231       -7.6616  -19.6280  -56.3631 H         1 UNK         0.0600 
    232 H232       -5.7492  -18.1126  -56.0625 H         1 UNK         0.0600 
    233 H233       -5.1503  -19.7400  -56.3340 H         1 UNK         0.0600 
    234 H234       -5.1446  -19.0548  -54.7097 H         1 UNK         0.0600 
    235 H235       -8.3494  -20.4362  -53.2994 H         1 UNK         0.3000 
    236 H236       -9.6200  -19.7183  -51.6859 H         1 UNK         0.0600 
    237 H237      -10.3410  -17.2676  -53.3684 H         1 UNK         0.0600 
    238 H238      -11.1078  -18.8497  -53.5100 H         1 UNK         0.0600 
    239 H239      -11.2526  -17.9313  -52.0219 H         1 UNK         0.0600 
    240 H240       -6.7405  -18.8895  -51.7928 H         1 UNK         0.3000 
    241 H241       -6.6803  -16.4935  -50.1336 H         1 UNK         0.0600 
    242 H242       -5.9461  -16.4767  -47.8476 H         1 UNK         0.3800 
    243 H243       -6.2313  -17.8839  -46.8475 H         1 UNK         0.3800 
    244 H244       -4.7753  -17.4722  -51.7787 H         1 UNK         0.0800 
    245 H245       -4.2708  -18.3338  -50.3564 H         1 UNK         0.0800 
    246 H246       -3.1859  -17.4021  -48.4278 H         1 UNK         0.0800 
    247 H247       -2.7433  -15.7406  -48.1286 H         1 UNK         0.0800 
@<TRIPOS>BOND
     1    1    2 1    
     2    1  127 1    
     3    1  128 1    
     4    1  129 1    
     5    2    3 2    
     6    2    4 am   BACKBONE|DICT|INTERRES
     7    4    5 1    
     8    4  130 1    
     9    5    6 1    
    10    5   65 1    
    11    5  131 1    
    12    6    7 1    
    13    6  132 1    
    14    6  133 1    
    15    7    8 1    
    16    8    9 1    
    17    8  134 1    
    18    8  135 1    
    19    9   10 ar   
    20    9   14 ar   
    21   10   11 ar   
    22   10  136 1    
    23   11   12 ar   
    24   11  126 1    
    25   12   13 ar   
    26   12  137 1    
    27   13   14 ar   
    28   13   15 1    
    29   14  138 1    
    30   15   16 1    
    31   15  139 1    
    32   15  140 1    
    33   16   17 1    
    34   17   18 1    
    35   17  141 1    
    36   17  142 1    
    37   18   19 1    
    38   18   67 1    
    39   18  143 1    
    40   19   20 am   BACKBONE|DICT|INTERRES
    41   19  144 1    
    42   20   21 2    
    43   20   22 1    
    44   22   23 1    
    45   22   24 1    
    46   22  145 1    
    47   23  146 1    
    48   23  147 1    
    49   23  148 1    
    50   24   25 am   BACKBONE|DICT|INTERRES
    51   24  149 1    
    52   25   26 2    
    53   25   27 1    
    54   27   28 1    
    55   27   29 1    
    56   27  150 1    
    57   28  151 1    
    58   28  152 1    
    59   28  153 1    
    60   29   30 am   BACKBONE|DICT|INTERRES
    61   29  154 1    
    62   30   31 2    
    63   30   32 1    
    64   32   33 1    
    65   32   34 1    
    66   32  155 1    
    67   33  156 1    
    68   33  157 1    
    69   33  158 1    
    70   34   35 am   BACKBONE|DICT|INTERRES
    71   34  159 1    
    72   35   36 2    
    73   35   37 1    
    74   37   38 1    
    75   37   39 1    
    76   37  160 1    
    77   38  161 1    
    78   38  162 1    
    79   38  163 1    
    80   39   40 am   BACKBONE|DICT|INTERRES
    81   39  164 1    
    82   40   41 2    
    83   40   42 1    
    84   42   43 1    
    85   42   44 1    
    86   42  165 1    
    87   43  166 1    
    88   43  167 1    
    89   43  168 1    
    90   44   45 am   BACKBONE|DICT|INTERRES
    91   44  169 1    
    92   45   46 2    
    93   45   47 1    
    94   47   48 1    
    95   47   49 1    
    96   47  170 1    
    97   48  171 1    
    98   48  172 1    
    99   48  173 1    
   100   49   50 am   BACKBONE|DICT|INTERRES
   101   49  174 1    
   102   50   51 2    
   103   50   52 1    
   104   52   53 1    
   105   52   54 1    
   106   52  175 1    
   107   53  176 1    
   108   53  177 1    
   109   53  178 1    
   110   54   55 am   BACKBONE|DICT|INTERRES
   111   54  179 1    
   112   55   56 2    
   113   55   57 1    
   114   57   58 1    
   115   57   59 1    
   116   57  180 1    
   117   58  181 1    
   118   58  182 1    
   119   58  183 1    
   120   59   60 am   BACKBONE|DICT|INTERRES
   121   59  184 1    
   122   60   61 2    
   123   60   62 1    
   124   62   63 1    
   125   62   64 1    
   126   62  185 1    
   127   63  186 1    
   128   63  187 1    
   129   63  188 1    
   130   64   65 am   BACKBONE|DICT|INTERRES
   131   64  189 1    
   132   65   66 2    
   133   67   68 2    
   134   67   69 am   BACKBONE|DICT|INTERRES
   135   69   70 1    
   136   69  190 1    
   137   70   71 1    
   138   70   72 1    
   139   70  191 1    
   140   71  192 1    
   141   71  193 1    
   142   71  194 1    
   143   72   73 2    
   144   72   74 am   BACKBONE|DICT|INTERRES
   145   74   75 1    
   146   74  195 1    
   147   75   76 1    
   148   75   77 1    
   149   75  196 1    
   150   76  197 1    
   151   76  198 1    
   152   76  199 1    
   153   77   78 2    
   154   77   79 am   BACKBONE|DICT|INTERRES
   155   79   80 1    
   156   79  200 1    
   157   80   81 1    
   158   80   82 1    
   159   80  201 1    
   160   81  202 1    
   161   81  203 1    
   162   81  204 1    
   163   82   83 2    
   164   82   84 am   BACKBONE|DICT|INTERRES
   165   84   85 1    
   166   84  205 1    
   167   85   86 1    
   168   85   87 1    
   169   85  206 1    
   170   86  207 1    
   171   86  208 1    
   172   86  209 1    
   173   87   88 2    
   174   87   89 am   BACKBONE|DICT|INTERRES
   175   89   90 1    
   176   89  210 1    
   177   90   91 1    
   178   90   92 1    
   179   90  211 1    
   180   91  212 1    
   181   91  213 1    
   182   91  214 1    
   183   92   93 2    
   184   92   94 am   BACKBONE|DICT|INTERRES
   185   94   95 1    
   186   94  215 1    
   187   95   96 1    
   188   95   97 1    
   189   95  216 1    
   190   96  217 1    
   191   96  218 1    
   192   96  219 1    
   193   97   98 2    
   194   97   99 am   BACKBONE|DICT|INTERRES
   195   99  100 1    
   196   99  220 1    
   197  100  101 1    
   198  100  102 1    
   199  100  221 1    
   200  101  222 1    
   201  101  223 1    
   202  101  224 1    
   203  102  103 2    
   204  102  104 am   BACKBONE|DICT|INTERRES
   205  104  105 1    
   206  104  225 1    
   207  105  106 1    
   208  105  107 1    
   209  105  226 1    
   210  106  227 1    
   211  106  228 1    
   212  106  229 1    
   213  107  108 2    
   214  107  109 am   BACKBONE|DICT|INTERRES
   215  109  110 1    
   216  109  230 1    
   217  110  111 1    
   218  110  112 1    
   219  110  231 1    
   220  111  232 1    
   221  111  233 1    
   222  111  234 1    
   223  112  113 2    
   224  112  114 am   BACKBONE|DICT|INTERRES
   225  114  115 1    
   226  114  235 1    
   227  115  116 1    
   228  115  117 1    
   229  115  236 1    
   230  116  237 1    
   231  116  238 1    
   232  116  239 1    
   233  117  118 2    
   234  117  119 am   BACKBONE|DICT|INTERRES
   235  119  120 1    
   236  119  240 1    
   237  120  121 1    
   238  120  124 1    
   239  120  241 1    
   240  121  122 am   BACKBONE|DICT|INTERRES
   241  121  123 2    
   242  122  242 1    
   243  122  243 1    
   244  124  125 1    
   245  124  244 1    
   246  124  245 1    
   247  125  126 1    
   248  126  246 1    
   249  126  247 1    
@<TRIPOS>SUBSTRUCTURE
     1 UNK         1 GROUP             0       ****    0 ROOT    
