@<TRIPOS>MOLECULE
3R540
247   249    1
SMALL
USER_CHARGES


@<TRIPOS>ATOM
      1 CA          5.3991  -14.2898  -47.1399 C.3       0 UNK        -0.1800 
      2 C           4.3887  -15.1557  -47.8792 C.2       0 UNK         0.5000 
      3 O           4.5332  -16.3771  -47.8980 O.2       0 UNK        -0.5000 
      4 N           3.3677  -14.5238  -48.4661 N.am      1 UNK        -0.5000 
      5 CA          2.2576  -15.1531  -49.1825 C.3       1 UNK         0.1400 
      6 C6          2.4892  -15.1745  -50.7197 C.3       23 UNK        -0.0398 
      7 S7          3.7707  -16.3609  -51.2401 S.3       23 UNK        -0.2404 
      8 C8          2.7543  -17.7864  -51.7441 C.3       23 UNK        -0.0205 
      9 C9          1.9278  -18.3443  -50.5935 C.ar      23 UNK        -0.0193 
     10 C10         0.5334  -18.2311  -50.6020 C.ar      23 UNK        -0.1150 
     11 C11        -0.2287  -18.7812  -49.5664 C.ar      23 UNK        -0.0193 
     12 C12         0.4162  -19.4086  -48.4996 C.ar      23 UNK        -0.1150 
     13 C13         1.8082  -19.5273  -48.4784 C.ar      23 UNK        -0.0193 
     14 C14         2.5586  -18.9952  -49.5292 C.ar      23 UNK        -0.1150 
     15 C15         2.4960  -20.2474  -47.3292 C.3       23 UNK        -0.0205 
     16 S16         2.9058  -21.9834  -47.7309 S.3       23 UNK        -0.2404 
     17 C17         1.2860  -22.7109  -48.1784 C.3       23 UNK        -0.0398 
     18 CA          0.5323  -23.3882  -47.0068 C.3       11 UNK         0.1400 
     19 N           0.5125  -22.5717  -45.7891 N.am      11 UNK        -0.5000 
     20 C           0.1803  -23.0170  -44.5718 C.2       10 UNK         0.5000 
     21 O          -0.1150  -24.1891  -44.3359 O.2       10 UNK        -0.5000 
     22 CA          0.1650  -21.9915  -43.4200 C.3       10 UNK         0.1400 
     23 CB          1.4636  -22.1033  -42.6050 C.3       10 UNK        -0.1800 
     24 N          -0.0339  -20.5816  -43.7834 N.am      10 UNK        -0.5000 
     25 C          -1.0089  -20.0629  -44.5469 C.2       9 UNK         0.5000 
     26 O          -1.7944  -20.7405  -45.2064 O.2       9 UNK        -0.5000 
     27 CA         -1.1327  -18.5301  -44.5782 C.3       9 UNK         0.1400 
     28 CB         -2.0612  -18.0711  -43.4413 C.3       9 UNK        -0.1800 
     29 N           0.1719  -17.8867  -44.4237 N.am      9 UNK        -0.5000 
     30 C           0.8245  -17.2086  -45.3783 C.2       8 UNK         0.5000 
     31 O           0.3496  -16.9580  -46.4850 O.2       8 UNK        -0.5000 
     32 CA          2.2296  -16.6706  -45.0434 C.3       8 UNK         0.1400 
     33 CB          2.2503  -15.1367  -45.1179 C.3       8 UNK        -0.1800 
     34 N           2.6991  -17.0696  -43.7183 N.am      8 UNK        -0.5000 
     35 C           3.2813  -18.2368  -43.4169 C.2       7 UNK         0.5000 
     36 O           3.5273  -19.1153  -44.2418 O.2       7 UNK        -0.5000 
     37 CA          3.6037  -18.4716  -41.9272 C.3       7 UNK         0.1400 
     38 CB          5.0495  -18.0556  -41.6185 C.3       7 UNK        -0.1800 
     39 N           2.6956  -17.7604  -41.0193 N.am      7 UNK        -0.5000 
     40 C           1.3847  -18.0167  -40.9059 C.2       6 UNK         0.5000 
     41 O           0.8045  -18.8785  -41.5658 O.2       6 UNK        -0.5000 
     42 CA          0.5797  -17.1026  -39.9623 C.3       6 UNK         0.1400 
     43 CB          0.8105  -17.4922  -38.4946 C.3       6 UNK        -0.1800 
     44 N           0.8810  -15.6781  -40.1491 N.am      6 UNK        -0.5000 
     45 C           0.6771  -15.0115  -41.2928 C.2       5 UNK         0.5000 
     46 O           0.2159  -15.5386  -42.3102 O.2       5 UNK        -0.5000 
     47 CA          1.0826  -13.5277  -41.3293 C.3       5 UNK         0.1400 
     48 CB          2.6061  -13.3588  -41.1783 C.3       5 UNK        -0.1800 
     49 N           0.6540  -13.0126  -42.6211 N.am      5 UNK        -0.5000 
     50 C           0.4934  -11.7486  -43.0179 C.2       4 UNK         0.5000 
     51 O           0.7163  -10.7718  -42.3019 O.2       4 UNK        -0.5000 
     52 CA          0.0043  -11.5452  -44.4715 C.3       4 UNK         0.1400 
     53 CB          1.1590  -11.0558  -45.3596 C.3       4 UNK        -0.1800 
     54 N          -0.5637  -12.7542  -45.0822 N.am      4 UNK        -0.5000 
     55 C          -1.7158  -13.3363  -44.7191 C.2       3 UNK         0.5000 
     56 O          -2.4668  -12.8736  -43.8591 O.2       3 UNK        -0.5000 
     57 CA         -2.0512  -14.6765  -45.4057 C.3       3 UNK         0.1400 
     58 CB         -3.5318  -15.0866  -45.2649 C.3       3 UNK        -0.1800 
     59 N          -1.6227  -14.7575  -46.8043 N.am      3 UNK        -0.5000 
     60 C          -2.0364  -13.9844  -47.8193 C.2       2 UNK         0.5000 
     61 O          -2.8077  -13.0330  -47.6845 O.2       2 UNK        -0.5000 
     62 CA         -1.5145  -14.3568  -49.2230 C.3       2 UNK         0.1400 
     63 CB         -1.5831  -13.1834  -50.2230 C.3       2 UNK        -0.1800 
     64 N          -0.1765  -14.9605  -49.2264 N.am      2 UNK        -0.5000 
     65 C           0.9705  -14.3736  -48.8573 C.2       1 UNK         0.5000 
     66 O           1.0391  -13.2609  -48.3261 O.2       1 UNK        -0.5000 
     67 C          -0.8861  -23.7952  -47.4691 C.2       11 UNK         0.5000 
     68 O          -1.0144  -24.7784  -48.2026 O.2       11 UNK        -0.5000 
     69 N          -1.9221  -23.0525  -47.0417 N.am      12 UNK        -0.5000 
     70 CA         -3.3389  -23.2582  -47.3610 C.3       12 UNK         0.1400 
     71 CB         -4.1095  -21.9572  -47.0693 C.3       12 UNK        -0.1800 
     72 C          -3.9486  -24.4820  -46.6406 C.2       12 UNK         0.5000 
     73 O          -4.9350  -24.3629  -45.9117 O.2       12 UNK        -0.5000 
     74 N          -3.3329  -25.6400  -46.8706 N.am      13 UNK        -0.5000 
     75 CA         -3.7052  -26.9642  -46.3910 C.3       13 UNK         0.1400 
     76 CB         -3.3585  -27.1289  -44.9001 C.3       13 UNK        -0.1800 
     77 C          -2.9846  -28.0088  -47.2538 C.2       13 UNK         0.5000 
     78 O          -3.6099  -28.9734  -47.6948 O.2       13 UNK        -0.5000 
     79 N          -1.6897  -27.7711  -47.5150 N.am      14 UNK        -0.5000 
     80 CA         -0.8821  -28.5297  -48.4695 C.3       14 UNK         0.1400 
     81 CB          0.6067  -28.2657  -48.1941 C.3       14 UNK        -0.1800 
     82 C          -1.2407  -28.1669  -49.9222 C.2       14 UNK         0.5000 
     83 O          -1.3647  -29.0597  -50.7617 O.2       14 UNK        -0.5000 
     84 N          -1.4221  -26.8657  -50.1773 N.am      15 UNK        -0.5000 
     85 CA         -1.9005  -26.3060  -51.4362 C.3       15 UNK         0.1400 
     86 CB         -1.0018  -25.1151  -51.8098 C.3       15 UNK        -0.1800 
     87 C          -3.3529  -25.8329  -51.2707 C.2       15 UNK         0.5000 
     88 O          -3.7844  -25.5329  -50.1534 O.2       15 UNK        -0.5000 
     89 N          -4.0666  -25.7038  -52.3968 N.am      16 UNK        -0.5000 
     90 CA         -5.4301  -25.1698  -52.4895 C.3       16 UNK         0.1400 
     91 CB         -6.0602  -25.6474  -53.8099 C.3       16 UNK        -0.1800 
     92 C          -5.4381  -23.6322  -52.3552 C.2       16 UNK         0.5000 
     93 O          -5.7505  -22.9179  -53.3120 O.2       16 UNK        -0.5000 
     94 N          -5.0022  -23.1524  -51.1812 N.am      17 UNK        -0.5000 
     95 CA         -4.8021  -21.7460  -50.8104 C.3       17 UNK         0.1400 
     96 CB         -6.1616  -21.0357  -50.6487 C.3       17 UNK        -0.1800 
     97 C          -3.8218  -20.9995  -51.7406 C.2       17 UNK         0.5000 
     98 O          -3.9431  -19.7860  -51.9074 O.2       17 UNK        -0.5000 
     99 N          -2.8829  -21.7555  -52.3340 N.am      18 UNK        -0.5000 
    100 CA        -1.9242  -21.3542  -53.3692 C.3       18 UNK         0.1400 
    101 CB        -0.8359  -20.4415  -52.7797 C.3       18 UNK        -0.1800 
    102 C         -2.6266  -20.7512  -54.6033 C.2       18 UNK         0.5000 
    103 O         -2.2884  -19.6500  -55.0382 O.2       18 UNK        -0.5000 
    104 N         -3.6275  -21.4874  -55.1099 N.am      19 UNK        -0.5000 
    105 CA        -4.5429  -21.1120  -56.1924 C.3       19 UNK         0.1400 
    106 CB        -3.7929  -20.9236  -57.5285 C.3       19 UNK        -0.1800 
    107 C         -5.4212  -19.9068  -55.8006 C.2       19 UNK         0.5000 
    108 O         -5.5492  -18.9492  -56.5654 O.2       19 UNK        -0.5000 
    109 N         -6.0007  -19.9920  -54.5941 N.am      20 UNK        -0.5000 
    110 CA        -6.9036  -19.0200  -53.9661 C.3       20 UNK         0.1400 
    111 CB        -8.1997  -18.8587  -54.7878 C.3       20 UNK        -0.1800 
    112 C         -6.2613  -17.6620  -53.6055 C.2       20 UNK         0.5000 
    113 O         -6.9918  -16.7168  -53.3037 O.2       20 UNK        -0.5000 
    114 N         -4.9233  -17.5819  -53.5744 N.am      21 UNK        -0.5000 
    115 CA        -4.1667  -16.4007  -53.1451 C.3       21 UNK         0.1400 
    116 CB        -2.6732  -16.6144  -53.4294 C.3       21 UNK        -0.1800 
    117 C         -4.3898  -16.0556  -51.6599 C.2       21 UNK         0.5000 
    118 O         -4.4654  -14.8767  -51.3144 O.2       21 UNK        -0.5000 
    119 N         -4.5323  -17.0912  -50.8244 N.am      22 UNK        -0.5000 
    120 CA        -4.9424  -16.9894  -49.4134 C.3       22 UNK         0.1400 
    121 C         -6.4898  -16.9820  -49.2151 C.2       22 UNK         0.5000 
    122 N         -7.3091  -16.9287  -50.2594 N.am      22 UNK        -0.7600 
    123 O         -6.9659  -17.0089  -48.0840 O.2       22 UNK        -0.5000 
    124 C124       -4.2522  -18.0730  -48.5429 C.3       23 UNK        -0.0398 
    125 S125       -2.4744  -17.7510  -48.3110 S.3       23 UNK        -0.2404 
    126 C126       -1.7474  -18.7669  -49.6238 C.3       23 UNK        -0.0205 
    127 H127        6.3693  -14.3425  -47.6338 H         1 UNK         0.0600 
    128 H128        5.5180  -14.6422  -46.1153 H         1 UNK         0.0600 
    129 H129        5.0896  -13.2448  -47.1051 H         1 UNK         0.0600 
    130 H130        3.2568  -13.5243  -48.3517 H         1 UNK         0.3000 
    131 H131        2.1123  -16.1686  -48.8089 H         1 UNK         0.0600 
    132 H132        1.5727  -15.4149  -51.2611 H         1 UNK         0.0800 
    133 H133        2.7830  -14.1836  -51.0700 H         1 UNK         0.0800 
    134 H134        2.1149  -17.4969  -52.5795 H         1 UNK         0.0800 
    135 H135        3.4113  -18.5709  -52.1220 H         1 UNK         0.0800 
    136 H136        0.0409  -17.7461  -51.4329 H         1 UNK         0.1150 
    137 H137       -0.1744  -19.8250  -47.6958 H         1 UNK         0.1150 
    138 H138        3.6358  -19.0860  -49.5190 H         1 UNK         0.1150 
    139 H139        3.4179  -19.7207  -47.0767 H         1 UNK         0.0800 
    140 H140        1.8809  -20.2052  -46.4304 H         1 UNK         0.0800 
    141 H141        1.4807  -23.4565  -48.9515 H         1 UNK         0.0800 
    142 H142        0.6629  -21.9670  -48.6689 H         1 UNK         0.0800 
    143 H143        1.0638  -24.3113  -46.7658 H         1 UNK         0.0600 
    144 H144        0.7473  -21.5974  -45.8924 H         1 UNK         0.3000 
    145 H145       -0.6674  -22.2668  -42.7699 H         1 UNK         0.0600 
    146 H146        1.4070  -21.5187  -41.6869 H         1 UNK         0.0600 
    147 H147        1.6612  -23.1361  -42.3145 H         1 UNK         0.0600 
    148 H148        2.3244  -21.7509  -43.1751 H         1 UNK         0.0600 
    149 H149        0.5029  -19.9295  -43.2234 H         1 UNK         0.3000 
    150 H150       -1.5879  -18.2478  -45.5287 H         1 UNK         0.0600 
    151 H151       -2.1317  -16.9865  -43.3874 H         1 UNK         0.0600 
    152 H152       -3.0711  -18.4562  -43.5869 H         1 UNK         0.0600 
    153 H153       -1.7146  -18.4211  -42.4685 H         1 UNK         0.0600 
    154 H154        0.6069  -17.9746  -43.5147 H         1 UNK         0.3000 
    155 H155        2.9129  -17.0635  -45.7986 H         1 UNK         0.0600 
    156 H156        1.5738  -14.6973  -44.3927 H         1 UNK         0.0600 
    157 H157        1.9361  -14.7830  -46.0977 H         1 UNK         0.0600 
    158 H158        3.2478  -14.7408  -44.9292 H         1 UNK         0.0600 
    159 H159        2.4943  -16.4322  -42.9634 H         1 UNK         0.3000 
    160 H160        3.5052  -19.5421  -41.7342 H         1 UNK         0.0600 
    161 H161        5.2029  -16.9867  -41.7726 H         1 UNK         0.0600 
    162 H162        5.7538  -18.5846  -42.2621 H         1 UNK         0.0600 
    163 H163        5.3157  -18.2889  -40.5874 H         1 UNK         0.0600 
    164 H164        3.0970  -17.0268  -40.4537 H         1 UNK         0.3000 
    165 H165       -0.4784  -17.2506  -40.1892 H         1 UNK         0.0600 
    166 H166        0.1680  -16.9159  -37.8287 H         1 UNK         0.0600 
    167 H167        0.5834  -18.5465  -38.3305 H         1 UNK         0.0600 
    168 H168        1.8444  -17.3274  -38.1889 H         1 UNK         0.0600 
    169 H169        1.2628  -15.1875  -39.3531 H         1 UNK         0.3000 
    170 H170        0.5581  -12.9970  -40.5327 H         1 UNK         0.0600 
    171 H171        2.9536  -13.7328  -40.2149 H         1 UNK         0.0600 
    172 H172        3.1487  -13.8966  -41.9570 H         1 UNK         0.0600 
    173 H173        2.8958  -12.3096  -41.2364 H         1 UNK         0.0600 
    174 H174        0.3705  -13.7516  -43.2520 H         1 UNK         0.3000 
    175 H175       -0.7696  -10.7754  -44.4535 H         1 UNK         0.0600 
    176 H176        1.9582  -11.7957  -45.4227 H         1 UNK         0.0600 
    177 H177        0.8162  -10.8477  -46.3736 H         1 UNK         0.0600 
    178 H178        1.5928  -10.1348  -44.9680 H         1 UNK         0.0600 
    179 H179       -0.0349  -13.1688  -45.8374 H         1 UNK         0.3000 
    180 H180       -1.4567  -15.4187  -44.8766 H         1 UNK         0.0600 
    181 H181       -4.1991  -14.3655  -45.7375 H         1 UNK         0.0600 
    182 H182       -3.8205  -15.1615  -44.2160 H         1 UNK         0.0600 
    183 H183       -3.7137  -16.0607  -45.7194 H         1 UNK         0.0600 
    184 H184       -0.9830  -15.5199  -47.0127 H         1 UNK         0.3000 
    185 H185       -2.1904  -15.1266  -49.5945 H         1 UNK         0.0600 
    186 H186       -2.6088  -12.8325  -50.3428 H         1 UNK         0.0600 
    187 H187       -0.9832  -12.3340  -49.8953 H         1 UNK         0.0600 
    188 H188       -1.2314  -13.4854  -51.2094 H         1 UNK         0.0600 
    189 H189       -0.1388  -15.9117  -49.5662 H         1 UNK         0.3000 
    190 H190       -1.7340  -22.2861  -46.4008 H         1 UNK         0.3000 
    191 H191       -3.4108  -23.4532  -48.4318 H         1 UNK         0.0600 
    192 H192       -3.6491  -21.1019  -47.5638 H         1 UNK         0.0600 
    193 H193       -5.1400  -22.0250  -47.4199 H         1 UNK         0.0600 
    194 H194       -4.1423  -21.7416  -46.0008 H         1 UNK         0.0600 
    195 H195       -2.5541  -25.6083  -47.5215 H         1 UNK         0.3000 
    196 H196       -4.7806  -27.0963  -46.5266 H         1 UNK         0.0600 
    197 H197       -3.5863  -28.1385  -44.5562 H         1 UNK         0.0600 
    198 H198       -3.9324  -26.4393  -44.2812 H         1 UNK         0.0600 
    199 H199       -2.3004  -26.9452  -44.7097 H         1 UNK         0.0600 
    200 H200       -1.2443  -26.9695  -47.0928 H         1 UNK         0.3000 
    201 H201       -1.0739  -29.5953  -48.3263 H         1 UNK         0.0600 
    202 H202        0.8811  -28.5745  -47.1853 H         1 UNK         0.0600 
    203 H203        0.8572  -27.2093  -48.3013 H         1 UNK         0.0600 
    204 H204        1.2362  -28.8248  -48.8875 H         1 UNK         0.0600 
    205 H205       -1.3216  -26.1967  -49.4195 H         1 UNK         0.3000 
    206 H206       -1.8574  -27.0503  -52.2338 H         1 UNK         0.0600 
    207 H207        0.0394  -25.4246  -51.9027 H         1 UNK         0.0600 
    208 H208       -1.2963  -24.6839  -52.7669 H         1 UNK         0.0600 
    209 H209       -1.0464  -24.3230  -51.0606 H         1 UNK         0.0600 
    210 H210       -3.6324  -25.9501  -53.2748 H         1 UNK         0.3000 
    211 H211       -6.0264  -25.5739  -51.6687 H         1 UNK         0.0600 
    212 H212       -5.5008  -25.2939  -54.6770 H         1 UNK         0.0600 
    213 H213       -7.0837  -25.2833  -53.9084 H         1 UNK         0.0600 
    214 H214       -6.0986  -26.7359  -53.8567 H         1 UNK         0.0600 
    215 H215       -4.7091  -23.8441  -50.4967 H         1 UNK         0.3000 
    216 H216       -4.3159  -21.7438  -49.8374 H         1 UNK         0.0600 
    217 H217       -6.7680  -21.1168  -51.5489 H         1 UNK         0.0600 
    218 H218       -6.7318  -21.4778  -49.8319 H         1 UNK         0.0600 
    219 H219       -6.0491  -19.9759  -50.4215 H         1 UNK         0.0600 
    220 H220       -2.8877  -22.7385  -52.1095 H         1 UNK         0.3000 
    221 H221       -1.4335  -22.2666  -53.7108 H         1 UNK         0.0600 
    222 H222       -1.2489  -19.4821  -52.4791 H         1 UNK         0.0600 
    223 H223       -0.3649  -20.8957  -51.9079 H         1 UNK         0.0600 
    224 H224       -0.0509  -20.2438  -53.5102 H         1 UNK         0.0600 
    225 H225       -3.8691  -22.3444  -54.6307 H         1 UNK         0.3000 
    226 H226       -5.2248  -21.9543  -56.3192 H         1 UNK         0.0600 
    227 H227       -3.1898  -21.7990  -57.7686 H         1 UNK         0.0600 
    228 H228       -4.4955  -20.7786  -58.3498 H         1 UNK         0.0600 
    229 H229       -3.1332  -20.0559  -57.5099 H         1 UNK         0.0600 
    230 H230       -5.8244  -20.8319  -54.0541 H         1 UNK         0.3000 
    231 H231       -7.1908  -19.4577  -53.0116 H         1 UNK         0.0600 
    232 H232       -8.0210  -18.3451  -55.7327 H         1 UNK         0.0600 
    233 H233       -8.9427  -18.2787  -54.2392 H         1 UNK         0.0600 
    234 H234       -8.6488  -19.8266  -55.0104 H         1 UNK         0.0600 
    235 H235       -4.3875  -18.4195  -53.7614 H         1 UNK         0.3000 
    236 H236       -4.5085  -15.5503  -53.7386 H         1 UNK         0.0600 
    237 H237       -2.4943  -16.7851  -54.4911 H         1 UNK         0.0600 
    238 H238       -2.0883  -15.7423  -53.1345 H         1 UNK         0.0600 
    239 H239       -2.2829  -17.4722  -52.8839 H         1 UNK         0.0600 
    240 H240       -4.4395  -18.0288  -51.2050 H         1 UNK         0.3000 
    241 H241       -4.6176  -16.0202  -49.0300 H         1 UNK         0.0600 
    242 H242       -8.3034  -16.9157  -50.0963 H         1 UNK         0.3800 
    243 H243       -6.9608  -16.8340  -51.2042 H         1 UNK         0.3800 
    244 H244       -4.6833  -18.1031  -47.5409 H         1 UNK         0.0800 
    245 H245       -4.4020  -19.0676  -48.9619 H         1 UNK         0.0800 
    246 H246       -2.1115  -19.7909  -49.5359 H         1 UNK         0.0800 
    247 H247       -2.0893  -18.3899  -50.5864 H         1 UNK         0.0800 
@<TRIPOS>BOND
     1    1    2 1    
     2    1  127 1    
     3    1  128 1    
     4    1  129 1    
     5    2    3 2    
     6    2    4 am   BACKBONE|DICT|INTERRES
     7    4    5 1    
     8    4  130 1    
     9    5    6 1    
    10    5   65 1    
    11    5  131 1    
    12    6    7 1    
    13    6  132 1    
    14    6  133 1    
    15    7    8 1    
    16    8    9 1    
    17    8  134 1    
    18    8  135 1    
    19    9   10 ar   
    20    9   14 ar   
    21   10   11 ar   
    22   10  136 1    
    23   11   12 ar   
    24   11  126 1    
    25   12   13 ar   
    26   12  137 1    
    27   13   14 ar   
    28   13   15 1    
    29   14  138 1    
    30   15   16 1    
    31   15  139 1    
    32   15  140 1    
    33   16   17 1    
    34   17   18 1    
    35   17  141 1    
    36   17  142 1    
    37   18   19 1    
    38   18   67 1    
    39   18  143 1    
    40   19   20 am   BACKBONE|DICT|INTERRES
    41   19  144 1    
    42   20   21 2    
    43   20   22 1    
    44   22   23 1    
    45   22   24 1    
    46   22  145 1    
    47   23  146 1    
    48   23  147 1    
    49   23  148 1    
    50   24   25 am   BACKBONE|DICT|INTERRES
    51   24  149 1    
    52   25   26 2    
    53   25   27 1    
    54   27   28 1    
    55   27   29 1    
    56   27  150 1    
    57   28  151 1    
    58   28  152 1    
    59   28  153 1    
    60   29   30 am   BACKBONE|DICT|INTERRES
    61   29  154 1    
    62   30   31 2    
    63   30   32 1    
    64   32   33 1    
    65   32   34 1    
    66   32  155 1    
    67   33  156 1    
    68   33  157 1    
    69   33  158 1    
    70   34   35 am   BACKBONE|DICT|INTERRES
    71   34  159 1    
    72   35   36 2    
    73   35   37 1    
    74   37   38 1    
    75   37   39 1    
    76   37  160 1    
    77   38  161 1    
    78   38  162 1    
    79   38  163 1    
    80   39   40 am   BACKBONE|DICT|INTERRES
    81   39  164 1    
    82   40   41 2    
    83   40   42 1    
    84   42   43 1    
    85   42   44 1    
    86   42  165 1    
    87   43  166 1    
    88   43  167 1    
    89   43  168 1    
    90   44   45 am   BACKBONE|DICT|INTERRES
    91   44  169 1    
    92   45   46 2    
    93   45   47 1    
    94   47   48 1    
    95   47   49 1    
    96   47  170 1    
    97   48  171 1    
    98   48  172 1    
    99   48  173 1    
   100   49   50 am   BACKBONE|DICT|INTERRES
   101   49  174 1    
   102   50   51 2    
   103   50   52 1    
   104   52   53 1    
   105   52   54 1    
   106   52  175 1    
   107   53  176 1    
   108   53  177 1    
   109   53  178 1    
   110   54   55 am   BACKBONE|DICT|INTERRES
   111   54  179 1    
   112   55   56 2    
   113   55   57 1    
   114   57   58 1    
   115   57   59 1    
   116   57  180 1    
   117   58  181 1    
   118   58  182 1    
   119   58  183 1    
   120   59   60 am   BACKBONE|DICT|INTERRES
   121   59  184 1    
   122   60   61 2    
   123   60   62 1    
   124   62   63 1    
   125   62   64 1    
   126   62  185 1    
   127   63  186 1    
   128   63  187 1    
   129   63  188 1    
   130   64   65 am   BACKBONE|DICT|INTERRES
   131   64  189 1    
   132   65   66 2    
   133   67   68 2    
   134   67   69 am   BACKBONE|DICT|INTERRES
   135   69   70 1    
   136   69  190 1    
   137   70   71 1    
   138   70   72 1    
   139   70  191 1    
   140   71  192 1    
   141   71  193 1    
   142   71  194 1    
   143   72   73 2    
   144   72   74 am   BACKBONE|DICT|INTERRES
   145   74   75 1    
   146   74  195 1    
   147   75   76 1    
   148   75   77 1    
   149   75  196 1    
   150   76  197 1    
   151   76  198 1    
   152   76  199 1    
   153   77   78 2    
   154   77   79 am   BACKBONE|DICT|INTERRES
   155   79   80 1    
   156   79  200 1    
   157   80   81 1    
   158   80   82 1    
   159   80  201 1    
   160   81  202 1    
   161   81  203 1    
   162   81  204 1    
   163   82   83 2    
   164   82   84 am   BACKBONE|DICT|INTERRES
   165   84   85 1    
   166   84  205 1    
   167   85   86 1    
   168   85   87 1    
   169   85  206 1    
   170   86  207 1    
   171   86  208 1    
   172   86  209 1    
   173   87   88 2    
   174   87   89 am   BACKBONE|DICT|INTERRES
   175   89   90 1    
   176   89  210 1    
   177   90   91 1    
   178   90   92 1    
   179   90  211 1    
   180   91  212 1    
   181   91  213 1    
   182   91  214 1    
   183   92   93 2    
   184   92   94 am   BACKBONE|DICT|INTERRES
   185   94   95 1    
   186   94  215 1    
   187   95   96 1    
   188   95   97 1    
   189   95  216 1    
   190   96  217 1    
   191   96  218 1    
   192   96  219 1    
   193   97   98 2    
   194   97   99 am   BACKBONE|DICT|INTERRES
   195   99  100 1    
   196   99  220 1    
   197  100  101 1    
   198  100  102 1    
   199  100  221 1    
   200  101  222 1    
   201  101  223 1    
   202  101  224 1    
   203  102  103 2    
   204  102  104 am   BACKBONE|DICT|INTERRES
   205  104  105 1    
   206  104  225 1    
   207  105  106 1    
   208  105  107 1    
   209  105  226 1    
   210  106  227 1    
   211  106  228 1    
   212  106  229 1    
   213  107  108 2    
   214  107  109 am   BACKBONE|DICT|INTERRES
   215  109  110 1    
   216  109  230 1    
   217  110  111 1    
   218  110  112 1    
   219  110  231 1    
   220  111  232 1    
   221  111  233 1    
   222  111  234 1    
   223  112  113 2    
   224  112  114 am   BACKBONE|DICT|INTERRES
   225  114  115 1    
   226  114  235 1    
   227  115  116 1    
   228  115  117 1    
   229  115  236 1    
   230  116  237 1    
   231  116  238 1    
   232  116  239 1    
   233  117  118 2    
   234  117  119 am   BACKBONE|DICT|INTERRES
   235  119  120 1    
   236  119  240 1    
   237  120  121 1    
   238  120  124 1    
   239  120  241 1    
   240  121  122 am   BACKBONE|DICT|INTERRES
   241  121  123 2    
   242  122  242 1    
   243  122  243 1    
   244  124  125 1    
   245  124  244 1    
   246  124  245 1    
   247  125  126 1    
   248  126  246 1    
   249  126  247 1    
@<TRIPOS>SUBSTRUCTURE
     1 UNK         1 GROUP             0       ****    0 ROOT    
