@<TRIPOS>MOLECULE
3R540
247   249    1
SMALL
USER_CHARGES


@<TRIPOS>ATOM
      1 CA         -3.5023  -13.1172  -47.3433 C.3       0 UNK        -0.1800 
      2 C          -2.0276  -12.7420  -47.3952 C.2       0 UNK         0.5000 
      3 O          -1.6296  -11.7366  -46.8071 O.2       0 UNK        -0.5000 
      4 N          -1.2216  -13.5418  -48.1025 N.am      1 UNK        -0.5000 
      5 CA          0.2293  -13.3708  -48.2342 C.3       1 UNK         0.1400 
      6 C6          0.8199  -14.2642  -49.3531 C.3       23 UNK        -0.0398 
      7 S7          0.0713  -13.9565  -50.9886 S.3       23 UNK        -0.2404 
      8 C8         -0.7673  -15.5386  -51.3184 C.3       23 UNK        -0.0205 
      9 C9          0.1792  -16.5817  -51.8961 C.ar      23 UNK        -0.0193 
     10 C10         0.3215  -16.7070  -53.2808 C.ar      23 UNK        -0.1150 
     11 C11         1.1889  -17.6602  -53.8222 C.ar      23 UNK        -0.0193 
     12 C12         1.9202  -18.4901  -52.9672 C.ar      23 UNK        -0.1150 
     13 C13         1.7806  -18.3822  -51.5814 C.ar      23 UNK        -0.0193 
     14 C14         0.9054  -17.4290  -51.0543 C.ar      23 UNK        -0.1150 
     15 C15         2.6102  -19.2610  -50.6558 C.3       23 UNK        -0.0205 
     16 S16         2.1119  -21.0142  -50.6904 S.3       23 UNK        -0.2404 
     17 C17         0.4649  -20.9998  -49.9065 C.3       23 UNK        -0.0398 
     18 CA          0.5373  -21.2281  -48.3712 C.3       11 UNK         0.1400 
     19 N           1.0828  -20.0857  -47.6276 N.am      11 UNK        -0.5000 
     20 C           0.5083  -18.8777  -47.4997 C.2       10 UNK         0.5000 
     21 O          -0.4877  -18.5297  -48.1373 O.2       10 UNK        -0.5000 
     22 CA          1.0867  -17.9109  -46.4482 C.3       10 UNK         0.1400 
     23 CB          0.0027  -17.5646  -45.4196 C.3       10 UNK        -0.1800 
     24 N           2.2351  -18.4514  -45.7232 N.am      10 UNK        -0.5000 
     25 C           3.4951  -18.4680  -46.1791 C.2       9 UNK         0.5000 
     26 O           3.8413  -17.9611  -47.2455 O.2       9 UNK        -0.5000 
     27 CA          4.5387  -19.2001  -45.3096 C.3       9 UNK         0.1400 
     28 CB          5.2826  -18.1909  -44.4211 C.3       9 UNK        -0.1800 
     29 N           3.9728  -20.2521  -44.4575 N.am      9 UNK        -0.5000 
     30 C           3.2761  -21.3167  -44.8823 C.2       8 UNK         0.5000 
     31 O           3.0740  -21.5689  -46.0699 O.2       8 UNK        -0.5000 
     32 CA          2.6440  -22.2245  -43.8091 C.3       8 UNK         0.1400 
     33 CB          3.4940  -23.4885  -43.6132 C.3       8 UNK        -0.1800 
     34 N           2.4234  -21.5921  -42.5034 N.am      8 UNK        -0.5000 
     35 C           1.6863  -20.4993  -42.2633 C.2       7 UNK         0.5000 
     36 O           1.1639  -19.8067  -43.1427 O.2       7 UNK        -0.5000 
     37 CA          1.5476  -20.1022  -40.7885 C.3       7 UNK         0.1400 
     38 CB          2.8359  -19.4367  -40.2717 C.3       7 UNK        -0.1800 
     39 N           0.4179  -19.1918  -40.6419 N.am      7 UNK        -0.5000 
     40 C          -0.3043  -19.0255  -39.5274 C.2       6 UNK         0.5000 
     41 O          -0.0648  -19.6107  -38.4701 O.2       6 UNK        -0.5000 
     42 CA         -1.4917  -18.0428  -39.5860 C.3       6 UNK         0.1400 
     43 CB         -1.1490  -16.7449  -38.8396 C.3       6 UNK        -0.1800 
     44 N          -1.9237  -17.7209  -40.9506 N.am      6 UNK        -0.5000 
     45 C          -2.6495  -18.5460  -41.7198 C.2       5 UNK         0.5000 
     46 O          -3.0091  -19.6635  -41.3487 O.2       5 UNK        -0.5000 
     47 CA         -3.0180  -18.0866  -43.1456 C.3       5 UNK         0.1400 
     48 CB         -4.5376  -18.1737  -43.3989 C.3       5 UNK        -0.1800 
     49 N          -2.4680  -16.7799  -43.5320 N.am      5 UNK        -0.5000 
     50 C          -2.8796  -15.5561  -43.1723 C.2       4 UNK         0.5000 
     51 O          -3.8145  -15.3349  -42.4021 O.2       4 UNK        -0.5000 
     52 CA         -2.0609  -14.3953  -43.7753 C.3       4 UNK         0.1400 
     53 CB         -2.5507  -13.0032  -43.3284 C.3       4 UNK        -0.1800 
     54 N          -0.6201  -14.5405  -43.5376 N.am      4 UNK        -0.5000 
     55 C          -0.0042  -14.6276  -42.3476 C.2       3 UNK         0.5000 
     56 O          -0.6025  -14.6214  -41.2731 O.2       3 UNK        -0.5000 
     57 CA          1.5313  -14.7740  -42.3343 C.3       3 UNK         0.1400 
     58 CB          1.9357  -16.1854  -41.8801 C.3       3 UNK        -0.1800 
     59 N           2.1680  -14.5073  -43.6224 N.am      3 UNK        -0.5000 
     60 C           2.3454  -13.2984  -44.1708 C.2       2 UNK         0.5000 
     61 O           1.9976  -12.2437  -43.6385 O.2       2 UNK        -0.5000 
     62 CA          3.0193  -13.2631  -45.5596 C.3       2 UNK         0.1400 
     63 CB          3.8518  -14.5280  -45.8720 C.3       2 UNK        -0.1800 
     64 N           2.0693  -13.0174  -46.6506 N.am      2 UNK        -0.5000 
     65 C           0.9417  -13.6962  -46.9074 C.2       1 UNK         0.5000 
     66 O           0.4942  -14.5914  -46.1872 O.2       1 UNK        -0.5000 
     67 C          -0.8138  -21.6206  -47.7371 C.2       11 UNK         0.5000 
     68 O          -1.8465  -21.6168  -48.4049 O.2       11 UNK        -0.5000 
     69 N          -0.7800  -21.8381  -46.4167 N.am      12 UNK        -0.5000 
     70 CA         -1.9553  -22.0317  -45.5797 C.3       12 UNK         0.1400 
     71 CB         -1.5868  -21.7067  -44.1237 C.3       12 UNK        -0.1800 
     72 C          -2.5135  -23.4590  -45.6892 C.2       12 UNK         0.5000 
     73 O          -1.7748  -24.4243  -45.4815 O.2       12 UNK        -0.5000 
     74 N          -3.8186  -23.5496  -45.9465 N.am      13 UNK        -0.5000 
     75 CA         -4.6440  -24.7373  -45.7586 C.3       13 UNK         0.1400 
     76 CB         -5.0097  -25.3406  -47.1288 C.3       13 UNK        -0.1800 
     77 C          -5.8487  -24.2860  -44.9157 C.2       13 UNK         0.5000 
     78 O          -5.6533  -23.8595  -43.7762 O.2       13 UNK        -0.5000 
     79 N          -7.0591  -24.3189  -45.4903 N.am      14 UNK        -0.5000 
     80 CA         -8.2612  -23.6977  -44.9207 C.3       14 UNK         0.1400 
     81 CB         -9.4976  -24.2347  -45.6579 C.3       14 UNK        -0.1800 
     82 C          -8.2191  -22.1544  -44.9871 C.2       14 UNK         0.5000 
     83 O          -8.8984  -21.4884  -44.2052 O.2       14 UNK        -0.5000 
     84 N          -7.4116  -21.6240  -45.9109 N.am      15 UNK        -0.5000 
     85 CA         -7.0920  -20.2166  -46.1063 C.3       15 UNK         0.1400 
     86 CB         -8.1427  -19.5750  -47.0310 C.3       15 UNK        -0.1800 
     87 C          -5.6753  -20.1339  -46.7016 C.2       15 UNK         0.5000 
     88 O          -5.0617  -21.1731  -46.9644 O.2       15 UNK        -0.5000 
     89 N          -5.1807  -18.9066  -46.8978 N.am      16 UNK        -0.5000 
     90 CA         -3.9212  -18.6094  -47.5846 C.3       16 UNK         0.1400 
     91 CB         -3.5425  -17.1470  -47.2884 C.3       16 UNK        -0.1800 
     92 C          -4.0239  -18.8400  -49.1068 C.2       16 UNK         0.5000 
     93 O          -5.1303  -18.9427  -49.6434 O.2       16 UNK        -0.5000 
     94 N          -2.8614  -18.8696  -49.7737 N.am      17 UNK        -0.5000 
     95 CA         -2.6793  -19.0256  -51.2246 C.3       17 UNK         0.1400 
     96 CB         -3.3705  -17.8811  -51.9971 C.3       17 UNK        -0.1800 
     97 C          -3.0988  -20.4080  -51.7695 C.2       17 UNK         0.5000 
     98 O          -3.3201  -20.5438  -52.9744 O.2       17 UNK        -0.5000 
     99 N          -3.1729  -21.4284  -50.9041 N.am      18 UNK        -0.5000 
    100 CA        -3.6379  -22.7846  -51.2093 C.3       18 UNK         0.1400 
    101 CB        -4.1469  -23.4387  -49.9144 C.3       18 UNK        -0.1800 
    102 C         -2.5846  -23.6492  -51.9386 C.2       18 UNK         0.5000 
    103 O         -2.4467  -24.8391  -51.6514 O.2       18 UNK        -0.5000 
    104 N         -1.8733  -23.0372  -52.8910 N.am      19 UNK        -0.5000 
    105 CA        -0.9000  -23.6721  -53.7808 C.3       19 UNK         0.1400 
    106 CB         0.2247  -22.6627  -54.0571 C.3       19 UNK        -0.1800 
    107 C         -1.5414  -24.1526  -55.1004 C.2       19 UNK         0.5000 
    108 O         -0.8313  -24.6760  -55.9601 O.2       19 UNK        -0.5000 
    109 N         -2.8578  -23.9372  -55.2546 N.am      20 UNK        -0.5000 
    110 CA        -3.7264  -24.2299  -56.4024 C.3       20 UNK         0.1400 
    111 CB        -3.7095  -25.7242  -56.7784 C.3       20 UNK        -0.1800 
    112 C         -3.4483  -23.3297  -57.6191 C.2       20 UNK         0.5000 
    113 O         -4.3588  -22.6441  -58.0860 O.2       20 UNK        -0.5000 
    114 N         -2.1901  -23.2984  -58.0764 N.am      21 UNK        -0.5000 
    115 CA        -1.7038  -22.4601  -59.1772 C.3       21 UNK         0.1400 
    116 CB        -0.2512  -22.8478  -59.4926 C.3       21 UNK        -0.1800 
    117 C         -1.8081  -20.9488  -58.8880 C.2       21 UNK         0.5000 
    118 O         -1.9504  -20.1568  -59.8203 O.2       21 UNK        -0.5000 
    119 N         -1.7579  -20.5892  -57.6007 N.am      22 UNK        -0.5000 
    120 CA        -1.9479  -19.2258  -57.0835 C.3       22 UNK         0.1400 
    121 C         -3.4423  -18.8085  -56.9342 C.2       22 UNK         0.5000 
    122 N         -4.4170  -19.6659  -57.2190 N.am      22 UNK        -0.7600 
    123 O         -3.7262  -17.6721  -56.5661 O.2       22 UNK        -0.5000 
    124 C124       -1.1684  -19.0132  -55.7602 C.3       23 UNK        -0.0398 
    125 S125        0.6214  -19.3258  -55.9607 S.3       23 UNK        -0.2404 
    126 C126        1.3531  -17.7852  -55.3292 C.3       23 UNK        -0.0205 
    127 H127       -3.8182  -13.2718  -46.3119 H         1 UNK         0.0600 
    128 H128       -3.7082  -14.0292  -47.9035 H         1 UNK         0.0600 
    129 H129       -4.1068  -12.3157  -47.7676 H         1 UNK         0.0600 
    130 H130       -1.6048  -14.3575  -48.5541 H         1 UNK         0.3000 
    131 H131        0.4235  -12.3258  -48.4852 H         1 UNK         0.0600 
    132 H132        0.7087  -15.3150  -49.0867 H         1 UNK         0.0800 
    133 H133        1.8934  -14.0928  -49.4519 H         1 UNK         0.0800 
    134 H134       -1.2408  -15.9144  -50.4101 H         1 UNK         0.0800 
    135 H135       -1.5746  -15.3480  -52.0266 H         1 UNK         0.0800 
    136 H136       -0.2398  -16.0564  -53.9367 H         1 UNK         0.1150 
    137 H137        2.5978  -19.2235  -53.3818 H         1 UNK         0.1150 
    138 H138        0.7995  -17.3407  -49.9854 H         1 UNK         0.1150 
    139 H139        3.6558  -19.1958  -50.9593 H         1 UNK         0.0800 
    140 H140        2.5779  -18.8895  -49.6318 H         1 UNK         0.0800 
    141 H141       -0.0538  -20.0761  -50.1515 H         1 UNK         0.0800 
    142 H142       -0.1065  -21.7987  -50.3823 H         1 UNK         0.0800 
    143 H143        1.2063  -22.0710  -48.1901 H         1 UNK         0.0600 
    144 H144        1.8985  -20.2981  -47.0636 H         1 UNK         0.3000 
    145 H145        1.3855  -16.9986  -46.9673 H         1 UNK         0.0600 
    146 H146        0.3989  -16.9132  -44.6432 H         1 UNK         0.0600 
    147 H147       -0.3917  -18.4616  -44.9418 H         1 UNK         0.0600 
    148 H148       -0.8276  -17.0423  -45.8955 H         1 UNK         0.0600 
    149 H149        2.0298  -18.9076  -44.8404 H         1 UNK         0.3000 
    150 H150        5.2582  -19.6684  -45.9841 H         1 UNK         0.0600 
    151 H151        4.6114  -17.7139  -43.7054 H         1 UNK         0.0600 
    152 H152        6.0841  -18.6728  -43.8611 H         1 UNK         0.0600 
    153 H153        5.7369  -17.4011  -45.0212 H         1 UNK         0.0600 
    154 H154        4.0793  -20.1284  -43.4618 H         1 UNK         0.3000 
    155 H155        1.6670  -22.5297  -44.1881 H         1 UNK         0.0600 
    156 H156        3.6551  -24.0041  -44.5611 H         1 UNK         0.0600 
    157 H157        3.0040  -24.1945  -42.9424 H         1 UNK         0.0600 
    158 H158        4.4742  -23.2529  -43.1969 H         1 UNK         0.0600 
    159 H159        2.8308  -22.0738  -41.7146 H         1 UNK         0.3000 
    160 H160        1.3508  -21.0098  -40.2139 H         1 UNK         0.0600 
    161 H161        3.1047  -18.5629  -40.8642 H         1 UNK         0.0600 
    162 H162        3.6782  -20.1282  -40.3107 H         1 UNK         0.0600 
    163 H163        2.7306  -19.1178  -39.2347 H         1 UNK         0.0600 
    164 H164        0.1350  -18.7326  -41.4970 H         1 UNK         0.3000 
    165 H165       -2.3287  -18.5128  -39.0651 H         1 UNK         0.0600 
    166 H166       -1.9672  -16.0264  -38.8937 H         1 UNK         0.0600 
    167 H167       -0.9593  -16.9428  -37.7839 H         1 UNK         0.0600 
    168 H168       -0.2559  -16.2700  -39.2446 H         1 UNK         0.0600 
    169 H169       -1.6873  -16.8013  -41.2985 H         1 UNK         0.3000 
    170 H170       -2.5484  -18.8019  -43.8201 H         1 UNK         0.0600 
    171 H171       -4.8779  -19.2093  -43.3641 H         1 UNK         0.0600 
    172 H172       -5.1060  -17.6223  -42.6495 H         1 UNK         0.0600 
    173 H173       -4.8037  -17.7759  -44.3764 H         1 UNK         0.0600 
    174 H174       -1.6605  -16.8245  -44.1371 H         1 UNK         0.3000 
    175 H175       -2.1955  -14.4592  -44.8553 H         1 UNK         0.0600 
    176 H176       -2.4619  -12.8666  -42.2503 H         1 UNK         0.0600 
    177 H177       -1.9788  -12.2130  -43.8153 H         1 UNK         0.0600 
    178 H178       -3.5982  -12.8547  -43.5926 H         1 UNK         0.0600 
    179 H179       -0.0471  -14.5614  -44.3786 H         1 UNK         0.3000 
    180 H180        1.9175  -14.0580  -41.6059 H         1 UNK         0.0600 
    181 H181        3.0198  -16.2792  -41.8151 H         1 UNK         0.0600 
    182 H182        1.5741  -16.9542  -42.5631 H         1 UNK         0.0600 
    183 H183        1.5354  -16.4094  -40.8911 H         1 UNK         0.0600 
    184 H184        2.4581  -15.3128  -44.1560 H         1 UNK         0.3000 
    185 H185        3.7051  -12.4147  -45.5436 H         1 UNK         0.0600 
    186 H186        3.2275  -15.4132  -45.9935 H         1 UNK         0.0600 
    187 H187        4.4173  -14.4019  -46.7953 H         1 UNK         0.0600 
    188 H188        4.5744  -14.7334  -45.0810 H         1 UNK         0.0600 
    189 H189        2.3324  -12.2738  -47.2822 H         1 UNK         0.3000 
    190 H190        0.1113  -21.8306  -45.9460 H         1 UNK         0.3000 
    191 H191       -2.7172  -21.3166  -45.8922 H         1 UNK         0.0600 
    192 H192       -2.4631  -21.7677  -43.4768 H         1 UNK         0.0600 
    193 H193       -1.1864  -20.6984  -44.0337 H         1 UNK         0.0600 
    194 H194       -0.8396  -22.3965  -43.7298 H         1 UNK         0.0600 
    195 H195       -4.3232  -22.6927  -46.1642 H         1 UNK         0.3000 
    196 H196       -4.1093  -25.4899  -45.1753 H         1 UNK         0.0600 
    197 H197       -5.5627  -24.6374  -47.7515 H         1 UNK         0.0600 
    198 H198       -4.1118  -25.6292  -47.6755 H         1 UNK         0.0600 
    199 H199       -5.6165  -26.2396  -47.0139 H         1 UNK         0.0600 
    200 H200       -7.1443  -24.6990  -46.4221 H         1 UNK         0.3000 
    201 H201       -8.3375  -23.9831  -43.8694 H         1 UNK         0.0600 
    202 H202      -10.4137  -23.8141  -45.2410 H         1 UNK         0.0600 
    203 H203       -9.5698  -25.3189  -45.5695 H         1 UNK         0.0600 
    204 H204       -9.4747  -23.9838  -46.7191 H         1 UNK         0.0600 
    205 H205       -6.8496  -22.2441  -46.4786 H         1 UNK         0.3000 
    206 H206       -7.0847  -19.7062  -45.1409 H         1 UNK         0.0600 
    207 H207       -9.1467  -19.6770  -46.6187 H         1 UNK         0.0600 
    208 H208       -7.9574  -18.5089  -47.1644 H         1 UNK         0.0600 
    209 H209       -8.1389  -20.0358  -48.0197 H         1 UNK         0.0600 
    210 H210       -5.7679  -18.1121  -46.6938 H         1 UNK         0.3000 
    211 H211       -3.1403  -19.2630  -47.1903 H         1 UNK         0.0600 
    212 H212       -4.3045  -16.4564  -47.6511 H         1 UNK         0.0600 
    213 H213       -2.6013  -16.8738  -47.7663 H         1 UNK         0.0600 
    214 H214       -3.4193  -16.9782  -46.2200 H         1 UNK         0.0600 
    215 H215       -2.0040  -18.7796  -49.2310 H         1 UNK         0.3000 
    216 H216       -1.6089  -18.9369  -51.4062 H         1 UNK         0.0600 
    217 H217       -3.2307  -16.9208  -51.5049 H         1 UNK         0.0600 
    218 H218       -4.4447  -18.0461  -52.0868 H         1 UNK         0.0600 
    219 H219       -2.9698  -17.7973  -53.0082 H         1 UNK         0.0600 
    220 H220       -2.8840  -21.2751  -49.9404 H         1 UNK         0.3000 
    221 H221       -4.4921  -22.7016  -51.8842 H         1 UNK         0.0600 
    222 H222       -4.6372  -24.3900  -50.1239 H         1 UNK         0.0600 
    223 H223       -3.3341  -23.6362  -49.2151 H         1 UNK         0.0600 
    224 H224       -4.8739  -22.8024  -49.4089 H         1 UNK         0.0600 
    225 H225       -2.0966  -22.0645  -53.0771 H         1 UNK         0.3000 
    226 H226       -0.4640  -24.5451  -53.2913 H         1 UNK         0.0600 
    227 H227        0.7066  -22.3456  -53.1324 H         1 UNK         0.0600 
    228 H228        0.9983  -23.0934  -54.6939 H         1 UNK         0.0600 
    229 H229       -0.1555  -21.7727  -54.5564 H         1 UNK         0.0600 
    230 H230       -3.3214  -23.4685  -54.4899 H         1 UNK         0.3000 
    231 H231       -4.7386  -23.9965  -56.0680 H         1 UNK         0.0600 
    232 H232       -4.4459  -25.9352  -57.5548 H         1 UNK         0.0600 
    233 H233       -3.9555  -26.3484  -55.9194 H         1 UNK         0.0600 
    234 H234       -2.7395  -26.0451  -57.1586 H         1 UNK         0.0600 
    235 H235       -1.5047  -23.8708  -57.5913 H         1 UNK         0.3000 
    236 H236       -2.3166  -22.6709  -60.0559 H         1 UNK         0.0600 
    237 H237       -0.1754  -23.8981  -59.7745 H         1 UNK         0.0600 
    238 H238        0.1394  -22.2594  -60.3240 H         1 UNK         0.0600 
    239 H239        0.4032  -22.6819  -58.6357 H         1 UNK         0.0600 
    240 H240       -1.6327  -21.3132  -56.9106 H         1 UNK         0.3000 
    241 H241       -1.5291  -18.5320  -57.8149 H         1 UNK         0.0600 
    242 H242       -4.2199  -20.6029  -57.5472 H         1 UNK         0.3800 
    243 H243       -5.3745  -19.3682  -57.1199 H         1 UNK         0.3800 
    244 H244       -1.5506  -19.6714  -54.9786 H         1 UNK         0.0800 
    245 H245       -1.3145  -17.9958  -55.3945 H         1 UNK         0.0800 
    246 H246        0.9128  -16.9315  -55.8468 H         1 UNK         0.0800 
    247 H247        2.4162  -17.7749  -55.5732 H         1 UNK         0.0800 
@<TRIPOS>BOND
     1    1    2 1    
     2    1  127 1    
     3    1  128 1    
     4    1  129 1    
     5    2    3 2    
     6    2    4 am   BACKBONE|DICT|INTERRES
     7    4    5 1    
     8    4  130 1    
     9    5    6 1    
    10    5   65 1    
    11    5  131 1    
    12    6    7 1    
    13    6  132 1    
    14    6  133 1    
    15    7    8 1    
    16    8    9 1    
    17    8  134 1    
    18    8  135 1    
    19    9   10 ar   
    20    9   14 ar   
    21   10   11 ar   
    22   10  136 1    
    23   11   12 ar   
    24   11  126 1    
    25   12   13 ar   
    26   12  137 1    
    27   13   14 ar   
    28   13   15 1    
    29   14  138 1    
    30   15   16 1    
    31   15  139 1    
    32   15  140 1    
    33   16   17 1    
    34   17   18 1    
    35   17  141 1    
    36   17  142 1    
    37   18   19 1    
    38   18   67 1    
    39   18  143 1    
    40   19   20 am   BACKBONE|DICT|INTERRES
    41   19  144 1    
    42   20   21 2    
    43   20   22 1    
    44   22   23 1    
    45   22   24 1    
    46   22  145 1    
    47   23  146 1    
    48   23  147 1    
    49   23  148 1    
    50   24   25 am   BACKBONE|DICT|INTERRES
    51   24  149 1    
    52   25   26 2    
    53   25   27 1    
    54   27   28 1    
    55   27   29 1    
    56   27  150 1    
    57   28  151 1    
    58   28  152 1    
    59   28  153 1    
    60   29   30 am   BACKBONE|DICT|INTERRES
    61   29  154 1    
    62   30   31 2    
    63   30   32 1    
    64   32   33 1    
    65   32   34 1    
    66   32  155 1    
    67   33  156 1    
    68   33  157 1    
    69   33  158 1    
    70   34   35 am   BACKBONE|DICT|INTERRES
    71   34  159 1    
    72   35   36 2    
    73   35   37 1    
    74   37   38 1    
    75   37   39 1    
    76   37  160 1    
    77   38  161 1    
    78   38  162 1    
    79   38  163 1    
    80   39   40 am   BACKBONE|DICT|INTERRES
    81   39  164 1    
    82   40   41 2    
    83   40   42 1    
    84   42   43 1    
    85   42   44 1    
    86   42  165 1    
    87   43  166 1    
    88   43  167 1    
    89   43  168 1    
    90   44   45 am   BACKBONE|DICT|INTERRES
    91   44  169 1    
    92   45   46 2    
    93   45   47 1    
    94   47   48 1    
    95   47   49 1    
    96   47  170 1    
    97   48  171 1    
    98   48  172 1    
    99   48  173 1    
   100   49   50 am   BACKBONE|DICT|INTERRES
   101   49  174 1    
   102   50   51 2    
   103   50   52 1    
   104   52   53 1    
   105   52   54 1    
   106   52  175 1    
   107   53  176 1    
   108   53  177 1    
   109   53  178 1    
   110   54   55 am   BACKBONE|DICT|INTERRES
   111   54  179 1    
   112   55   56 2    
   113   55   57 1    
   114   57   58 1    
   115   57   59 1    
   116   57  180 1    
   117   58  181 1    
   118   58  182 1    
   119   58  183 1    
   120   59   60 am   BACKBONE|DICT|INTERRES
   121   59  184 1    
   122   60   61 2    
   123   60   62 1    
   124   62   63 1    
   125   62   64 1    
   126   62  185 1    
   127   63  186 1    
   128   63  187 1    
   129   63  188 1    
   130   64   65 am   BACKBONE|DICT|INTERRES
   131   64  189 1    
   132   65   66 2    
   133   67   68 2    
   134   67   69 am   BACKBONE|DICT|INTERRES
   135   69   70 1    
   136   69  190 1    
   137   70   71 1    
   138   70   72 1    
   139   70  191 1    
   140   71  192 1    
   141   71  193 1    
   142   71  194 1    
   143   72   73 2    
   144   72   74 am   BACKBONE|DICT|INTERRES
   145   74   75 1    
   146   74  195 1    
   147   75   76 1    
   148   75   77 1    
   149   75  196 1    
   150   76  197 1    
   151   76  198 1    
   152   76  199 1    
   153   77   78 2    
   154   77   79 am   BACKBONE|DICT|INTERRES
   155   79   80 1    
   156   79  200 1    
   157   80   81 1    
   158   80   82 1    
   159   80  201 1    
   160   81  202 1    
   161   81  203 1    
   162   81  204 1    
   163   82   83 2    
   164   82   84 am   BACKBONE|DICT|INTERRES
   165   84   85 1    
   166   84  205 1    
   167   85   86 1    
   168   85   87 1    
   169   85  206 1    
   170   86  207 1    
   171   86  208 1    
   172   86  209 1    
   173   87   88 2    
   174   87   89 am   BACKBONE|DICT|INTERRES
   175   89   90 1    
   176   89  210 1    
   177   90   91 1    
   178   90   92 1    
   179   90  211 1    
   180   91  212 1    
   181   91  213 1    
   182   91  214 1    
   183   92   93 2    
   184   92   94 am   BACKBONE|DICT|INTERRES
   185   94   95 1    
   186   94  215 1    
   187   95   96 1    
   188   95   97 1    
   189   95  216 1    
   190   96  217 1    
   191   96  218 1    
   192   96  219 1    
   193   97   98 2    
   194   97   99 am   BACKBONE|DICT|INTERRES
   195   99  100 1    
   196   99  220 1    
   197  100  101 1    
   198  100  102 1    
   199  100  221 1    
   200  101  222 1    
   201  101  223 1    
   202  101  224 1    
   203  102  103 2    
   204  102  104 am   BACKBONE|DICT|INTERRES
   205  104  105 1    
   206  104  225 1    
   207  105  106 1    
   208  105  107 1    
   209  105  226 1    
   210  106  227 1    
   211  106  228 1    
   212  106  229 1    
   213  107  108 2    
   214  107  109 am   BACKBONE|DICT|INTERRES
   215  109  110 1    
   216  109  230 1    
   217  110  111 1    
   218  110  112 1    
   219  110  231 1    
   220  111  232 1    
   221  111  233 1    
   222  111  234 1    
   223  112  113 2    
   224  112  114 am   BACKBONE|DICT|INTERRES
   225  114  115 1    
   226  114  235 1    
   227  115  116 1    
   228  115  117 1    
   229  115  236 1    
   230  116  237 1    
   231  116  238 1    
   232  116  239 1    
   233  117  118 2    
   234  117  119 am   BACKBONE|DICT|INTERRES
   235  119  120 1    
   236  119  240 1    
   237  120  121 1    
   238  120  124 1    
   239  120  241 1    
   240  121  122 am   BACKBONE|DICT|INTERRES
   241  121  123 2    
   242  122  242 1    
   243  122  243 1    
   244  124  125 1    
   245  124  244 1    
   246  124  245 1    
   247  125  126 1    
   248  126  246 1    
   249  126  247 1    
@<TRIPOS>SUBSTRUCTURE
     1 UNK         1 GROUP             0       ****    0 ROOT    
