@<TRIPOS>MOLECULE
3R540
247   249    1
SMALL
USER_CHARGES


@<TRIPOS>ATOM
      1 CA          0.4960  -11.1443  -51.4418 C.3       0 UNK        -0.1800 
      2 C           1.6960  -11.5913  -50.6191 C.2       0 UNK         0.5000 
      3 O           2.8287  -11.2374  -50.9462 O.2       0 UNK        -0.5000 
      4 N           1.4512  -12.3625  -49.5511 N.am      1 UNK        -0.5000 
      5 CA          2.4794  -12.8874  -48.6400 C.3       1 UNK         0.1400 
      6 C6          2.0053  -14.1993  -47.9538 C.3       23 UNK        -0.0398 
      7 S7          3.2844  -15.5024  -47.9625 S.3       23 UNK        -0.2404 
      8 C8          3.1239  -16.1763  -49.6491 C.3       23 UNK        -0.0205 
      9 C9          2.1551  -17.3490  -49.7278 C.ar      23 UNK        -0.0193 
     10 C10         0.7965  -17.1309  -49.9766 C.ar      23 UNK        -0.1150 
     11 C11        -0.0905  -18.2075  -50.0820 C.ar      23 UNK        -0.0193 
     12 C12         0.3959  -19.5113  -49.9516 C.ar      23 UNK        -0.1150 
     13 C13         1.7560  -19.7473  -49.7320 C.ar      23 UNK        -0.0193 
     14 C14         2.6285  -18.6608  -49.6098 C.ar      23 UNK        -0.1150 
     15 C15         2.2785  -21.1795  -49.6802 C.3       23 UNK        -0.0205 
     16 S16         3.0167  -21.6390  -48.0775 S.3       23 UNK        -0.2404 
     17 C17         1.6660  -21.2875  -46.9081 C.3       23 UNK        -0.0398 
     18 CA          0.8022  -22.5177  -46.5430 C.3       11 UNK         0.1400 
     19 N           0.1963  -22.3556  -45.2196 N.am      11 UNK        -0.5000 
     20 C          -0.5547  -23.2641  -44.5832 C.2       10 UNK         0.5000 
     21 O          -0.7754  -24.3966  -45.0116 O.2       10 UNK        -0.5000 
     22 CA         -1.2091  -22.8038  -43.2694 C.3       10 UNK         0.1400 
     23 CB         -0.2412  -22.9641  -42.0876 C.3       10 UNK        -0.1800 
     24 N          -1.6617  -21.4135  -43.3497 N.am      10 UNK        -0.5000 
     25 C          -2.7257  -21.0084  -44.0576 C.2       9 UNK         0.5000 
     26 O          -3.4647  -21.7754  -44.6760 O.2       9 UNK        -0.5000 
     27 CA         -2.9760  -19.4878  -44.1198 C.3       9 UNK         0.1400 
     28 CB         -3.6465  -18.9906  -42.8305 C.3       9 UNK        -0.1800 
     29 N          -1.7518  -18.7193  -44.3529 N.am      9 UNK        -0.5000 
     30 C          -0.9973  -18.8154  -45.4563 C.2       8 UNK         0.5000 
     31 O          -1.2869  -19.5223  -46.4159 O.2       8 UNK        -0.5000 
     32 CA          0.3289  -18.0387  -45.4814 C.3       8 UNK         0.1400 
     33 CB          0.1203  -16.6656  -46.1236 C.3       8 UNK        -0.1800 
     34 N           0.9530  -17.8862  -44.1668 N.am      8 UNK        -0.5000 
     35 C           1.3109  -18.8870  -43.3490 C.2       7 UNK         0.5000 
     36 O           1.1204  -20.0771  -43.6023 O.2       7 UNK        -0.5000 
     37 CA          1.9669  -18.4912  -42.0158 C.3       7 UNK         0.1400 
     38 CB          3.4950  -18.4391  -42.1643 C.3       7 UNK        -0.1800 
     39 N           1.4818  -17.1945  -41.5418 N.am      7 UNK        -0.5000 
     40 C           0.3563  -17.0160  -40.8369 C.2       6 UNK         0.5000 
     41 O          -0.3615  -17.9391  -40.4510 O.2       6 UNK        -0.5000 
     42 CA         -0.0471  -15.5597  -40.5280 C.3       6 UNK         0.1400 
     43 CB          0.6317  -15.0740  -39.2384 C.3       6 UNK        -0.1800 
     44 N           0.2701  -14.6323  -41.6166 N.am      6 UNK        -0.5000 
     45 C          -0.3242  -14.6425  -42.8180 C.2       5 UNK         0.5000 
     46 O          -1.2472  -15.4024  -43.1127 O.2       5 UNK        -0.5000 
     47 CA          0.2224  -13.6672  -43.8835 C.3       5 UNK         0.1400 
     48 CB         -0.5890  -12.3641  -43.8722 C.3       5 UNK        -0.1800 
     49 N           1.6572  -13.3582  -43.7851 N.am      5 UNK        -0.5000 
     50 C           2.6532  -14.2591  -43.7316 C.2       4 UNK         0.5000 
     51 O           2.4530  -15.4728  -43.7208 O.2       4 UNK        -0.5000 
     52 CA          4.1079  -13.7522  -43.6543 C.3       4 UNK         0.1400 
     53 CB          5.0099  -14.4658  -44.6739 C.3       4 UNK        -0.1800 
     54 N           4.2276  -12.3070  -43.8417 N.am      4 UNK        -0.5000 
     55 C           4.1438  -11.3998  -42.8589 C.2       3 UNK         0.5000 
     56 O           3.9665  -11.6945  -41.6765 O.2       3 UNK        -0.5000 
     57 CA          4.2557   -9.9129  -43.2553 C.3       3 UNK         0.1400 
     58 CB          5.6664   -9.3829  -42.9562 C.3       3 UNK        -0.1800 
     59 N           3.9356   -9.6388  -44.6590 N.am      3 UNK        -0.5000 
     60 C           2.7401   -9.8345  -45.2308 C.2       2 UNK         0.5000 
     61 O           1.7674  -10.2819  -44.6236 O.2       2 UNK        -0.5000 
     62 CA          2.6009   -9.5018  -46.7307 C.3       2 UNK         0.1400 
     63 CB          3.8223   -8.7713  -47.3337 C.3       2 UNK        -0.1800 
     64 N           2.2775  -10.6868  -47.5318 N.am      2 UNK        -0.5000 
     65 C           2.9789  -11.8292  -47.6234 C.2       1 UNK         0.5000 
     66 O           3.9915  -12.0573  -46.9600 O.2       1 UNK        -0.5000 
     67 C          -0.2645  -22.8031  -47.6223 C.2       11 UNK         0.5000 
     68 O          -0.1267  -23.7621  -48.3799 O.2       11 UNK        -0.5000 
     69 N          -1.3327  -21.9938  -47.6361 N.am      12 UNK        -0.5000 
     70 CA         -2.4898  -22.1309  -48.5155 C.3       12 UNK         0.1400 
     71 CB         -3.4246  -20.9290  -48.3270 C.3       12 UNK        -0.1800 
     72 C          -3.2567  -23.4405  -48.2921 C.2       12 UNK         0.5000 
     73 O          -3.6542  -24.0700  -49.2680 O.2       12 UNK        -0.5000 
     74 N          -3.4231  -23.8464  -47.0252 N.am      13 UNK        -0.5000 
     75 CA         -4.0399  -25.1196  -46.6521 C.3       13 UNK         0.1400 
     76 CB         -4.2535  -25.1723  -45.1321 C.3       13 UNK        -0.1800 
     77 C          -3.2262  -26.3313  -47.1449 C.2       13 UNK         0.5000 
     78 O          -3.8073  -27.2615  -47.7044 O.2       13 UNK        -0.5000 
     79 N          -1.8967  -26.2754  -46.9783 N.am      14 UNK        -0.5000 
     80 CA         -0.9507  -27.2830  -47.4650 C.3       14 UNK         0.1400 
     81 CB          0.4412  -26.9998  -46.8798 C.3       14 UNK        -0.1800 
     82 C          -0.8923  -27.3649  -49.0036 C.2       14 UNK         0.5000 
     83 O          -0.7841  -28.4626  -49.5508 O.2       14 UNK        -0.5000 
     84 N          -0.9969  -26.2089  -49.6721 N.am      15 UNK        -0.5000 
     85 CA         -1.0466  -26.0708  -51.1304 C.3       15 UNK         0.1400 
     86 CB         -0.6774  -24.6232  -51.4967 C.3       15 UNK        -0.1800 
     87 C          -2.4077  -26.4513  -51.7542 C.2       15 UNK         0.5000 
     88 O          -2.4974  -26.5021  -52.9811 O.2       15 UNK        -0.5000 
     89 N          -3.4180  -26.7017  -50.9074 N.am      16 UNK        -0.5000 
     90 CA         -4.8473  -26.8622  -51.1837 C.3       16 UNK         0.1400 
     91 CB         -5.1415  -27.8800  -52.3035 C.3       16 UNK        -0.1800 
     92 C          -5.4950  -25.4955  -51.4579 C.2       16 UNK         0.5000 
     93 O          -5.1583  -24.8313  -52.4398 O.2       16 UNK        -0.5000 
     94 N          -6.4245  -25.0956  -50.5801 N.am      17 UNK        -0.5000 
     95 CA         -7.0281  -23.7589  -50.5393 C.3       17 UNK         0.1400 
     96 CB         -7.9289  -23.6581  -49.2993 C.3       17 UNK        -0.1800 
     97 C          -7.8014  -23.3537  -51.8109 C.2       17 UNK         0.5000 
     98 O          -7.9425  -22.1608  -52.0765 O.2       17 UNK        -0.5000 
     99 N          -8.2694  -24.3455  -52.5802 N.am      18 UNK        -0.5000 
    100 CA        -8.9095  -24.1557  -53.8820 C.3       18 UNK         0.1400 
    101 CB        -9.6779  -25.4353  -54.2472 C.3       18 UNK        -0.1800 
    102 C         -7.9132  -23.7901  -55.0020 C.2       18 UNK         0.5000 
    103 O         -8.3178  -23.1587  -55.9791 O.2       18 UNK        -0.5000 
    104 N         -6.6456  -24.2000  -54.8556 N.am      19 UNK        -0.5000 
    105 CA        -5.5688  -23.9411  -55.8120 C.3       19 UNK         0.1400 
    106 CB        -4.6876  -25.1956  -55.9213 C.3       19 UNK        -0.1800 
    107 C         -4.7202  -22.7235  -55.4057 C.2       19 UNK         0.5000 
    108 O         -4.1900  -22.0400  -56.2831 O.2       19 UNK        -0.5000 
    109 N         -4.5959  -22.4792  -54.0938 N.am      20 UNK        -0.5000 
    110 CA        -3.8522  -21.3676  -53.5018 C.3       20 UNK         0.1400 
    111 CB        -3.8410  -21.5430  -51.9761 C.3       20 UNK        -0.1800 
    112 C         -4.4245  -19.9854  -53.8792 C.2       20 UNK         0.5000 
    113 O         -5.6364  -19.8393  -54.0512 O.2       20 UNK        -0.5000 
    114 N         -3.5347  -18.9887  -53.9737 N.am      21 UNK        -0.5000 
    115 CA        -3.8661  -17.6071  -54.3402 C.3       21 UNK         0.1400 
    116 CB        -2.5962  -16.9289  -54.8792 C.3       21 UNK        -0.1800 
    117 C         -4.4617  -16.7787  -53.1826 C.2       21 UNK         0.5000 
    118 O         -5.0364  -15.7184  -53.4330 O.2       21 UNK        -0.5000 
    119 N         -4.2891  -17.2552  -51.9444 N.am      22 UNK        -0.5000 
    120 CA        -4.7852  -16.6333  -50.7089 C.3       22 UNK         0.1400 
    121 C         -6.3363  -16.6777  -50.6204 C.2       22 UNK         0.5000 
    122 N         -6.9745  -15.5874  -50.2175 N.am      22 UNK        -0.7600 
    123 O         -6.9609  -17.7061  -50.8681 O.2       22 UNK        -0.5000 
    124 C124       -4.1552  -17.3014  -49.4596 C.3       23 UNK        -0.0398 
    125 S125       -2.3923  -16.8913  -49.2045 S.3       23 UNK        -0.2404 
    126 C126       -1.5597  -17.9766  -50.4069 C.3       23 UNK        -0.0205 
    127 H127       -0.4400  -11.5324  -51.0392 H         1 UNK         0.0600 
    128 H128        0.4350  -10.0560  -51.4559 H         1 UNK         0.0600 
    129 H129        0.5945  -11.4945  -52.4693 H         1 UNK         0.0600 
    130 H130        0.4968  -12.6136  -49.3344 H         1 UNK         0.3000 
    131 H131        3.3485  -13.1238  -49.2579 H         1 UNK         0.0600 
    132 H132        1.7005  -14.0184  -46.9218 H         1 UNK         0.0800 
    133 H133        1.1201  -14.6057  -48.4431 H         1 UNK         0.0800 
    134 H134        4.1111  -16.4980  -49.9841 H         1 UNK         0.0800 
    135 H135        2.8192  -15.3891  -50.3403 H         1 UNK         0.0800 
    136 H136        0.4263  -16.1234  -50.1006 H         1 UNK         0.1150 
    137 H137       -0.2813  -20.3477  -50.0511 H         1 UNK         0.1150 
    138 H138        3.6813  -18.8394  -49.4411 H         1 UNK         0.1150 
    139 H139        1.4858  -21.8902  -49.9189 H         1 UNK         0.0800 
    140 H140        3.0338  -21.3032  -50.4573 H         1 UNK         0.0800 
    141 H141        1.0503  -20.4709  -47.2796 H         1 UNK         0.0800 
    142 H142        2.1518  -20.9006  -46.0114 H         1 UNK         0.0800 
    143 H143        1.4514  -23.3936  -46.4793 H         1 UNK         0.0600 
    144 H144        0.3598  -21.4691  -44.7520 H         1 UNK         0.3000 
    145 H145       -2.0770  -23.4406  -43.0854 H         1 UNK         0.0600 
    146 H146       -0.7168  -22.6826  -41.1481 H         1 UNK         0.0600 
    147 H147        0.0836  -24.0007  -41.9898 H         1 UNK         0.0600 
    148 H148        0.6526  -22.3512  -42.2077 H         1 UNK         0.0600 
    149 H149       -1.0653  -20.7172  -42.9249 H         1 UNK         0.3000 
    150 H150       -3.6544  -19.2977  -44.9542 H         1 UNK         0.0600 
    151 H151       -4.5692  -19.5379  -42.6336 H         1 UNK         0.0600 
    152 H152       -3.9045  -17.9339  -42.9039 H         1 UNK         0.0600 
    153 H153       -2.9969  -19.1162  -41.9631 H         1 UNK         0.0600 
    154 H154       -1.4496  -18.0947  -43.6182 H         1 UNK         0.3000 
    155 H155        1.0395  -18.5833  -46.1015 H         1 UNK         0.0600 
    156 H156        1.0155  -16.0550  -46.0311 H         1 UNK         0.0600 
    157 H157       -0.0979  -16.7683  -47.1865 H         1 UNK         0.0600 
    158 H158       -0.7141  -16.1307  -45.6713 H         1 UNK         0.0600 
    159 H159        1.2329  -16.9454  -43.9082 H         1 UNK         0.3000 
    160 H160        1.7238  -19.2613  -41.2806 H         1 UNK         0.0600 
    161 H161        3.8064  -17.6953  -42.8985 H         1 UNK         0.0600 
    162 H162        3.8872  -19.4038  -42.4889 H         1 UNK         0.0600 
    163 H163        3.9745  -18.1956  -41.2162 H         1 UNK         0.0600 
    164 H164        1.9731  -16.3810  -41.8911 H         1 UNK         0.3000 
    165 H165       -1.1278  -15.5418  -40.3716 H         1 UNK         0.0600 
    166 H166        0.2924  -14.0743  -38.9665 H         1 UNK         0.0600 
    167 H167        0.3981  -15.7340  -38.4020 H         1 UNK         0.0600 
    168 H168        1.7173  -15.0445  -39.3404 H         1 UNK         0.0600 
    169 H169        1.0174  -13.9730  -41.4552 H         1 UNK         0.3000 
    170 H170        0.0680  -14.1344  -44.8549 H         1 UNK         0.0600 
    171 H171       -1.6613  -12.5653  -43.8665 H         1 UNK         0.0600 
    172 H172       -0.3627  -11.7560  -42.9956 H         1 UNK         0.0600 
    173 H173       -0.3845  -11.7676  -44.7608 H         1 UNK         0.0600 
    174 H174        1.9005  -12.3755  -43.8105 H         1 UNK         0.3000 
    175 H175        4.4737  -14.0167  -42.6601 H         1 UNK         0.0600 
    176 H176        4.7014  -14.2588  -45.6972 H         1 UNK         0.0600 
    177 H177        6.0481  -14.1509  -44.5687 H         1 UNK         0.0600 
    178 H178        4.9854  -15.5477  -44.5374 H         1 UNK         0.0600 
    179 H179        4.3322  -11.9884  -44.7989 H         1 UNK         0.3000 
    180 H180        3.5447   -9.3596  -42.6384 H         1 UNK         0.0600 
    181 H181        6.4209   -9.8840  -43.5641 H         1 UNK         0.0600 
    182 H182        5.9303   -9.5407  -41.9096 H         1 UNK         0.0600 
    183 H183        5.7355   -8.3120  -43.1485 H         1 UNK         0.0600 
    184 H184        4.6900   -9.2929  -45.2339 H         1 UNK         0.3000 
    185 H185        1.7447   -8.8306  -46.8111 H         1 UNK         0.0600 
    186 H186        4.0356   -7.8465  -46.7960 H         1 UNK         0.0600 
    187 H187        4.7229   -9.3862  -47.3162 H         1 UNK         0.0600 
    188 H188        3.6346   -8.4985  -48.3723 H         1 UNK         0.0600 
    189 H189        1.4442  -10.6123  -48.0968 H         1 UNK         0.3000 
    190 H190       -1.3447  -21.1840  -47.0171 H         1 UNK         0.3000 
    191 H191       -2.1235  -22.1252  -49.5432 H         1 UNK         0.0600 
    192 H192       -4.2715  -20.9762  -49.0123 H         1 UNK         0.0600 
    193 H193       -2.8974  -19.9955  -48.5140 H         1 UNK         0.0600 
    194 H194       -3.8230  -20.8833  -47.3130 H         1 UNK         0.0600 
    195 H195       -3.1027  -23.2502  -46.2716 H         1 UNK         0.3000 
    196 H196       -5.0208  -25.1633  -47.1303 H         1 UNK         0.0600 
    197 H197       -4.7580  -26.0947  -44.8421 H         1 UNK         0.0600 
    198 H198       -4.8726  -24.3418  -44.7924 H         1 UNK         0.0600 
    199 H199       -3.3107  -25.1302  -44.5875 H         1 UNK         0.0600 
    200 H200       -1.5007  -25.4867  -46.4742 H         1 UNK         0.3000 
    201 H201       -1.2815  -28.2558  -47.0954 H         1 UNK         0.0600 
    202 H202        0.4206  -27.0154  -45.7900 H         1 UNK         0.0600 
    203 H203        0.8196  -26.0260  -47.1916 H         1 UNK         0.0600 
    204 H204        1.1619  -27.7519  -47.2033 H         1 UNK         0.0600 
    205 H205       -1.0031  -25.3432  -49.1400 H         1 UNK         0.3000 
    206 H206       -0.2950  -26.7330  -51.5648 H         1 UNK         0.0600 
    207 H207        0.3098  -24.3584  -51.1176 H         1 UNK         0.0600 
    208 H208       -0.6583  -24.4819  -52.5780 H         1 UNK         0.0600 
    209 H209       -1.3958  -23.9135  -51.0864 H         1 UNK         0.0600 
    210 H210       -3.2027  -26.5913  -49.9252 H         1 UNK         0.3000 
    211 H211       -5.2727  -27.2649  -50.2632 H         1 UNK         0.0600 
    212 H212       -4.8538  -27.5072  -53.2868 H         1 UNK         0.0600 
    213 H213       -6.2077  -28.1043  -52.3472 H         1 UNK         0.0600 
    214 H214       -4.6169  -28.8199  -52.1318 H         1 UNK         0.0600 
    215 H215       -6.6534  -25.7051  -49.8089 H         1 UNK         0.3000 
    216 H216       -6.2125  -23.0435  -50.4194 H         1 UNK         0.0600 
    217 H217       -8.3741  -22.6655  -49.2184 H         1 UNK         0.0600 
    218 H218       -7.3612  -23.8323  -48.3848 H         1 UNK         0.0600 
    219 H219       -8.7438  -24.3822  -49.3348 H         1 UNK         0.0600 
    220 H220       -8.1170  -25.2967  -52.2792 H         1 UNK         0.3000 
    221 H221       -9.6291  -23.3384  -53.7994 H         1 UNK         0.0600 
    222 H222       -9.0114  -26.2945  -54.3338 H         1 UNK         0.0600 
    223 H223      -10.4337  -25.6696  -53.4974 H         1 UNK         0.0600 
    224 H224      -10.1933  -25.3223  -55.2020 H         1 UNK         0.0600 
    225 H225       -6.3699  -24.6576  -53.9934 H         1 UNK         0.3000 
    226 H226       -5.9866  -23.7400  -56.8007 H         1 UNK         0.0600 
    227 H227       -5.2683  -26.0581  -56.2484 H         1 UNK         0.0600 
    228 H228       -3.8863  -25.0480  -56.6463 H         1 UNK         0.0600 
    229 H229       -4.2233  -25.4474  -54.9669 H         1 UNK         0.0600 
    230 H230       -5.0109  -23.1397  -53.4457 H         1 UNK         0.3000 
    231 H231       -2.8252  -21.4334  -53.8665 H         1 UNK         0.0600 
    232 H232       -3.4663  -22.5272  -51.6930 H         1 UNK         0.0600 
    233 H233       -4.8409  -21.4326  -51.5553 H         1 UNK         0.0600 
    234 H234       -3.1998  -20.8011  -51.5012 H         1 UNK         0.0600 
    235 H235       -2.5553  -19.1891  -53.8313 H         1 UNK         0.3000 
    236 H236       -4.6070  -17.6257  -55.1424 H         1 UNK         0.0600 
    237 H237       -2.8037  -15.9071  -55.1999 H         1 UNK         0.0600 
    238 H238       -1.8121  -16.8818  -54.1224 H         1 UNK         0.0600 
    239 H239       -2.1993  -17.4631  -55.7427 H         1 UNK         0.0600 
    240 H240       -3.8538  -18.1574  -51.8469 H         1 UNK         0.3000 
    241 H241       -4.4795  -15.5851  -50.7248 H         1 UNK         0.0600 
    242 H242       -6.4824  -14.7337  -50.0027 H         1 UNK         0.3800 
    243 H243       -7.9797  -15.6094  -50.1410 H         1 UNK         0.3800 
    244 H244       -4.2870  -18.3828  -49.4943 H         1 UNK         0.0800 
    245 H245       -4.6717  -16.9725  -48.5557 H         1 UNK         0.0800 
    246 H246       -1.6226  -17.5258  -51.3975 H         1 UNK         0.0800 
    247 H247       -2.0875  -18.9280  -50.4603 H         1 UNK         0.0800 
@<TRIPOS>BOND
     1    1    2 1    
     2    1  127 1    
     3    1  128 1    
     4    1  129 1    
     5    2    3 2    
     6    2    4 am   BACKBONE|DICT|INTERRES
     7    4    5 1    
     8    4  130 1    
     9    5    6 1    
    10    5   65 1    
    11    5  131 1    
    12    6    7 1    
    13    6  132 1    
    14    6  133 1    
    15    7    8 1    
    16    8    9 1    
    17    8  134 1    
    18    8  135 1    
    19    9   10 ar   
    20    9   14 ar   
    21   10   11 ar   
    22   10  136 1    
    23   11   12 ar   
    24   11  126 1    
    25   12   13 ar   
    26   12  137 1    
    27   13   14 ar   
    28   13   15 1    
    29   14  138 1    
    30   15   16 1    
    31   15  139 1    
    32   15  140 1    
    33   16   17 1    
    34   17   18 1    
    35   17  141 1    
    36   17  142 1    
    37   18   19 1    
    38   18   67 1    
    39   18  143 1    
    40   19   20 am   BACKBONE|DICT|INTERRES
    41   19  144 1    
    42   20   21 2    
    43   20   22 1    
    44   22   23 1    
    45   22   24 1    
    46   22  145 1    
    47   23  146 1    
    48   23  147 1    
    49   23  148 1    
    50   24   25 am   BACKBONE|DICT|INTERRES
    51   24  149 1    
    52   25   26 2    
    53   25   27 1    
    54   27   28 1    
    55   27   29 1    
    56   27  150 1    
    57   28  151 1    
    58   28  152 1    
    59   28  153 1    
    60   29   30 am   BACKBONE|DICT|INTERRES
    61   29  154 1    
    62   30   31 2    
    63   30   32 1    
    64   32   33 1    
    65   32   34 1    
    66   32  155 1    
    67   33  156 1    
    68   33  157 1    
    69   33  158 1    
    70   34   35 am   BACKBONE|DICT|INTERRES
    71   34  159 1    
    72   35   36 2    
    73   35   37 1    
    74   37   38 1    
    75   37   39 1    
    76   37  160 1    
    77   38  161 1    
    78   38  162 1    
    79   38  163 1    
    80   39   40 am   BACKBONE|DICT|INTERRES
    81   39  164 1    
    82   40   41 2    
    83   40   42 1    
    84   42   43 1    
    85   42   44 1    
    86   42  165 1    
    87   43  166 1    
    88   43  167 1    
    89   43  168 1    
    90   44   45 am   BACKBONE|DICT|INTERRES
    91   44  169 1    
    92   45   46 2    
    93   45   47 1    
    94   47   48 1    
    95   47   49 1    
    96   47  170 1    
    97   48  171 1    
    98   48  172 1    
    99   48  173 1    
   100   49   50 am   BACKBONE|DICT|INTERRES
   101   49  174 1    
   102   50   51 2    
   103   50   52 1    
   104   52   53 1    
   105   52   54 1    
   106   52  175 1    
   107   53  176 1    
   108   53  177 1    
   109   53  178 1    
   110   54   55 am   BACKBONE|DICT|INTERRES
   111   54  179 1    
   112   55   56 2    
   113   55   57 1    
   114   57   58 1    
   115   57   59 1    
   116   57  180 1    
   117   58  181 1    
   118   58  182 1    
   119   58  183 1    
   120   59   60 am   BACKBONE|DICT|INTERRES
   121   59  184 1    
   122   60   61 2    
   123   60   62 1    
   124   62   63 1    
   125   62   64 1    
   126   62  185 1    
   127   63  186 1    
   128   63  187 1    
   129   63  188 1    
   130   64   65 am   BACKBONE|DICT|INTERRES
   131   64  189 1    
   132   65   66 2    
   133   67   68 2    
   134   67   69 am   BACKBONE|DICT|INTERRES
   135   69   70 1    
   136   69  190 1    
   137   70   71 1    
   138   70   72 1    
   139   70  191 1    
   140   71  192 1    
   141   71  193 1    
   142   71  194 1    
   143   72   73 2    
   144   72   74 am   BACKBONE|DICT|INTERRES
   145   74   75 1    
   146   74  195 1    
   147   75   76 1    
   148   75   77 1    
   149   75  196 1    
   150   76  197 1    
   151   76  198 1    
   152   76  199 1    
   153   77   78 2    
   154   77   79 am   BACKBONE|DICT|INTERRES
   155   79   80 1    
   156   79  200 1    
   157   80   81 1    
   158   80   82 1    
   159   80  201 1    
   160   81  202 1    
   161   81  203 1    
   162   81  204 1    
   163   82   83 2    
   164   82   84 am   BACKBONE|DICT|INTERRES
   165   84   85 1    
   166   84  205 1    
   167   85   86 1    
   168   85   87 1    
   169   85  206 1    
   170   86  207 1    
   171   86  208 1    
   172   86  209 1    
   173   87   88 2    
   174   87   89 am   BACKBONE|DICT|INTERRES
   175   89   90 1    
   176   89  210 1    
   177   90   91 1    
   178   90   92 1    
   179   90  211 1    
   180   91  212 1    
   181   91  213 1    
   182   91  214 1    
   183   92   93 2    
   184   92   94 am   BACKBONE|DICT|INTERRES
   185   94   95 1    
   186   94  215 1    
   187   95   96 1    
   188   95   97 1    
   189   95  216 1    
   190   96  217 1    
   191   96  218 1    
   192   96  219 1    
   193   97   98 2    
   194   97   99 am   BACKBONE|DICT|INTERRES
   195   99  100 1    
   196   99  220 1    
   197  100  101 1    
   198  100  102 1    
   199  100  221 1    
   200  101  222 1    
   201  101  223 1    
   202  101  224 1    
   203  102  103 2    
   204  102  104 am   BACKBONE|DICT|INTERRES
   205  104  105 1    
   206  104  225 1    
   207  105  106 1    
   208  105  107 1    
   209  105  226 1    
   210  106  227 1    
   211  106  228 1    
   212  106  229 1    
   213  107  108 2    
   214  107  109 am   BACKBONE|DICT|INTERRES
   215  109  110 1    
   216  109  230 1    
   217  110  111 1    
   218  110  112 1    
   219  110  231 1    
   220  111  232 1    
   221  111  233 1    
   222  111  234 1    
   223  112  113 2    
   224  112  114 am   BACKBONE|DICT|INTERRES
   225  114  115 1    
   226  114  235 1    
   227  115  116 1    
   228  115  117 1    
   229  115  236 1    
   230  116  237 1    
   231  116  238 1    
   232  116  239 1    
   233  117  118 2    
   234  117  119 am   BACKBONE|DICT|INTERRES
   235  119  120 1    
   236  119  240 1    
   237  120  121 1    
   238  120  124 1    
   239  120  241 1    
   240  121  122 am   BACKBONE|DICT|INTERRES
   241  121  123 2    
   242  122  242 1    
   243  122  243 1    
   244  124  125 1    
   245  124  244 1    
   246  124  245 1    
   247  125  126 1    
   248  126  246 1    
   249  126  247 1    
@<TRIPOS>SUBSTRUCTURE
     1 UNK         1 GROUP             0       ****    0 ROOT    
