@<TRIPOS>MOLECULE
3R540
247   249    1
SMALL
USER_CHARGES


@<TRIPOS>ATOM
      1 CA          8.3918  -15.2811  -46.2214 C.3       0 UNK        -0.1800 
      2 C           6.8843  -15.4885  -46.2454 C.2       0 UNK         0.5000 
      3 O           6.3361  -16.1137  -45.3370 O.2       0 UNK        -0.5000 
      4 N           6.2093  -14.9559  -47.2712 N.am      1 UNK        -0.5000 
      5 CA          4.7604  -15.0572  -47.5016 C.3       1 UNK         0.1400 
      6 C6          4.4067  -14.9183  -49.0085 C.3       23 UNK        -0.0398 
      7 S7          5.3561  -16.0607  -50.0707 S.3       23 UNK        -0.2404 
      8 C8          4.7923  -15.5704  -51.7306 C.3       23 UNK        -0.0205 
      9 C9          3.6353  -16.4364  -52.2022 C.ar      23 UNK        -0.0193 
     10 C10         2.3186  -15.9724  -52.1396 C.ar      23 UNK        -0.1150 
     11 C11         1.2525  -16.7743  -52.5632 C.ar      23 UNK        -0.0193 
     12 C12         1.5261  -18.0636  -53.0416 C.ar      23 UNK        -0.1150 
     13 C13         2.8408  -18.5239  -53.1447 C.ar      23 UNK        -0.0193 
     14 C14         3.8899  -17.7078  -52.7191 C.ar      23 UNK        -0.1150 
     15 C15         3.1410  -19.8870  -53.7455 C.3       23 UNK        -0.0205 
     16 S16         3.2655  -21.1802  -52.4754 S.3       23 UNK        -0.2404 
     17 C17         1.5243  -21.6744  -52.2549 C.3       23 UNK        -0.0398 
     18 CA          1.0559  -21.5165  -50.7835 C.3       11 UNK         0.1400 
     19 N           0.2562  -20.3057  -50.5754 N.am      11 UNK        -0.5000 
     20 C           0.1566  -19.6764  -49.3981 C.2       10 UNK         0.5000 
     21 O           0.8239  -19.9729  -48.4050 O.2       10 UNK        -0.5000 
     22 CA         -0.9311  -18.5929  -49.3044 C.3       10 UNK         0.1400 
     23 CB         -2.2999  -19.2480  -49.0645 C.3       10 UNK        -0.1800 
     24 N          -0.6852  -17.6392  -48.2240 N.am      10 UNK        -0.5000 
     25 C           0.2564  -16.6876  -48.2313 C.2       9 UNK         0.5000 
     26 O           1.0101  -16.4728  -49.1779 O.2       9 UNK        -0.5000 
     27 CA          0.3695  -15.8200  -46.9665 C.3       9 UNK         0.1400 
     28 CB         -0.7906  -14.8160  -46.8782 C.3       9 UNK        -0.1800 
     29 N           0.4099  -16.6220  -45.7482 N.am      9 UNK        -0.5000 
     30 C           1.4529  -17.3695  -45.3617 C.2       8 UNK         0.5000 
     31 O           2.5109  -17.4498  -45.9860 O.2       8 UNK        -0.5000 
     32 CA          1.2812  -18.1727  -44.0599 C.3       8 UNK         0.1400 
     33 CB          1.6482  -17.3243  -42.8312 C.3       8 UNK        -0.1800 
     34 N          -0.0871  -18.6762  -43.9285 N.am      8 UNK        -0.5000 
     35 C          -0.5219  -19.8044  -44.5089 C.2       7 UNK         0.5000 
     36 O           0.2205  -20.6031  -45.0764 O.2       7 UNK        -0.5000 
     37 CA         -2.0332  -20.1071  -44.4546 C.3       7 UNK         0.1400 
     38 CB         -2.3351  -21.2094  -43.4276 C.3       7 UNK        -0.1800 
     39 N          -2.8581  -18.9359  -44.1519 N.am      7 UNK        -0.5000 
     40 C          -3.0887  -17.9264  -45.0027 C.2       6 UNK         0.5000 
     41 O          -2.6289  -17.8723  -46.1411 O.2       6 UNK        -0.5000 
     42 CA         -3.9233  -16.7521  -44.4621 C.3       6 UNK         0.1400 
     43 CB         -5.4240  -17.0679  -44.5464 C.3       6 UNK        -0.1800 
     44 N          -3.5685  -16.3978  -43.0843 N.am      6 UNK        -0.5000 
     45 C          -2.3546  -15.9718  -42.7144 C.2       5 UNK         0.5000 
     46 O          -1.4107  -15.8441  -43.4979 O.2       5 UNK        -0.5000 
     47 CA         -2.1389  -15.6972  -41.2235 C.3       5 UNK         0.1400 
     48 CB         -1.7242  -16.9820  -40.4854 C.3       5 UNK        -0.1800 
     49 N          -1.0924  -14.6920  -41.0993 N.am      5 UNK        -0.5000 
     50 C          -0.9580  -13.8290  -40.0875 C.2       4 UNK         0.5000 
     51 O          -1.6624  -13.8466  -39.0769 O.2       4 UNK        -0.5000 
     52 CA          0.1364  -12.7509  -40.2261 C.3       4 UNK         0.1400 
     53 CB          1.4147  -13.1908  -39.4956 C.3       4 UNK        -0.1800 
     54 N           0.4815  -12.4136  -41.6100 N.am      4 UNK        -0.5000 
     55 C          -0.3420  -11.8812  -42.5247 C.2       3 UNK         0.5000 
     56 O          -1.5208  -11.6078  -42.2951 O.2       3 UNK        -0.5000 
     57 CA          0.2428  -11.5860  -43.9245 C.3       3 UNK         0.1400 
     58 CB          0.0115  -10.1179  -44.3202 C.3       3 UNK        -0.1800 
     59 N           1.6748  -11.8782  -44.0506 N.am      3 UNK        -0.5000 
     60 C           2.2033  -13.0982  -44.2011 C.2       2 UNK         0.5000 
     61 O           1.5417  -14.1342  -44.1960 O.2       2 UNK        -0.5000 
     62 CA          3.7367  -13.1670  -44.2959 C.3       2 UNK         0.1400 
     63 CB          4.3353  -13.5531  -42.9343 C.3       2 UNK        -0.1800 
     64 N           4.2101  -14.1139  -45.3035 N.am      2 UNK        -0.5000 
     65 C           4.0058  -14.0287  -46.6243 C.2       1 UNK         0.5000 
     66 O           3.3231  -13.1467  -47.1489 O.2       1 UNK        -0.5000 
     67 C           0.2733  -22.7599  -50.3132 C.2       11 UNK         0.5000 
     68 O           0.8798  -23.6944  -49.7874 O.2       11 UNK        -0.5000 
     69 N          -1.0571  -22.7535  -50.4864 N.am      12 UNK        -0.5000 
     70 CA         -1.9669  -23.8466  -50.1330 C.3       12 UNK         0.1400 
     71 CB         -3.2513  -23.7107  -50.9645 C.3       12 UNK        -0.1800 
     72 C          -2.2623  -23.9259  -48.6191 C.2       12 UNK         0.5000 
     73 O          -3.4266  -23.9746  -48.2146 O.2       12 UNK        -0.5000 
     74 N          -1.2050  -23.9518  -47.7994 N.am      13 UNK        -0.5000 
     75 CA         -1.2619  -24.0252  -46.3373 C.3       13 UNK         0.1400 
     76 CB          0.1634  -23.9370  -45.7742 C.3       13 UNK        -0.1800 
     77 C          -1.9643  -25.2961  -45.8244 C.2       13 UNK         0.5000 
     78 O          -2.7274  -25.2260  -44.8613 O.2       13 UNK        -0.5000 
     79 N          -1.7412  -26.4211  -46.5191 N.am      14 UNK        -0.5000 
     80 CA         -2.3631  -27.7204  -46.2477 C.3       14 UNK         0.1400 
     81 CB         -1.6536  -28.7947  -47.0858 C.3       14 UNK        -0.1800 
     82 C          -3.8827  -27.7483  -46.5123 C.2       14 UNK         0.5000 
     83 O          -4.5820  -28.5744  -45.9254 O.2       14 UNK        -0.5000 
     84 N          -4.3663  -26.8383  -47.3686 N.am      15 UNK        -0.5000 
     85 CA         -5.7836  -26.6314  -47.6692 C.3       15 UNK         0.1400 
     86 CB         -5.9294  -26.3286  -49.1708 C.3       15 UNK        -0.1800 
     87 C          -6.3872  -25.4889  -46.8282 C.2       15 UNK         0.5000 
     88 O          -7.5140  -25.0782  -47.1037 O.2       15 UNK        -0.5000 
     89 N          -5.6245  -24.9551  -45.8595 N.am      16 UNK        -0.5000 
     90 CA         -5.9509  -23.7994  -45.0170 C.3       16 UNK         0.1400 
     91 CB         -7.0992  -24.1389  -44.0440 C.3       16 UNK        -0.1800 
     92 C          -6.2113  -22.5201  -45.8414 C.2       16 UNK         0.5000 
     93 O          -7.0943  -21.7328  -45.4988 O.2       16 UNK        -0.5000 
     94 N          -5.4407  -22.3596  -46.9290 N.am      17 UNK        -0.5000 
     95 CA         -5.4709  -21.2674  -47.9058 C.3       17 UNK         0.1400 
     96 CB         -5.2592  -19.9030  -47.2228 C.3       17 UNK        -0.1800 
     97 C          -6.7025  -21.2597  -48.8330 C.2       17 UNK         0.5000 
     98 O          -6.8529  -20.3089  -49.6002 O.2       17 UNK        -0.5000 
     99 N          -7.5424  -22.3067  -48.7953 N.am      18 UNK        -0.5000 
    100 CA        -8.7767  -22.4022  -49.5841 C.3       18 UNK         0.1400 
    101 CB        -9.5832  -23.6290  -49.1342 C.3       18 UNK        -0.1800 
    102 C         -8.5386  -22.4439  -51.1058 C.2       18 UNK         0.5000 
    103 O         -9.3038  -21.8383  -51.8571 O.2       18 UNK        -0.5000 
    104 N         -7.4741  -23.1404  -51.5270 N.am      19 UNK        -0.5000 
    105 CA        -7.0540  -23.2362  -52.9282 C.3       19 UNK         0.1400 
    106 CB        -6.3980  -24.6075  -53.1543 C.3       19 UNK        -0.1800 
    107 C         -6.0939  -22.1035  -53.3447 C.2       19 UNK         0.5000 
    108 O         -5.8779  -21.9122  -54.5424 O.2       19 UNK        -0.5000 
    109 N         -5.5254  -21.3932  -52.3576 N.am      20 UNK        -0.5000 
    110 CA        -4.5211  -20.3224  -52.4279 C.3       20 UNK         0.1400 
    111 CB        -5.0689  -19.0890  -53.1694 C.3       20 UNK        -0.1800 
    112 C         -3.1579  -20.7661  -52.9987 C.2       20 UNK         0.5000 
    113 O         -2.1404  -20.6439  -52.3124 O.2       20 UNK        -0.5000 
    114 N         -3.1729  -21.2876  -54.2324 N.am      21 UNK        -0.5000 
    115 CA        -2.0355  -21.7370  -55.0435 C.3       21 UNK         0.1400 
    116 CB        -1.3466  -22.9593  -54.4016 C.3       21 UNK        -0.1800 
    117 C         -1.0538  -20.6030  -55.4151 C.2       21 UNK         0.5000 
    118 O          0.1230  -20.8639  -55.6654 O.2       21 UNK        -0.5000 
    119 N         -1.5615  -19.3650  -55.4574 N.am      22 UNK        -0.5000 
    120 CA        -0.8033  -18.1403  -55.7674 C.3       22 UNK         0.1400 
    121 C         -0.7033  -17.8172  -57.2872 C.2       22 UNK         0.5000 
    122 N         -1.3303  -18.5784  -58.1759 N.am      22 UNK        -0.7600 
    123 O         -0.0347  -16.8614  -57.6710 O.2       22 UNK        -0.5000 
    124 C124       -1.3332  -16.9168  -54.9699 C.3       23 UNK        -0.0398 
    125 S125       -1.5072  -17.2147  -53.1722 S.3       23 UNK        -0.2404 
    126 C126       -0.1626  -16.1971  -52.4676 C.3       23 UNK        -0.0205 
    127 H127        8.9026  -16.2440  -46.2237 H         1 UNK         0.0600 
    128 H128        8.6819  -14.7420  -45.3196 H         1 UNK         0.0600 
    129 H129        8.7367  -14.7113  -47.0846 H         1 UNK         0.0600 
    130 H130        6.7184  -14.4428  -47.9765 H         1 UNK         0.3000 
    131 H131        4.4319  -16.0487  -47.1845 H         1 UNK         0.0600 
    132 H132        4.5981  -13.9007  -49.3536 H         1 UNK         0.0800 
    133 H133        3.3434  -15.1050  -49.1666 H         1 UNK         0.0800 
    134 H134        4.5192  -14.5142  -51.7439 H         1 UNK         0.0800 
    135 H135        5.6256  -15.6746  -52.4270 H         1 UNK         0.0800 
    136 H136        2.1199  -14.9854  -51.7460 H         1 UNK         0.1150 
    137 H137        0.7260  -18.7197  -53.3460 H         1 UNK         0.1150 
    138 H138        4.9082  -18.0650  -52.7847 H         1 UNK         0.1150 
    139 H139        2.3902  -20.1559  -54.4890 H         1 UNK         0.0800 
    140 H140        4.0879  -19.8429  -54.2857 H         1 UNK         0.0800 
    141 H141        1.4674  -22.7105  -52.5951 H         1 UNK         0.0800 
    142 H142        0.8791  -21.1157  -52.9334 H         1 UNK         0.0800 
    143 H143        1.9382  -21.4644  -50.1414 H         1 UNK         0.0600 
    144 H144       -0.3774  -20.0513  -51.3252 H         1 UNK         0.3000 
    145 H145       -0.9620  -18.0504  -50.2500 H         1 UNK         0.0600 
    146 H146       -2.5325  -19.9854  -49.8302 H         1 UNK         0.0600 
    147 H147       -2.3313  -19.7634  -48.1039 H         1 UNK         0.0600 
    148 H148       -3.0949  -18.5029  -49.0766 H         1 UNK         0.0600 
    149 H149       -1.2679  -17.7421  -47.3966 H         1 UNK         0.3000 
    150 H150        1.2991  -15.2518  -47.0286 H         1 UNK         0.0600 
    151 H151       -0.6857  -14.1740  -46.0040 H         1 UNK         0.0600 
    152 H152       -1.7565  -15.3168  -46.8083 H         1 UNK         0.0600 
    153 H153       -0.8152  -14.1711  -47.7572 H         1 UNK         0.0600 
    154 H154       -0.3863  -16.5417  -45.1271 H         1 UNK         0.3000 
    155 H155        1.9749  -19.0157  -44.0951 H         1 UNK         0.0600 
    156 H156        2.6741  -16.9615  -42.9051 H         1 UNK         0.0600 
    157 H157        1.5728  -17.9057  -41.9124 H         1 UNK         0.0600 
    158 H158        1.0055  -16.4506  -42.7302 H         1 UNK         0.0600 
    159 H159       -0.7606  -18.0494  -43.5125 H         1 UNK         0.3000 
    160 H160       -2.3170  -20.4803  -45.4409 H         1 UNK         0.0600 
    161 H161       -1.7508  -22.1077  -43.6318 H         1 UNK         0.0600 
    162 H162       -3.3866  -21.4959  -43.4550 H         1 UNK         0.0600 
    163 H163       -2.0985  -20.8885  -42.4125 H         1 UNK         0.0600 
    164 H164       -3.2652  -18.8923  -43.2294 H         1 UNK         0.3000 
    165 H165       -3.7213  -15.8842  -45.0935 H         1 UNK         0.0600 
    166 H166       -6.0249  -16.2188  -44.2207 H         1 UNK         0.0600 
    167 H167       -5.7158  -17.2948  -45.5726 H         1 UNK         0.0600 
    168 H168       -5.6934  -17.9271  -43.9308 H         1 UNK         0.0600 
    169 H169       -4.2964  -16.4876  -42.3898 H         1 UNK         0.3000 
    170 H170       -3.0698  -15.3113  -40.8025 H         1 UNK         0.0600 
    171 H171       -1.5798  -16.7966  -39.4210 H         1 UNK         0.0600 
    172 H172       -2.4895  -17.7534  -40.5782 H         1 UNK         0.0600 
    173 H173       -0.7940  -17.3910  -40.8813 H         1 UNK         0.0600 
    174 H174       -0.5080  -14.5942  -41.9212 H         1 UNK         0.3000 
    175 H175       -0.2382  -11.8436  -39.7482 H         1 UNK         0.0600 
    176 H176        1.8524  -14.0796  -39.9524 H         1 UNK         0.0600 
    177 H177        2.1674  -12.4022  -39.5051 H         1 UNK         0.0600 
    178 H178        1.2071  -13.4269  -38.4510 H         1 UNK         0.0600 
    179 H179        1.4277  -12.6113  -41.8969 H         1 UNK         0.3000 
    180 H180       -0.3013  -12.2142  -44.6322 H         1 UNK         0.0600 
    181 H181        0.3750   -9.9193  -45.3287 H         1 UNK         0.0600 
    182 H182        0.5182   -9.4335  -43.6387 H         1 UNK         0.0600 
    183 H183       -1.0502   -9.8679  -44.3075 H         1 UNK         0.0600 
    184 H184        2.2912  -11.0782  -44.0328 H         1 UNK         0.3000 
    185 H185        4.1159  -12.1810  -44.5722 H         1 UNK         0.0600 
    186 H186        4.0079  -14.5451  -42.6195 H         1 UNK         0.0600 
    187 H187        5.4250  -13.5556  -42.9684 H         1 UNK         0.0600 
    188 H188        4.0371  -12.8468  -42.1584 H         1 UNK         0.0600 
    189 H189        4.7974  -14.8736  -44.9759 H         1 UNK         0.3000 
    190 H190       -1.4761  -21.9501  -50.9421 H         1 UNK         0.3000 
    191 H191       -1.4945  -24.7901  -50.4138 H         1 UNK         0.0600 
    192 H192       -3.8201  -22.8268  -50.6778 H         1 UNK         0.0600 
    193 H193       -3.8916  -24.5799  -50.8248 H         1 UNK         0.0600 
    194 H194       -3.0333  -23.6459  -52.0295 H         1 UNK         0.0600 
    195 H195       -0.2840  -23.9087  -48.2251 H         1 UNK         0.3000 
    196 H196       -1.8288  -23.1614  -45.9844 H         1 UNK         0.0600 
    197 H197        0.1511  -23.9039  -44.6840 H         1 UNK         0.0600 
    198 H198        0.6688  -23.0356  -46.1208 H         1 UNK         0.0600 
    199 H199        0.7701  -24.7928  -46.0728 H         1 UNK         0.0600 
    200 H200       -1.1033  -26.3802  -47.3005 H         1 UNK         0.3000 
    201 H201       -2.2108  -27.9529  -45.1916 H         1 UNK         0.0600 
    202 H202       -0.5898  -28.8396  -46.8516 H         1 UNK         0.0600 
    203 H203       -1.7556  -28.6037  -48.1548 H         1 UNK         0.0600 
    204 H204       -2.0699  -29.7835  -46.8879 H         1 UNK         0.0600 
    205 H205       -3.7294  -26.1643  -47.7724 H         1 UNK         0.3000 
    206 H206       -6.3507  -27.5377  -47.4484 H         1 UNK         0.0600 
    207 H207       -6.9790  -26.3175  -49.4674 H         1 UNK         0.0600 
    208 H208       -5.5113  -25.3548  -49.4222 H         1 UNK         0.0600 
    209 H209       -5.4292  -27.0810  -49.7807 H         1 UNK         0.0600 
    210 H210       -4.7006  -25.3427  -45.7114 H         1 UNK         0.3000 
    211 H211       -5.0615  -23.5967  -44.4187 H         1 UNK         0.0600 
    212 H212       -8.0426  -24.2956  -44.5678 H         1 UNK         0.0600 
    213 H213       -7.2542  -23.3327  -43.3261 H         1 UNK         0.0600 
    214 H214       -6.8779  -25.0411  -43.4739 H         1 UNK         0.0600 
    215 H215       -4.7690  -23.0908  -47.1494 H         1 UNK         0.3000 
    216 H216       -4.6133  -21.4371  -48.5580 H         1 UNK         0.0600 
    217 H217       -5.0991  -19.1125  -47.9557 H         1 UNK         0.0600 
    218 H218       -4.3854  -19.9318  -46.5766 H         1 UNK         0.0600 
    219 H219       -6.1163  -19.6078  -46.6180 H         1 UNK         0.0600 
    220 H220       -7.3686  -23.0537  -48.1339 H         1 UNK         0.3000 
    221 H221       -9.3719  -21.5120  -49.3700 H         1 UNK         0.0600 
    222 H222       -9.0433  -24.5575  -49.3234 H         1 UNK         0.0600 
    223 H223       -9.8092  -23.5840  -48.0686 H         1 UNK         0.0600 
    224 H224      -10.5337  -23.6883  -49.6659 H         1 UNK         0.0600 
    225 H225       -6.9141  -23.6275  -50.8434 H         1 UNK         0.3000 
    226 H226       -7.9299  -23.1749  -53.5776 H         1 UNK         0.0600 
    227 H227       -7.0875  -25.4176  -52.9163 H         1 UNK         0.0600 
    228 H228       -6.1006  -24.7319  -54.1964 H         1 UNK         0.0600 
    229 H229       -5.5061  -24.7373  -52.5428 H         1 UNK         0.0600 
    230 H230       -5.8381  -21.6092  -51.4229 H         1 UNK         0.3000 
    231 H231       -4.3442  -20.0204  -51.3950 H         1 UNK         0.0600 
    232 H232       -5.2828  -19.2971  -54.2178 H         1 UNK         0.0600 
    233 H233       -5.9892  -18.7332  -52.7060 H         1 UNK         0.0600 
    234 H234       -4.3539  -18.2667  -53.1390 H         1 UNK         0.0600 
    235 H235       -4.0905  -21.4048  -54.6569 H         1 UNK         0.3000 
    236 H236       -2.4602  -22.0710  -55.9910 H         1 UNK         0.0600 
    237 H237       -0.9197  -22.7237  -53.4288 H         1 UNK         0.0600 
    238 H238       -2.0538  -23.7771  -54.2656 H         1 UNK         0.0600 
    239 H239       -0.5400  -23.3366  -55.0310 H         1 UNK         0.0600 
    240 H240       -2.5374  -19.2394  -55.2354 H         1 UNK         0.3000 
    241 H241        0.2310  -18.2987  -55.4646 H         1 UNK         0.0600 
    242 H242       -1.2537  -18.3618  -59.1576 H         1 UNK         0.3800 
    243 H243       -1.8776  -19.3698  -57.8786 H         1 UNK         0.3800 
    244 H244       -0.6828  -16.0548  -55.1266 H         1 UNK         0.0800 
    245 H245       -2.3142  -16.6232  -55.3470 H         1 UNK         0.0800 
    246 H246       -0.3901  -16.0280  -51.4153 H         1 UNK         0.0800 
    247 H247       -0.1829  -15.2131  -52.9378 H         1 UNK         0.0800 
@<TRIPOS>BOND
     1    1    2 1    
     2    1  127 1    
     3    1  128 1    
     4    1  129 1    
     5    2    3 2    
     6    2    4 am   BACKBONE|DICT|INTERRES
     7    4    5 1    
     8    4  130 1    
     9    5    6 1    
    10    5   65 1    
    11    5  131 1    
    12    6    7 1    
    13    6  132 1    
    14    6  133 1    
    15    7    8 1    
    16    8    9 1    
    17    8  134 1    
    18    8  135 1    
    19    9   10 ar   
    20    9   14 ar   
    21   10   11 ar   
    22   10  136 1    
    23   11   12 ar   
    24   11  126 1    
    25   12   13 ar   
    26   12  137 1    
    27   13   14 ar   
    28   13   15 1    
    29   14  138 1    
    30   15   16 1    
    31   15  139 1    
    32   15  140 1    
    33   16   17 1    
    34   17   18 1    
    35   17  141 1    
    36   17  142 1    
    37   18   19 1    
    38   18   67 1    
    39   18  143 1    
    40   19   20 am   BACKBONE|DICT|INTERRES
    41   19  144 1    
    42   20   21 2    
    43   20   22 1    
    44   22   23 1    
    45   22   24 1    
    46   22  145 1    
    47   23  146 1    
    48   23  147 1    
    49   23  148 1    
    50   24   25 am   BACKBONE|DICT|INTERRES
    51   24  149 1    
    52   25   26 2    
    53   25   27 1    
    54   27   28 1    
    55   27   29 1    
    56   27  150 1    
    57   28  151 1    
    58   28  152 1    
    59   28  153 1    
    60   29   30 am   BACKBONE|DICT|INTERRES
    61   29  154 1    
    62   30   31 2    
    63   30   32 1    
    64   32   33 1    
    65   32   34 1    
    66   32  155 1    
    67   33  156 1    
    68   33  157 1    
    69   33  158 1    
    70   34   35 am   BACKBONE|DICT|INTERRES
    71   34  159 1    
    72   35   36 2    
    73   35   37 1    
    74   37   38 1    
    75   37   39 1    
    76   37  160 1    
    77   38  161 1    
    78   38  162 1    
    79   38  163 1    
    80   39   40 am   BACKBONE|DICT|INTERRES
    81   39  164 1    
    82   40   41 2    
    83   40   42 1    
    84   42   43 1    
    85   42   44 1    
    86   42  165 1    
    87   43  166 1    
    88   43  167 1    
    89   43  168 1    
    90   44   45 am   BACKBONE|DICT|INTERRES
    91   44  169 1    
    92   45   46 2    
    93   45   47 1    
    94   47   48 1    
    95   47   49 1    
    96   47  170 1    
    97   48  171 1    
    98   48  172 1    
    99   48  173 1    
   100   49   50 am   BACKBONE|DICT|INTERRES
   101   49  174 1    
   102   50   51 2    
   103   50   52 1    
   104   52   53 1    
   105   52   54 1    
   106   52  175 1    
   107   53  176 1    
   108   53  177 1    
   109   53  178 1    
   110   54   55 am   BACKBONE|DICT|INTERRES
   111   54  179 1    
   112   55   56 2    
   113   55   57 1    
   114   57   58 1    
   115   57   59 1    
   116   57  180 1    
   117   58  181 1    
   118   58  182 1    
   119   58  183 1    
   120   59   60 am   BACKBONE|DICT|INTERRES
   121   59  184 1    
   122   60   61 2    
   123   60   62 1    
   124   62   63 1    
   125   62   64 1    
   126   62  185 1    
   127   63  186 1    
   128   63  187 1    
   129   63  188 1    
   130   64   65 am   BACKBONE|DICT|INTERRES
   131   64  189 1    
   132   65   66 2    
   133   67   68 2    
   134   67   69 am   BACKBONE|DICT|INTERRES
   135   69   70 1    
   136   69  190 1    
   137   70   71 1    
   138   70   72 1    
   139   70  191 1    
   140   71  192 1    
   141   71  193 1    
   142   71  194 1    
   143   72   73 2    
   144   72   74 am   BACKBONE|DICT|INTERRES
   145   74   75 1    
   146   74  195 1    
   147   75   76 1    
   148   75   77 1    
   149   75  196 1    
   150   76  197 1    
   151   76  198 1    
   152   76  199 1    
   153   77   78 2    
   154   77   79 am   BACKBONE|DICT|INTERRES
   155   79   80 1    
   156   79  200 1    
   157   80   81 1    
   158   80   82 1    
   159   80  201 1    
   160   81  202 1    
   161   81  203 1    
   162   81  204 1    
   163   82   83 2    
   164   82   84 am   BACKBONE|DICT|INTERRES
   165   84   85 1    
   166   84  205 1    
   167   85   86 1    
   168   85   87 1    
   169   85  206 1    
   170   86  207 1    
   171   86  208 1    
   172   86  209 1    
   173   87   88 2    
   174   87   89 am   BACKBONE|DICT|INTERRES
   175   89   90 1    
   176   89  210 1    
   177   90   91 1    
   178   90   92 1    
   179   90  211 1    
   180   91  212 1    
   181   91  213 1    
   182   91  214 1    
   183   92   93 2    
   184   92   94 am   BACKBONE|DICT|INTERRES
   185   94   95 1    
   186   94  215 1    
   187   95   96 1    
   188   95   97 1    
   189   95  216 1    
   190   96  217 1    
   191   96  218 1    
   192   96  219 1    
   193   97   98 2    
   194   97   99 am   BACKBONE|DICT|INTERRES
   195   99  100 1    
   196   99  220 1    
   197  100  101 1    
   198  100  102 1    
   199  100  221 1    
   200  101  222 1    
   201  101  223 1    
   202  101  224 1    
   203  102  103 2    
   204  102  104 am   BACKBONE|DICT|INTERRES
   205  104  105 1    
   206  104  225 1    
   207  105  106 1    
   208  105  107 1    
   209  105  226 1    
   210  106  227 1    
   211  106  228 1    
   212  106  229 1    
   213  107  108 2    
   214  107  109 am   BACKBONE|DICT|INTERRES
   215  109  110 1    
   216  109  230 1    
   217  110  111 1    
   218  110  112 1    
   219  110  231 1    
   220  111  232 1    
   221  111  233 1    
   222  111  234 1    
   223  112  113 2    
   224  112  114 am   BACKBONE|DICT|INTERRES
   225  114  115 1    
   226  114  235 1    
   227  115  116 1    
   228  115  117 1    
   229  115  236 1    
   230  116  237 1    
   231  116  238 1    
   232  116  239 1    
   233  117  118 2    
   234  117  119 am   BACKBONE|DICT|INTERRES
   235  119  120 1    
   236  119  240 1    
   237  120  121 1    
   238  120  124 1    
   239  120  241 1    
   240  121  122 am   BACKBONE|DICT|INTERRES
   241  121  123 2    
   242  122  242 1    
   243  122  243 1    
   244  124  125 1    
   245  124  244 1    
   246  124  245 1    
   247  125  126 1    
   248  126  246 1    
   249  126  247 1    
@<TRIPOS>SUBSTRUCTURE
     1 UNK         1 GROUP             0       ****    0 ROOT    
