@<TRIPOS>MOLECULE
3R540
247   249    1
SMALL
USER_CHARGES


@<TRIPOS>ATOM
      1 CA          5.9649  -17.1930  -49.2110 C.3       0 UNK        -0.1800 
      2 C           6.0696  -15.7880  -49.8001 C.2       0 UNK         0.5000 
      3 O           6.9452  -15.5567  -50.6311 O.2       0 UNK        -0.5000 
      4 N           5.2165  -14.8203  -49.4322 N.am      1 UNK        -0.5000 
      5 CA          4.1681  -14.8557  -48.4035 C.3       1 UNK         0.1400 
      6 C6          3.3167  -13.5547  -48.4361 C.3       23 UNK        -0.0398 
      7 S7          1.6975  -13.7468  -49.2564 S.3       23 UNK        -0.2404 
      8 C8          2.1141  -14.2663  -50.9539 C.3       23 UNK        -0.0205 
      9 C9          1.4870  -15.6184  -51.2525 C.ar      23 UNK        -0.0193 
     10 C10         0.1937  -15.6903  -51.7763 C.ar      23 UNK        -0.1150 
     11 C11        -0.4275  -16.9271  -51.9690 C.ar      23 UNK        -0.0193 
     12 C12         0.2516  -18.0985  -51.6230 C.ar      23 UNK        -0.1150 
     13 C13         1.5520  -18.0407  -51.1137 C.ar      23 UNK        -0.0193 
     14 C14         2.1736  -16.7988  -50.9575 C.ar      23 UNK        -0.1150 
     15 C15         2.2629  -19.3189  -50.6879 C.3       23 UNK        -0.0205 
     16 S16         2.7688  -19.3028  -48.9323 S.3       23 UNK        -0.2404 
     17 C17         1.2265  -18.8572  -48.0639 C.3       23 UNK        -0.0398 
     18 CA          0.5081  -20.0635  -47.4232 C.3       11 UNK         0.1400 
     19 N          -0.4184  -19.6237  -46.3822 N.am      11 UNK        -0.5000 
     20 C          -1.0533  -20.4288  -45.5236 C.2       10 UNK         0.5000 
     21 O          -0.9259  -21.6510  -45.5080 O.2       10 UNK        -0.5000 
     22 CA         -2.0104  -19.7539  -44.5314 C.3       10 UNK         0.1400 
     23 CB         -1.2396  -19.2141  -43.3193 C.3       10 UNK        -0.1800 
     24 N          -2.7769  -18.6711  -45.1460 N.am      10 UNK        -0.5000 
     25 C          -3.7468  -18.8486  -46.0525 C.2       9 UNK         0.5000 
     26 O          -4.0992  -19.9472  -46.4828 O.2       9 UNK        -0.5000 
     27 CA         -4.3991  -17.5702  -46.6046 C.3       9 UNK         0.1400 
     28 CB         -5.3205  -16.9182  -45.5651 C.3       9 UNK        -0.1800 
     29 N          -3.4104  -16.5980  -47.0661 N.am      9 UNK        -0.5000 
     30 C          -2.5898  -16.7975  -48.1068 C.2       8 UNK         0.5000 
     31 O          -2.6101  -17.8091  -48.8088 O.2       8 UNK        -0.5000 
     32 CA         -1.5584  -15.6940  -48.4026 C.3       8 UNK         0.1400 
     33 CB         -2.1868  -14.6204  -49.3036 C.3       8 UNK        -0.1800 
     34 N          -1.0013  -15.0357  -47.2186 N.am      8 UNK        -0.5000 
     35 C          -0.4570  -15.6277  -46.1469 C.2       7 UNK         0.5000 
     36 O          -0.4076  -16.8470  -45.9903 O.2       7 UNK        -0.5000 
     37 CA          0.1099  -14.7093  -45.0478 C.3       7 UNK         0.1400 
     38 CB          0.2384  -13.2263  -45.4618 C.3       7 UNK        -0.1800 
     39 N          -0.6420  -14.8142  -43.7963 N.am      7 UNK        -0.5000 
     40 C          -1.9550  -14.6012  -43.6055 C.2       6 UNK         0.5000 
     41 O          -2.7516  -14.3783  -44.5187 O.2       6 UNK        -0.5000 
     42 CA         -2.4801  -14.6342  -42.1517 C.3       6 UNK         0.1400 
     43 CB         -3.3903  -15.8507  -41.9260 C.3       6 UNK        -0.1800 
     44 N          -1.4190  -14.6524  -41.1430 N.am      6 UNK        -0.5000 
     45 C          -0.6283  -13.6170  -40.8248 C.2       5 UNK         0.5000 
     46 O          -0.7784  -12.4807  -41.2745 O.2       5 UNK        -0.5000 
     47 CA          0.5496  -13.9075  -39.8685 C.3       5 UNK         0.1400 
     48 CB          0.2236  -13.4155  -38.4499 C.3       5 UNK        -0.1800 
     49 N           0.9360  -15.3236  -39.8038 N.am      5 UNK        -0.5000 
     50 C           1.3967  -16.0471  -40.8334 C.2       4 UNK         0.5000 
     51 O           1.5675  -15.5872  -41.9652 O.2       4 UNK        -0.5000 
     52 CA          1.6444  -17.5382  -40.5619 C.3       4 UNK         0.1400 
     53 CB          0.3360  -18.2488  -40.1582 C.3       4 UNK        -0.1800 
     54 N           2.2127  -18.1536  -41.7584 N.am      4 UNK        -0.5000 
     55 C           2.8541  -19.3247  -41.8072 C.2       3 UNK         0.5000 
     56 O           3.0015  -20.0592  -40.8296 O.2       3 UNK        -0.5000 
     57 CA          3.4741  -19.7425  -43.1543 C.3       3 UNK         0.1400 
     58 CB          2.4304  -20.3872  -44.0872 C.3       3 UNK        -0.1800 
     59 N           4.2319  -18.6741  -43.8214 N.am      3 UNK        -0.5000 
     60 C           3.7798  -17.5791  -44.4479 C.2       2 UNK         0.5000 
     61 O           2.5860  -17.3024  -44.5655 O.2       2 UNK        -0.5000 
     62 CA          4.8315  -16.6275  -45.0481 C.3       2 UNK         0.1400 
     63 CB          6.2311  -17.2658  -45.2144 C.3       2 UNK        -0.1800 
     64 N           4.3320  -16.1517  -46.3338 N.am      2 UNK        -0.5000 
     65 C           4.7906  -15.0952  -47.0124 C.2       1 UNK         0.5000 
     66 O           5.6754  -14.3406  -46.6035 O.2       1 UNK        -0.5000 
     67 C          -0.1899  -20.9548  -48.4704 C.2       11 UNK         0.5000 
     68 O           0.3451  -22.0055  -48.8250 O.2       11 UNK        -0.5000 
     69 N          -1.3945  -20.5578  -48.9085 N.am      12 UNK        -0.5000 
     70 CA         -2.2216  -21.3596  -49.8084 C.3       12 UNK         0.1400 
     71 CB         -3.3787  -20.5146  -50.3435 C.3       12 UNK        -0.1800 
     72 C          -2.7469  -22.6417  -49.1391 C.2       12 UNK         0.5000 
     73 O          -2.7438  -23.6921  -49.7785 O.2       12 UNK        -0.5000 
     74 N          -3.1379  -22.5540  -47.8586 N.am      13 UNK        -0.5000 
     75 CA         -3.5635  -23.7031  -47.0556 C.3       13 UNK         0.1400 
     76 CB         -4.1298  -23.2240  -45.7113 C.3       13 UNK        -0.1800 
     77 C          -2.4360  -24.7332  -46.8499 C.2       13 UNK         0.5000 
     78 O          -2.6820  -25.9326  -46.9757 O.2       13 UNK        -0.5000 
     79 N          -1.2088  -24.2521  -46.6036 N.am      14 UNK        -0.5000 
     80 CA          0.0116  -25.0597  -46.5205 C.3       14 UNK         0.1400 
     81 CB          1.1701  -24.1844  -46.0177 C.3       14 UNK        -0.1800 
     82 C           0.3789  -25.7395  -47.8554 C.2       14 UNK         0.5000 
     83 O           0.9135  -26.8485  -47.8447 O.2       14 UNK        -0.5000 
     84 N           0.0448  -25.0870  -48.9770 N.am      15 UNK        -0.5000 
     85 CA          0.1603  -25.6207  -50.3366 C.3       15 UNK         0.1400 
     86 CB          0.2756  -24.4456  -51.3230 C.3       15 UNK        -0.1800 
     87 C          -1.0007  -26.5649  -50.7279 C.2       15 UNK         0.5000 
     88 O          -0.9988  -27.0771  -51.8480 O.2       15 UNK        -0.5000 
     89 N          -1.9611  -26.7805  -49.8147 N.am      16 UNK        -0.5000 
     90 CA         -3.1630  -27.6115  -49.9443 C.3       16 UNK         0.1400 
     91 CB         -2.7982  -29.0920  -50.1842 C.3       16 UNK        -0.1800 
     92 C          -4.1918  -27.0654  -50.9575 C.2       16 UNK         0.5000 
     93 O          -4.9643  -27.8402  -51.5258 O.2       16 UNK        -0.5000 
     94 N          -4.2052  -25.7416  -51.1457 N.am      17 UNK        -0.5000 
     95 CA         -5.1916  -25.0053  -51.9303 C.3       17 UNK         0.1400 
     96 CB         -4.4442  -23.9879  -52.8091 C.3       17 UNK        -0.1800 
     97 C          -6.1854  -24.2943  -50.9934 C.2       17 UNK         0.5000 
     98 O          -6.0239  -24.3193  -49.7699 O.2       17 UNK        -0.5000 
     99 N          -7.2000  -23.6544  -51.5880 N.am      18 UNK        -0.5000 
    100 CA        -8.1135  -22.7457  -50.8936 C.3       18 UNK         0.1400 
    101 CB        -9.2973  -22.4238  -51.8176 C.3       18 UNK        -0.1800 
    102 C         -7.3877  -21.4550  -50.4684 C.2       18 UNK         0.5000 
    103 O         -6.4512  -21.0311  -51.1504 O.2       18 UNK        -0.5000 
    104 N         -7.8356  -20.8511  -49.3600 N.am      19 UNK        -0.5000 
    105 CA        -7.2456  -19.6578  -48.7494 C.3       19 UNK         0.1400 
    106 CB        -8.0710  -19.2534  -47.5181 C.3       19 UNK        -0.1800 
    107 C         -7.1111  -18.4815  -49.7372 C.2       19 UNK         0.5000 
    108 O         -8.1210  -17.9866  -50.2404 O.2       19 UNK        -0.5000 
    109 N         -5.8571  -18.0919  -50.0028 N.am      20 UNK        -0.5000 
    110 CA        -5.4196  -17.0327  -50.9144 C.3       20 UNK         0.1400 
    111 CB        -5.9527  -15.6555  -50.4695 C.3       20 UNK        -0.1800 
    112 C         -5.6597  -17.3221  -52.4137 C.2       20 UNK         0.5000 
    113 O         -5.5210  -16.4057  -53.2244 O.2       20 UNK        -0.5000 
    114 N         -5.9589  -18.5798  -52.7792 N.am      21 UNK        -0.5000 
    115 CA        -6.0219  -19.0271  -54.1777 C.3       21 UNK         0.1400 
    116 CB        -6.9173  -20.2708  -54.2799 C.3       21 UNK        -0.1800 
    117 C         -4.6234  -19.3209  -54.7587 C.2       21 UNK         0.5000 
    118 O         -4.4521  -19.2991  -55.9774 O.2       21 UNK        -0.5000 
    119 N         -3.6593  -19.5868  -53.8675 N.am      22 UNK        -0.5000 
    120 CA        -2.2245  -19.8146  -54.1240 C.3       22 UNK         0.1400 
    121 C         -1.8698  -21.1805  -54.7852 C.2       22 UNK         0.5000 
    122 N         -2.8221  -22.0665  -55.0433 N.am      22 UNK        -0.7600 
    123 O         -0.7012  -21.4554  -55.0419 O.2       22 UNK        -0.5000 
    124 C124       -1.5047  -18.6342  -54.8466 C.3       23 UNK        -0.0398 
    125 S125       -1.9264  -16.9341  -54.3132 S.3       23 UNK        -0.2404 
    126 C126       -1.8509  -16.9848  -52.4973 C.3       23 UNK        -0.0205 
    127 H127        6.6364  -17.2934  -48.3586 H         1 UNK         0.0600 
    128 H128        6.2525  -17.9351  -49.9558 H         1 UNK         0.0600 
    129 H129        4.9570  -17.4365  -48.8866 H         1 UNK         0.0600 
    130 H130        5.3573  -13.9108  -49.8463 H         1 UNK         0.3000 
    131 H131        3.5116  -15.7000  -48.6140 H         1 UNK         0.0600 
    132 H132        3.0948  -13.1957  -47.4292 H         1 UNK         0.0800 
    133 H133        3.8561  -12.7334  -48.9106 H         1 UNK         0.0800 
    134 H134        3.1917  -14.3045  -51.1072 H         1 UNK         0.0800 
    135 H135        1.7381  -13.5181  -51.6533 H         1 UNK         0.0800 
    136 H136       -0.3414  -14.7803  -52.0088 H         1 UNK         0.1150 
    137 H137       -0.2357  -19.0557  -51.7306 H         1 UNK         0.1150 
    138 H138        3.1776  -16.7553  -50.5646 H         1 UNK         0.1150 
    139 H139        1.6313  -20.1914  -50.8618 H         1 UNK         0.0800 
    140 H140        3.1494  -19.4541  -51.3086 H         1 UNK         0.0800 
    141 H141        0.5484  -18.2925  -48.7034 H         1 UNK         0.0800 
    142 H142        1.5258  -18.1615  -47.2789 H         1 UNK         0.0800 
    143 H143        1.2607  -20.6795  -46.9269 H         1 UNK         0.0600 
    144 H144       -0.5410  -18.6171  -46.2805 H         1 UNK         0.3000 
    145 H145       -2.7111  -20.5127  -44.1774 H         1 UNK         0.0600 
    146 H146       -1.9284  -18.8787  -42.5457 H         1 UNK         0.0600 
    147 H147       -0.6112  -19.9878  -42.8759 H         1 UNK         0.0600 
    148 H148       -0.5913  -18.3779  -43.5865 H         1 UNK         0.0600 
    149 H149       -2.4875  -17.7292  -44.9263 H         1 UNK         0.3000 
    150 H150       -5.0141  -17.8573  -47.4558 H         1 UNK         0.0600 
    151 H151       -6.0470  -17.6341  -45.1784 H         1 UNK         0.0600 
    152 H152       -5.8795  -16.0900  -46.0011 H         1 UNK         0.0600 
    153 H153       -4.7570  -16.5301  -44.7178 H         1 UNK         0.0600 
    154 H154       -3.3039  -15.7520  -46.5211 H         1 UNK         0.3000 
    155 H155       -0.7296  -16.1580  -48.9401 H         1 UNK         0.0600 
    156 H156       -2.9387  -14.0381  -48.7696 H         1 UNK         0.0600 
    157 H157       -1.4320  -13.9298  -49.6799 H         1 UNK         0.0600 
    158 H158       -2.6794  -15.0644  -50.1669 H         1 UNK         0.0600 
    159 H159       -1.0100  -14.0267  -47.2354 H         1 UNK         0.3000 
    160 H160        1.1142  -15.0771  -44.8349 H         1 UNK         0.0600 
    161 H161       -0.7309  -12.7623  -45.6475 H         1 UNK         0.0600 
    162 H162        0.8408  -13.1168  -46.3635 H         1 UNK         0.0600 
    163 H163        0.7311  -12.6497  -44.6788 H         1 UNK         0.0600 
    164 H164       -0.0695  -15.0405  -42.9900 H         1 UNK         0.3000 
    165 H165       -3.0761  -13.7315  -42.0022 H         1 UNK         0.0600 
    166 H166       -3.7582  -15.8852  -40.9003 H         1 UNK         0.0600 
    167 H167       -4.2640  -15.8090  -42.5759 H         1 UNK         0.0600 
    168 H168       -2.8700  -16.7861  -42.1284 H         1 UNK         0.0600 
    169 H169       -1.2281  -15.5418  -40.7074 H         1 UNK         0.3000 
    170 H170        1.4100  -13.3452  -40.2370 H         1 UNK         0.0600 
    171 H171       -0.0387  -12.3567  -38.4533 H         1 UNK         0.0600 
    172 H172       -0.6171  -13.9604  -38.0187 H         1 UNK         0.0600 
    173 H173        1.0789  -13.5337  -37.7843 H         1 UNK         0.0600 
    174 H174        0.8195  -15.7734  -38.9070 H         1 UNK         0.3000 
    175 H175        2.3700  -17.6168  -39.7499 H         1 UNK         0.0600 
    176 H176       -0.4546  -18.0711  -40.8853 H         1 UNK         0.0600 
    177 H177        0.4695  -19.3265  -40.0663 H         1 UNK         0.0600 
    178 H178       -0.0247  -17.8924  -39.1930 H         1 UNK         0.0600 
    179 H179        2.1575  -17.5859  -42.6014 H         1 UNK         0.3000 
    180 H180        4.2112  -20.5139  -42.9254 H         1 UNK         0.0600 
    181 H181        1.6345  -19.6916  -44.3490 H         1 UNK         0.0600 
    182 H182        1.9606  -21.2490  -43.6117 H         1 UNK         0.0600 
    183 H183        2.8897  -20.7358  -45.0120 H         1 UNK         0.0600 
    184 H184        5.2349  -18.7862  -43.7732 H         1 UNK         0.3000 
    185 H185        4.9097  -15.7762  -44.3690 H         1 UNK         0.0600 
    186 H186        6.6525  -17.5619  -44.2533 H         1 UNK         0.0600 
    187 H187        6.1967  -18.1481  -45.8551 H         1 UNK         0.0600 
    188 H188        6.9396  -16.5666  -45.6579 H         1 UNK         0.0600 
    189 H189        3.5534  -16.6866  -46.6949 H         1 UNK         0.3000 
    190 H190       -1.7802  -19.6714  -48.5996 H         1 UNK         0.3000 
    191 H191       -1.6028  -21.6533  -50.6591 H         1 UNK         0.0600 
    192 H192       -4.0888  -20.2703  -49.5541 H         1 UNK         0.0600 
    193 H193       -3.9133  -21.0577  -51.1214 H         1 UNK         0.0600 
    194 H194       -3.0214  -19.5846  -50.7797 H         1 UNK         0.0600 
    195 H195       -3.1455  -21.6500  -47.4011 H         1 UNK         0.3000 
    196 H196       -4.3686  -24.2032  -47.5976 H         1 UNK         0.0600 
    197 H197       -4.4867  -24.0660  -45.1172 H         1 UNK         0.0600 
    198 H198       -4.9732  -22.5490  -45.8579 H         1 UNK         0.0600 
    199 H199       -3.3800  -22.7002  -45.1195 H         1 UNK         0.0600 
    200 H200       -1.1010  -23.2532  -46.4420 H         1 UNK         0.3000 
    201 H201       -0.1617  -25.8488  -45.7862 H         1 UNK         0.0600 
    202 H202        0.9485  -23.7614  -45.0377 H         1 UNK         0.0600 
    203 H203        1.3758  -23.3579  -46.6983 H         1 UNK         0.0600 
    204 H204        2.0872  -24.7667  -45.9210 H         1 UNK         0.0600 
    205 H205       -0.3527  -24.1593  -48.8933 H         1 UNK         0.3000 
    206 H206        1.0817  -26.2025  -50.4030 H         1 UNK         0.0600 
    207 H207        1.0936  -23.7785  -51.0502 H         1 UNK         0.0600 
    208 H208        0.4716  -24.8015  -52.3350 H         1 UNK         0.0600 
    209 H209       -0.6393  -23.8553  -51.3587 H         1 UNK         0.0600 
    210 H210       -1.8846  -26.2905  -48.9317 H         1 UNK         0.3000 
    211 H211       -3.6589  -27.5591  -48.9744 H         1 UNK         0.0600 
    212 H212       -2.3751  -29.2515  -51.1761 H         1 UNK         0.0600 
    213 H213       -3.6790  -29.7296  -50.1007 H         1 UNK         0.0600 
    214 H214       -2.0747  -29.4439  -49.4487 H         1 UNK         0.0600 
    215 H215       -3.5809  -25.1595  -50.5910 H         1 UNK         0.3000 
    216 H216       -5.7543  -25.6813  -52.5769 H         1 UNK         0.0600 
    217 H217       -5.1286  -23.4512  -53.4664 H         1 UNK         0.0600 
    218 H218       -3.7097  -24.4845  -53.4433 H         1 UNK         0.0600 
    219 H219       -3.9162  -23.2462  -52.2097 H         1 UNK         0.0600 
    220 H220       -7.2569  -23.6584  -52.5952 H         1 UNK         0.3000 
    221 H221       -8.4920  -23.2477  -50.0006 H         1 UNK         0.0600 
    222 H222       -8.9698  -21.9501  -52.7431 H         1 UNK         0.0600 
    223 H223       -9.8479  -23.3271  -52.0809 H         1 UNK         0.0600 
    224 H224      -10.0004  -21.7453  -51.3328 H         1 UNK         0.0600 
    225 H225       -8.6304  -21.2469  -48.8799 H         1 UNK         0.3000 
    226 H226       -6.2502  -19.9391  -48.4001 H         1 UNK         0.0600 
    227 H227       -8.0690  -20.0417  -46.7651 H         1 UNK         0.0600 
    228 H228       -7.6623  -18.3573  -47.0501 H         1 UNK         0.0600 
    229 H229       -9.1080  -19.0408  -47.7812 H         1 UNK         0.0600 
    230 H230       -5.1009  -18.5949  -49.5606 H         1 UNK         0.3000 
    231 H231       -4.3363  -16.9977  -50.8038 H         1 UNK         0.0600 
    232 H232       -5.4858  -14.8517  -51.0398 H         1 UNK         0.0600 
    233 H233       -5.7349  -15.4708  -49.4173 H         1 UNK         0.0600 
    234 H234       -7.0302  -15.5714  -50.6113 H         1 UNK         0.0600 
    235 H235       -6.1002  -19.2924  -52.0687 H         1 UNK         0.3000 
    236 H236       -6.4748  -18.2392  -54.7833 H         1 UNK         0.0600 
    237 H237       -7.9033  -20.0791  -53.8571 H         1 UNK         0.0600 
    238 H238       -7.0608  -20.5615  -55.3212 H         1 UNK         0.0600 
    239 H239       -6.4855  -21.1263  -53.7605 H         1 UNK         0.0600 
    240 H240       -3.9377  -19.6138  -52.8996 H         1 UNK         0.3000 
    241 H241       -1.7873  -19.8967  -53.1309 H         1 UNK         0.0600 
    242 H242       -3.7868  -21.8453  -54.8641 H         1 UNK         0.3800 
    243 H243       -2.5752  -22.9472  -55.4655 H         1 UNK         0.3800 
    244 H244       -0.4236  -18.7464  -54.7483 H         1 UNK         0.0800 
    245 H245       -1.7094  -18.6823  -55.9173 H         1 UNK         0.0800 
    246 H246       -2.4060  -16.1230  -52.1300 H         1 UNK         0.0800 
    247 H247       -2.3722  -17.8558  -52.1089 H         1 UNK         0.0800 
@<TRIPOS>BOND
     1    1    2 1    
     2    1  127 1    
     3    1  128 1    
     4    1  129 1    
     5    2    3 2    
     6    2    4 am   BACKBONE|DICT|INTERRES
     7    4    5 1    
     8    4  130 1    
     9    5    6 1    
    10    5   65 1    
    11    5  131 1    
    12    6    7 1    
    13    6  132 1    
    14    6  133 1    
    15    7    8 1    
    16    8    9 1    
    17    8  134 1    
    18    8  135 1    
    19    9   10 ar   
    20    9   14 ar   
    21   10   11 ar   
    22   10  136 1    
    23   11   12 ar   
    24   11  126 1    
    25   12   13 ar   
    26   12  137 1    
    27   13   14 ar   
    28   13   15 1    
    29   14  138 1    
    30   15   16 1    
    31   15  139 1    
    32   15  140 1    
    33   16   17 1    
    34   17   18 1    
    35   17  141 1    
    36   17  142 1    
    37   18   19 1    
    38   18   67 1    
    39   18  143 1    
    40   19   20 am   BACKBONE|DICT|INTERRES
    41   19  144 1    
    42   20   21 2    
    43   20   22 1    
    44   22   23 1    
    45   22   24 1    
    46   22  145 1    
    47   23  146 1    
    48   23  147 1    
    49   23  148 1    
    50   24   25 am   BACKBONE|DICT|INTERRES
    51   24  149 1    
    52   25   26 2    
    53   25   27 1    
    54   27   28 1    
    55   27   29 1    
    56   27  150 1    
    57   28  151 1    
    58   28  152 1    
    59   28  153 1    
    60   29   30 am   BACKBONE|DICT|INTERRES
    61   29  154 1    
    62   30   31 2    
    63   30   32 1    
    64   32   33 1    
    65   32   34 1    
    66   32  155 1    
    67   33  156 1    
    68   33  157 1    
    69   33  158 1    
    70   34   35 am   BACKBONE|DICT|INTERRES
    71   34  159 1    
    72   35   36 2    
    73   35   37 1    
    74   37   38 1    
    75   37   39 1    
    76   37  160 1    
    77   38  161 1    
    78   38  162 1    
    79   38  163 1    
    80   39   40 am   BACKBONE|DICT|INTERRES
    81   39  164 1    
    82   40   41 2    
    83   40   42 1    
    84   42   43 1    
    85   42   44 1    
    86   42  165 1    
    87   43  166 1    
    88   43  167 1    
    89   43  168 1    
    90   44   45 am   BACKBONE|DICT|INTERRES
    91   44  169 1    
    92   45   46 2    
    93   45   47 1    
    94   47   48 1    
    95   47   49 1    
    96   47  170 1    
    97   48  171 1    
    98   48  172 1    
    99   48  173 1    
   100   49   50 am   BACKBONE|DICT|INTERRES
   101   49  174 1    
   102   50   51 2    
   103   50   52 1    
   104   52   53 1    
   105   52   54 1    
   106   52  175 1    
   107   53  176 1    
   108   53  177 1    
   109   53  178 1    
   110   54   55 am   BACKBONE|DICT|INTERRES
   111   54  179 1    
   112   55   56 2    
   113   55   57 1    
   114   57   58 1    
   115   57   59 1    
   116   57  180 1    
   117   58  181 1    
   118   58  182 1    
   119   58  183 1    
   120   59   60 am   BACKBONE|DICT|INTERRES
   121   59  184 1    
   122   60   61 2    
   123   60   62 1    
   124   62   63 1    
   125   62   64 1    
   126   62  185 1    
   127   63  186 1    
   128   63  187 1    
   129   63  188 1    
   130   64   65 am   BACKBONE|DICT|INTERRES
   131   64  189 1    
   132   65   66 2    
   133   67   68 2    
   134   67   69 am   BACKBONE|DICT|INTERRES
   135   69   70 1    
   136   69  190 1    
   137   70   71 1    
   138   70   72 1    
   139   70  191 1    
   140   71  192 1    
   141   71  193 1    
   142   71  194 1    
   143   72   73 2    
   144   72   74 am   BACKBONE|DICT|INTERRES
   145   74   75 1    
   146   74  195 1    
   147   75   76 1    
   148   75   77 1    
   149   75  196 1    
   150   76  197 1    
   151   76  198 1    
   152   76  199 1    
   153   77   78 2    
   154   77   79 am   BACKBONE|DICT|INTERRES
   155   79   80 1    
   156   79  200 1    
   157   80   81 1    
   158   80   82 1    
   159   80  201 1    
   160   81  202 1    
   161   81  203 1    
   162   81  204 1    
   163   82   83 2    
   164   82   84 am   BACKBONE|DICT|INTERRES
   165   84   85 1    
   166   84  205 1    
   167   85   86 1    
   168   85   87 1    
   169   85  206 1    
   170   86  207 1    
   171   86  208 1    
   172   86  209 1    
   173   87   88 2    
   174   87   89 am   BACKBONE|DICT|INTERRES
   175   89   90 1    
   176   89  210 1    
   177   90   91 1    
   178   90   92 1    
   179   90  211 1    
   180   91  212 1    
   181   91  213 1    
   182   91  214 1    
   183   92   93 2    
   184   92   94 am   BACKBONE|DICT|INTERRES
   185   94   95 1    
   186   94  215 1    
   187   95   96 1    
   188   95   97 1    
   189   95  216 1    
   190   96  217 1    
   191   96  218 1    
   192   96  219 1    
   193   97   98 2    
   194   97   99 am   BACKBONE|DICT|INTERRES
   195   99  100 1    
   196   99  220 1    
   197  100  101 1    
   198  100  102 1    
   199  100  221 1    
   200  101  222 1    
   201  101  223 1    
   202  101  224 1    
   203  102  103 2    
   204  102  104 am   BACKBONE|DICT|INTERRES
   205  104  105 1    
   206  104  225 1    
   207  105  106 1    
   208  105  107 1    
   209  105  226 1    
   210  106  227 1    
   211  106  228 1    
   212  106  229 1    
   213  107  108 2    
   214  107  109 am   BACKBONE|DICT|INTERRES
   215  109  110 1    
   216  109  230 1    
   217  110  111 1    
   218  110  112 1    
   219  110  231 1    
   220  111  232 1    
   221  111  233 1    
   222  111  234 1    
   223  112  113 2    
   224  112  114 am   BACKBONE|DICT|INTERRES
   225  114  115 1    
   226  114  235 1    
   227  115  116 1    
   228  115  117 1    
   229  115  236 1    
   230  116  237 1    
   231  116  238 1    
   232  116  239 1    
   233  117  118 2    
   234  117  119 am   BACKBONE|DICT|INTERRES
   235  119  120 1    
   236  119  240 1    
   237  120  121 1    
   238  120  124 1    
   239  120  241 1    
   240  121  122 am   BACKBONE|DICT|INTERRES
   241  121  123 2    
   242  122  242 1    
   243  122  243 1    
   244  124  125 1    
   245  124  244 1    
   246  124  245 1    
   247  125  126 1    
   248  126  246 1    
   249  126  247 1    
@<TRIPOS>SUBSTRUCTURE
     1 UNK         1 GROUP             0       ****    0 ROOT    
