@<TRIPOS>MOLECULE
3R540
247   249    1
SMALL
USER_CHARGES


@<TRIPOS>ATOM
      1 CA         -5.2757  -16.0450  -49.0572 C.3       0 UNK        -0.1800 
      2 C          -4.7511  -17.0616  -48.0463 C.2       0 UNK         0.5000 
      3 O          -5.4794  -17.9806  -47.6808 O.2       0 UNK        -0.5000 
      4 N          -3.4991  -16.9568  -47.5821 N.am      1 UNK        -0.5000 
      5 CA         -2.5389  -15.8870  -47.8593 C.3       1 UNK         0.1400 
      6 C6         -1.0888  -16.4040  -47.7016 C.3       23 UNK        -0.0398 
      7 S7          0.1744  -15.2657  -48.3661 S.3       23 UNK        -0.2404 
      8 C8          0.2447  -15.7431  -50.1325 C.3       23 UNK        -0.0205 
      9 C9          0.8155  -17.1306  -50.4367 C.ar      23 UNK        -0.0193 
     10 C10         0.4821  -17.7428  -51.6520 C.ar      23 UNK        -0.1150 
     11 C11         0.9778  -19.0101  -51.9736 C.ar      23 UNK        -0.0193 
     12 C12         1.8280  -19.6604  -51.0799 C.ar      23 UNK        -0.1150 
     13 C13         2.1639  -19.0725  -49.8591 C.ar      23 UNK        -0.0193 
     14 C14         1.6678  -17.8028  -49.5497 C.ar      23 UNK        -0.1150 
     15 C15         3.0203  -19.8335  -48.8538 C.3       23 UNK        -0.0205 
     16 S16         2.3323  -21.4789  -48.4583 S.3       23 UNK        -0.2404 
     17 C17         0.5837  -21.0560  -48.1587 C.3       23 UNK        -0.0398 
     18 CA         -0.1518  -22.0910  -47.2872 C.3       11 UNK         0.1400 
     19 N           0.3769  -22.1479  -45.9202 N.am      11 UNK        -0.5000 
     20 C           0.0686  -23.1004  -45.0305 C.2       10 UNK         0.5000 
     21 O          -0.6806  -24.0435  -45.2789 O.2       10 UNK        -0.5000 
     22 CA          0.6436  -22.9499  -43.6110 C.3       10 UNK         0.1400 
     23 CB          2.1061  -23.4148  -43.5547 C.3       10 UNK        -0.1800 
     24 N           0.5274  -21.5828  -43.1006 N.am      10 UNK        -0.5000 
     25 C          -0.6393  -20.9639  -42.8682 C.2       9 UNK         0.5000 
     26 O          -1.7348  -21.5037  -43.0198 O.2       9 UNK        -0.5000 
     27 CA         -0.5825  -19.4863  -42.4390 C.3       9 UNK         0.1400 
     28 CB         -0.3032  -19.3621  -40.9341 C.3       9 UNK        -0.1800 
     29 N           0.4118  -18.7174  -43.1845 N.am      9 UNK        -0.5000 
     30 C           0.3813  -18.5004  -44.5062 C.2       8 UNK         0.5000 
     31 O          -0.5208  -18.8893  -45.2485 O.2       8 UNK        -0.5000 
     32 CA          1.6046  -17.7877  -45.1091 C.3       8 UNK         0.1400 
     33 CB          1.5513  -16.2720  -44.8671 C.3       8 UNK        -0.1800 
     34 N           2.8660  -18.3146  -44.5880 N.am      8 UNK        -0.5000 
     35 C           3.2903  -19.5754  -44.7484 C.2       7 UNK         0.5000 
     36 O           2.6683  -20.4300  -45.3748 O.2       7 UNK        -0.5000 
     37 CA          4.6057  -19.9530  -44.0466 C.3       7 UNK         0.1400 
     38 CB          5.8147  -19.4560  -44.8532 C.3       7 UNK        -0.1800 
     39 N           4.6731  -19.4245  -42.6835 N.am      7 UNK        -0.5000 
     40 C           3.8806  -19.8270  -41.6795 C.2       6 UNK         0.5000 
     41 O           3.0428  -20.7220  -41.7854 O.2       6 UNK        -0.5000 
     42 CA          4.0121  -19.0634  -40.3485 C.3       6 UNK         0.1400 
     43 CB          5.1617  -19.6357  -39.5060 C.3       6 UNK        -0.1800 
     44 N           4.2060  -17.6203  -40.5254 N.am      6 UNK        -0.5000 
     45 C           3.3220  -16.8066  -41.1177 C.2       5 UNK         0.5000 
     46 O           2.2637  -17.1987  -41.6125 O.2       5 UNK        -0.5000 
     47 CA          3.7151  -15.3203  -41.2205 C.3       5 UNK         0.1400 
     48 CB          4.5949  -15.0882  -42.4595 C.3       5 UNK        -0.1800 
     49 N           2.5546  -14.4302  -41.2976 N.am      5 UNK        -0.5000 
     50 C           1.6360  -14.2713  -40.3344 C.2       4 UNK         0.5000 
     51 O           1.6953  -14.8372  -39.2412 O.2       4 UNK        -0.5000 
     52 CA          0.4722  -13.2969  -40.6108 C.3       4 UNK         0.1400 
     53 CB          0.4545  -12.1657  -39.5683 C.3       4 UNK        -0.1800 
     54 N           0.5156  -12.6891  -41.9451 N.am      4 UNK        -0.5000 
     55 C          -0.1011  -13.1748  -43.0286 C.2       3 UNK         0.5000 
     56 O          -0.7150  -14.2435  -43.0533 O.2       3 UNK        -0.5000 
     57 CA         -0.0190  -12.3105  -44.2947 C.3       3 UNK         0.1400 
     58 CB          1.2779  -12.5686  -45.0823 C.3       3 UNK        -0.1800 
     59 N          -1.1807  -12.5800  -45.1351 N.am      3 UNK        -0.5000 
     60 C          -1.7056  -11.7357  -46.0282 C.2       2 UNK         0.5000 
     61 O          -1.2214  -10.6304  -46.2801 O.2       2 UNK        -0.5000 
     62 CA         -2.9742  -12.2144  -46.7661 C.3       2 UNK         0.1400 
     63 CB         -3.5061  -11.1777  -47.7727 C.3       2 UNK        -0.1800 
     64 N          -2.7425  -13.4734  -47.4749 N.am      2 UNK        -0.5000 
     65 C          -2.8245  -14.6914  -46.9282 C.2       1 UNK         0.5000 
     66 O          -3.0976  -14.8884  -45.7423 O.2       1 UNK        -0.5000 
     67 C          -1.6720  -21.8252  -47.3296 C.2       11 UNK         0.5000 
     68 O          -2.3429  -22.3146  -48.2419 O.2       11 UNK        -0.5000 
     69 N          -2.1895  -21.0653  -46.3536 N.am      12 UNK        -0.5000 
     70 CA         -3.6199  -20.8422  -46.1491 C.3       12 UNK         0.1400 
     71 CB         -3.8335  -19.6866  -45.1589 C.3       12 UNK        -0.1800 
     72 C          -4.3252  -22.1199  -45.6613 C.2       12 UNK         0.5000 
     73 O          -5.3673  -22.4792  -46.2071 O.2       12 UNK        -0.5000 
     74 N          -3.7253  -22.8062  -44.6768 N.am      13 UNK        -0.5000 
     75 CA         -4.2089  -24.0722  -44.1174 C.3       13 UNK         0.1400 
     76 CB         -3.3833  -24.4318  -42.8730 C.3       13 UNK        -0.1800 
     77 C          -4.1942  -25.2286  -45.1355 C.2       13 UNK         0.5000 
     78 O          -5.1294  -26.0292  -45.1612 O.2       13 UNK        -0.5000 
     79 N          -3.1570  -25.2689  -45.9832 N.am      14 UNK        -0.5000 
     80 CA         -3.0253  -26.1892  -47.1165 C.3       14 UNK         0.1400 
     81 CB         -1.5657  -26.1737  -47.5976 C.3       14 UNK        -0.1800 
     82 C          -3.9727  -25.8597  -48.2893 C.2       14 UNK         0.5000 
     83 O          -4.1172  -26.6818  -49.1940 O.2       14 UNK        -0.5000 
     84 N          -4.5748  -24.6619  -48.2621 N.am      15 UNK        -0.5000 
     85 CA         -5.5081  -24.0805  -49.2301 C.3       15 UNK         0.1400 
     86 CB         -6.7690  -24.9524  -49.3953 C.3       15 UNK        -0.1800 
     87 C          -4.8773  -23.7018  -50.5840 C.2       15 UNK         0.5000 
     88 O          -5.6052  -23.2845  -51.4836 O.2       15 UNK        -0.5000 
     89 N          -3.5457  -23.7870  -50.7053 N.am      16 UNK        -0.5000 
     90 CA         -2.7898  -23.4012  -51.8987 C.3       16 UNK         0.1400 
     91 CB         -1.3258  -23.8376  -51.7373 C.3       16 UNK        -0.1800 
     92 C          -2.8751  -21.8907  -52.1688 C.2       16 UNK         0.5000 
     93 O          -3.0722  -21.4747  -53.3121 O.2       16 UNK        -0.5000 
     94 N          -2.7692  -21.0988  -51.0945 N.am      17 UNK        -0.5000 
     95 CA         -2.9236  -19.6488  -51.1485 C.3       17 UNK         0.1400 
     96 CB         -2.2814  -19.0252  -49.9107 C.3       17 UNK        -0.1800 
     97 C          -4.3951  -19.2199  -51.2695 C.2       17 UNK         0.5000 
     98 O          -4.6723  -18.2086  -51.9118 O.2       17 UNK        -0.5000 
     99 N          -5.3107  -20.0051  -50.6835 N.am      18 UNK        -0.5000 
    100 CA        -6.7576  -19.7803  -50.7455 C.3       18 UNK         0.1400 
    101 CB        -7.4643  -20.6732  -49.7149 C.3       18 UNK        -0.1800 
    102 C         -7.3206  -20.0185  -52.1594 C.2       18 UNK         0.5000 
    103 O         -8.1635  -19.2483  -52.6196 O.2       18 UNK        -0.5000 
    104 N         -6.8039  -21.0521  -52.8392 N.am      19 UNK        -0.5000 
    105 CA        -7.0630  -21.3525  -54.2491 C.3       19 UNK         0.1400 
    106 CB        -6.6410  -22.8042  -54.5268 C.3       19 UNK        -0.1800 
    107 C         -6.3387  -20.3955  -55.2188 C.2       19 UNK         0.5000 
    108 O         -6.6526  -20.3998  -56.4096 O.2       19 UNK        -0.5000 
    109 N         -5.3833  -19.6111  -54.6966 N.am      20 UNK        -0.5000 
    110 CA        -4.5172  -18.6596  -55.3952 C.3       20 UNK         0.1400 
    111 CB        -5.3361  -17.4842  -55.9673 C.3       20 UNK        -0.1800 
    112 C         -3.6160  -19.3438  -56.4416 C.2       20 UNK         0.5000 
    113 O         -3.4270  -18.8170  -57.5403 O.2       20 UNK        -0.5000 
    114 N         -3.0497  -20.5026  -56.0700 N.am      21 UNK        -0.5000 
    115 CA        -2.1836  -21.3328  -56.9162 C.3       21 UNK         0.1400 
    116 CB        -1.8573  -22.6342  -56.1670 C.3       21 UNK        -0.1800 
    117 C         -0.8850  -20.6303  -57.3638 C.2       21 UNK         0.5000 
    118 O         -0.3204  -20.9909  -58.3972 O.2       21 UNK        -0.5000 
    119 N         -0.4553  -19.6323  -56.5845 N.am      22 UNK        -0.5000 
    120 CA         0.6889  -18.7532  -56.8660 C.3       22 UNK         0.1400 
    121 C          0.3543  -17.5680  -57.8206 C.2       22 UNK         0.5000 
    122 N         -0.8882  -17.3747  -58.2509 N.am      22 UNK        -0.7600 
    123 O          1.2463  -16.8094  -58.1903 O.2       22 UNK        -0.5000 
    124 C124        1.3524  -18.2526  -55.5557 C.3       23 UNK        -0.0398 
    125 S125        1.9062  -19.6370  -54.5021 S.3       23 UNK        -0.2404 
    126 C126        0.5773  -19.7126  -53.2600 C.3       23 UNK        -0.0205 
    127 H127       -5.2453  -15.0343  -48.6511 H         1 UNK         0.0600 
    128 H128       -4.6905  -16.0765  -49.9762 H         1 UNK         0.0600 
    129 H129       -6.3105  -16.2677  -49.3182 H         1 UNK         0.0600 
    130 H130       -3.2012  -17.6152  -46.8783 H         1 UNK         0.3000 
    131 H131       -2.6642  -15.5661  -48.8945 H         1 UNK         0.0600 
    132 H132       -0.8767  -16.5957  -46.6516 H         1 UNK         0.0800 
    133 H133       -0.9639  -17.3687  -48.1896 H         1 UNK         0.0800 
    134 H134        0.8564  -15.0077  -50.6563 H         1 UNK         0.0800 
    135 H135       -0.7590  -15.6588  -50.5516 H         1 UNK         0.0800 
    136 H136       -0.1758  -17.2366  -52.3444 H         1 UNK         0.1150 
    137 H137        2.2049  -20.6445  -51.3216 H         1 UNK         0.1150 
    138 H138        1.9400  -17.3484  -48.6087 H         1 UNK         0.1150 
    139 H139        3.1220  -19.2676  -47.9268 H         1 UNK         0.0800 
    140 H140        4.0265  -19.9537  -49.2565 H         1 UNK         0.0800 
    141 H141        0.1105  -20.9868  -49.1390 H         1 UNK         0.0800 
    142 H142        0.5198  -20.0648  -47.7051 H         1 UNK         0.0800 
    143 H143        0.0036  -23.0738  -47.7368 H         1 UNK         0.0600 
    144 H144        1.0526  -21.4322  -45.6629 H         1 UNK         0.3000 
    145 H145        0.0631  -23.5979  -42.9512 H         1 UNK         0.0600 
    146 H146        2.4906  -23.3819  -42.5352 H         1 UNK         0.0600 
    147 H147        2.2012  -24.4433  -43.9049 H         1 UNK         0.0600 
    148 H148        2.7534  -22.7968  -44.1761 H         1 UNK         0.0600 
    149 H149        1.3943  -21.0924  -42.9068 H         1 UNK         0.3000 
    150 H150       -1.5604  -19.0445  -42.6409 H         1 UNK         0.0600 
    151 H151        0.6736  -19.7685  -40.6709 H         1 UNK         0.0600 
    152 H152       -1.0521  -19.9003  -40.3519 H         1 UNK         0.0600 
    153 H153       -0.3272  -18.3200  -40.6141 H         1 UNK         0.0600 
    154 H154        1.1742  -18.3138  -42.6447 H         1 UNK         0.3000 
    155 H155        1.5864  -17.9612  -46.1869 H         1 UNK         0.0600 
    156 H156        1.6454  -16.0216  -43.8118 H         1 UNK         0.0600 
    157 H157        0.6078  -15.8458  -45.2028 H         1 UNK         0.0600 
    158 H158        2.3495  -15.7624  -45.4065 H         1 UNK         0.0600 
    159 H159        3.4111  -17.6938  -44.0106 H         1 UNK         0.3000 
    160 H160        4.6557  -21.0427  -43.9935 H         1 UNK         0.0600 
    161 H161        5.8398  -18.3675  -44.9178 H         1 UNK         0.0600 
    162 H162        5.7887  -19.8449  -45.8722 H         1 UNK         0.0600 
    163 H163        6.7509  -19.7874  -44.4038 H         1 UNK         0.0600 
    164 H164        5.3361  -18.6841  -42.5087 H         1 UNK         0.3000 
    165 H165        3.0814  -19.2070  -39.7954 H         1 UNK         0.0600 
    166 H166        5.2035  -19.1645  -38.5238 H         1 UNK         0.0600 
    167 H167        6.1284  -19.4913  -39.9899 H         1 UNK         0.0600 
    168 H168        5.0317  -20.7069  -39.3453 H         1 UNK         0.0600 
    169 H169        5.0596  -17.2314  -40.1513 H         1 UNK         0.3000 
    170 H170        4.2851  -15.0518  -40.3286 H         1 UNK         0.0600 
    171 H171        5.4888  -15.7127  -42.4315 H         1 UNK         0.0600 
    172 H172        4.0628  -15.3182  -43.3829 H         1 UNK         0.0600 
    173 H173        4.9290  -14.0520  -42.5163 H         1 UNK         0.0600 
    174 H174        2.4142  -13.9413  -42.1677 H         1 UNK         0.3000 
    175 H175       -0.4527  -13.8672  -40.5012 H         1 UNK         0.0600 
    176 H176        1.3662  -11.5684  -39.6067 H         1 UNK         0.0600 
    177 H177       -0.3922  -11.4973  -39.7263 H         1 UNK         0.0600 
    178 H178        0.3648  -12.5630  -38.5564 H         1 UNK         0.0600 
    179 H179        1.0096  -11.8104  -42.0147 H         1 UNK         0.3000 
    180 H180       -0.0433  -11.2643  -43.9818 H         1 UNK         0.0600 
    181 H181        1.2794  -13.5561  -45.5407 H         1 UNK         0.0600 
    182 H182        2.1569  -12.4964  -44.4408 H         1 UNK         0.0600 
    183 H183        1.4012  -11.8379  -45.8818 H         1 UNK         0.0600 
    184 H184       -1.6436  -13.4661  -44.9540 H         1 UNK         0.3000 
    185 H185       -3.7483  -12.3628  -46.0101 H         1 UNK         0.0600 
    186 H186       -4.4271  -11.5224  -48.2432 H         1 UNK         0.0600 
    187 H187       -3.7313  -10.2316  -47.2786 H         1 UNK         0.0600 
    188 H188       -2.7823  -10.9731  -48.5625 H         1 UNK         0.0600 
    189 H189       -2.4546  -13.3862  -48.4390 H         1 UNK         0.3000 
    190 H190       -1.5600  -20.6288  -45.6887 H         1 UNK         0.3000 
    191 H191       -4.0600  -20.5536  -47.1062 H         1 UNK         0.0600 
    192 H192       -4.8893  -19.4193  -45.1014 H         1 UNK         0.0600 
    193 H193       -3.2882  -18.7945  -45.4622 H         1 UNK         0.0600 
    194 H194       -3.5073  -19.9432  -44.1519 H         1 UNK         0.0600 
    195 H195       -2.8901  -22.4148  -44.2489 H         1 UNK         0.3000 
    196 H196       -5.2442  -23.9215  -43.8050 H         1 UNK         0.0600 
    197 H197       -2.3292  -24.5694  -43.1148 H         1 UNK         0.0600 
    198 H198       -3.4526  -23.6509  -42.1154 H         1 UNK         0.0600 
    199 H199       -3.7408  -25.3575  -42.4204 H         1 UNK         0.0600 
    200 H200       -2.3809  -24.6292  -45.8286 H         1 UNK         0.3000 
    201 H201       -3.2647  -27.1973  -46.7724 H         1 UNK         0.0600 
    202 H202       -1.2728  -25.1863  -47.9557 H         1 UNK         0.0600 
    203 H203       -1.4131  -26.8788  -48.4157 H         1 UNK         0.0600 
    204 H204       -0.8828  -26.4554  -46.7958 H         1 UNK         0.0600 
    205 H205       -4.3747  -24.0657  -47.4692 H         1 UNK         0.3000 
    206 H206       -5.8258  -23.1375  -48.7858 H         1 UNK         0.0600 
    207 H207       -7.2125  -25.1901  -48.4283 H         1 UNK         0.0600 
    208 H208       -7.5292  -24.4336  -49.9804 H         1 UNK         0.0600 
    209 H209       -6.5518  -25.8903  -49.9068 H         1 UNK         0.0600 
    210 H210       -3.0146  -24.0733  -49.8955 H         1 UNK         0.3000 
    211 H211       -3.2159  -23.9212  -52.7593 H         1 UNK         0.0600 
    212 H212       -0.7393  -23.5689  -52.6171 H         1 UNK         0.0600 
    213 H213       -1.2491  -24.9179  -51.6133 H         1 UNK         0.0600 
    214 H214       -0.8559  -23.3672  -50.8722 H         1 UNK         0.0600 
    215 H215       -2.6242  -21.5228  -50.1846 H         1 UNK         0.3000 
    216 H216       -2.3937  -19.2716  -52.0259 H         1 UNK         0.0600 
    217 H217       -2.7643  -19.3541  -48.9903 H         1 UNK         0.0600 
    218 H218       -2.3538  -17.9396  -49.9651 H         1 UNK         0.0600 
    219 H219       -1.2243  -19.2737  -49.8463 H         1 UNK         0.0600 
    220 H220       -4.9963  -20.8247  -50.1888 H         1 UNK         0.3000 
    221 H221       -6.9469  -18.7385  -50.4771 H         1 UNK         0.0600 
    222 H222       -7.0534  -20.5273  -48.7153 H         1 UNK         0.0600 
    223 H223       -7.3785  -21.7297  -49.9671 H         1 UNK         0.0600 
    224 H224       -8.5281  -20.4378  -49.6662 H         1 UNK         0.0600 
    225 H225       -6.1790  -21.6935  -52.3576 H         1 UNK         0.3000 
    226 H226       -8.1354  -21.2627  -54.4337 H         1 UNK         0.0600 
    227 H227       -5.5730  -22.9496  -54.3566 H         1 UNK         0.0600 
    228 H228       -7.1799  -23.5014  -53.8850 H         1 UNK         0.0600 
    229 H229       -6.8509  -23.0848  -55.5597 H         1 UNK         0.0600 
    230 H230       -5.2153  -19.6943  -53.7040 H         1 UNK         0.3000 
    231 H231       -3.8446  -18.2509  -54.6398 H         1 UNK         0.0600 
    232 H232       -5.9969  -17.8025  -56.7740 H         1 UNK         0.0600 
    233 H233       -4.6804  -16.7107  -56.3686 H         1 UNK         0.0600 
    234 H234       -5.9489  -17.0200  -55.1944 H         1 UNK         0.0600 
    235 H235       -3.2251  -20.8538  -55.1314 H         1 UNK         0.3000 
    236 H236       -2.7466  -21.5855  -57.8168 H         1 UNK         0.0600 
    237 H237       -2.7659  -23.1672  -55.8856 H         1 UNK         0.0600 
    238 H238       -1.2646  -23.3060  -56.7890 H         1 UNK         0.0600 
    239 H239       -1.2874  -22.4405  -55.2572 H         1 UNK         0.0600 
    240 H240       -0.9981  -19.4110  -55.7653 H         1 UNK         0.3000 
    241 H241        1.4379  -19.3445  -57.3964 H         1 UNK         0.0600 
    242 H242       -1.0765  -16.6045  -58.8729 H         1 UNK         0.3800 
    243 H243       -1.6483  -17.9888  -57.9788 H         1 UNK         0.3800 
    244 H244        0.6765  -17.6031  -54.9974 H         1 UNK         0.0800 
    245 H245        2.2317  -17.6475  -55.7828 H         1 UNK         0.0800 
    246 H246       -0.3503  -19.2982  -53.6556 H         1 UNK         0.0800 
    247 H247        0.3634  -20.7604  -53.0430 H         1 UNK         0.0800 
@<TRIPOS>BOND
     1    1    2 1    
     2    1  127 1    
     3    1  128 1    
     4    1  129 1    
     5    2    3 2    
     6    2    4 am   BACKBONE|DICT|INTERRES
     7    4    5 1    
     8    4  130 1    
     9    5    6 1    
    10    5   65 1    
    11    5  131 1    
    12    6    7 1    
    13    6  132 1    
    14    6  133 1    
    15    7    8 1    
    16    8    9 1    
    17    8  134 1    
    18    8  135 1    
    19    9   10 ar   
    20    9   14 ar   
    21   10   11 ar   
    22   10  136 1    
    23   11   12 ar   
    24   11  126 1    
    25   12   13 ar   
    26   12  137 1    
    27   13   14 ar   
    28   13   15 1    
    29   14  138 1    
    30   15   16 1    
    31   15  139 1    
    32   15  140 1    
    33   16   17 1    
    34   17   18 1    
    35   17  141 1    
    36   17  142 1    
    37   18   19 1    
    38   18   67 1    
    39   18  143 1    
    40   19   20 am   BACKBONE|DICT|INTERRES
    41   19  144 1    
    42   20   21 2    
    43   20   22 1    
    44   22   23 1    
    45   22   24 1    
    46   22  145 1    
    47   23  146 1    
    48   23  147 1    
    49   23  148 1    
    50   24   25 am   BACKBONE|DICT|INTERRES
    51   24  149 1    
    52   25   26 2    
    53   25   27 1    
    54   27   28 1    
    55   27   29 1    
    56   27  150 1    
    57   28  151 1    
    58   28  152 1    
    59   28  153 1    
    60   29   30 am   BACKBONE|DICT|INTERRES
    61   29  154 1    
    62   30   31 2    
    63   30   32 1    
    64   32   33 1    
    65   32   34 1    
    66   32  155 1    
    67   33  156 1    
    68   33  157 1    
    69   33  158 1    
    70   34   35 am   BACKBONE|DICT|INTERRES
    71   34  159 1    
    72   35   36 2    
    73   35   37 1    
    74   37   38 1    
    75   37   39 1    
    76   37  160 1    
    77   38  161 1    
    78   38  162 1    
    79   38  163 1    
    80   39   40 am   BACKBONE|DICT|INTERRES
    81   39  164 1    
    82   40   41 2    
    83   40   42 1    
    84   42   43 1    
    85   42   44 1    
    86   42  165 1    
    87   43  166 1    
    88   43  167 1    
    89   43  168 1    
    90   44   45 am   BACKBONE|DICT|INTERRES
    91   44  169 1    
    92   45   46 2    
    93   45   47 1    
    94   47   48 1    
    95   47   49 1    
    96   47  170 1    
    97   48  171 1    
    98   48  172 1    
    99   48  173 1    
   100   49   50 am   BACKBONE|DICT|INTERRES
   101   49  174 1    
   102   50   51 2    
   103   50   52 1    
   104   52   53 1    
   105   52   54 1    
   106   52  175 1    
   107   53  176 1    
   108   53  177 1    
   109   53  178 1    
   110   54   55 am   BACKBONE|DICT|INTERRES
   111   54  179 1    
   112   55   56 2    
   113   55   57 1    
   114   57   58 1    
   115   57   59 1    
   116   57  180 1    
   117   58  181 1    
   118   58  182 1    
   119   58  183 1    
   120   59   60 am   BACKBONE|DICT|INTERRES
   121   59  184 1    
   122   60   61 2    
   123   60   62 1    
   124   62   63 1    
   125   62   64 1    
   126   62  185 1    
   127   63  186 1    
   128   63  187 1    
   129   63  188 1    
   130   64   65 am   BACKBONE|DICT|INTERRES
   131   64  189 1    
   132   65   66 2    
   133   67   68 2    
   134   67   69 am   BACKBONE|DICT|INTERRES
   135   69   70 1    
   136   69  190 1    
   137   70   71 1    
   138   70   72 1    
   139   70  191 1    
   140   71  192 1    
   141   71  193 1    
   142   71  194 1    
   143   72   73 2    
   144   72   74 am   BACKBONE|DICT|INTERRES
   145   74   75 1    
   146   74  195 1    
   147   75   76 1    
   148   75   77 1    
   149   75  196 1    
   150   76  197 1    
   151   76  198 1    
   152   76  199 1    
   153   77   78 2    
   154   77   79 am   BACKBONE|DICT|INTERRES
   155   79   80 1    
   156   79  200 1    
   157   80   81 1    
   158   80   82 1    
   159   80  201 1    
   160   81  202 1    
   161   81  203 1    
   162   81  204 1    
   163   82   83 2    
   164   82   84 am   BACKBONE|DICT|INTERRES
   165   84   85 1    
   166   84  205 1    
   167   85   86 1    
   168   85   87 1    
   169   85  206 1    
   170   86  207 1    
   171   86  208 1    
   172   86  209 1    
   173   87   88 2    
   174   87   89 am   BACKBONE|DICT|INTERRES
   175   89   90 1    
   176   89  210 1    
   177   90   91 1    
   178   90   92 1    
   179   90  211 1    
   180   91  212 1    
   181   91  213 1    
   182   91  214 1    
   183   92   93 2    
   184   92   94 am   BACKBONE|DICT|INTERRES
   185   94   95 1    
   186   94  215 1    
   187   95   96 1    
   188   95   97 1    
   189   95  216 1    
   190   96  217 1    
   191   96  218 1    
   192   96  219 1    
   193   97   98 2    
   194   97   99 am   BACKBONE|DICT|INTERRES
   195   99  100 1    
   196   99  220 1    
   197  100  101 1    
   198  100  102 1    
   199  100  221 1    
   200  101  222 1    
   201  101  223 1    
   202  101  224 1    
   203  102  103 2    
   204  102  104 am   BACKBONE|DICT|INTERRES
   205  104  105 1    
   206  104  225 1    
   207  105  106 1    
   208  105  107 1    
   209  105  226 1    
   210  106  227 1    
   211  106  228 1    
   212  106  229 1    
   213  107  108 2    
   214  107  109 am   BACKBONE|DICT|INTERRES
   215  109  110 1    
   216  109  230 1    
   217  110  111 1    
   218  110  112 1    
   219  110  231 1    
   220  111  232 1    
   221  111  233 1    
   222  111  234 1    
   223  112  113 2    
   224  112  114 am   BACKBONE|DICT|INTERRES
   225  114  115 1    
   226  114  235 1    
   227  115  116 1    
   228  115  117 1    
   229  115  236 1    
   230  116  237 1    
   231  116  238 1    
   232  116  239 1    
   233  117  118 2    
   234  117  119 am   BACKBONE|DICT|INTERRES
   235  119  120 1    
   236  119  240 1    
   237  120  121 1    
   238  120  124 1    
   239  120  241 1    
   240  121  122 am   BACKBONE|DICT|INTERRES
   241  121  123 2    
   242  122  242 1    
   243  122  243 1    
   244  124  125 1    
   245  124  244 1    
   246  124  245 1    
   247  125  126 1    
   248  126  246 1    
   249  126  247 1    
@<TRIPOS>SUBSTRUCTURE
     1 UNK         1 GROUP             0       ****    0 ROOT    
