@<TRIPOS>MOLECULE
3R540
247   249    1
SMALL
USER_CHARGES


@<TRIPOS>ATOM
      1 CA          7.7096  -11.3398  -45.8767 C.3       0 UNK        -0.1800 
      2 C           6.3331  -11.9854  -45.8339 C.2       0 UNK         0.5000 
      3 O           5.5265  -11.6460  -44.9699 O.2       0 UNK        -0.5000 
      4 N           6.0510  -12.8969  -46.7746 N.am      1 UNK        -0.5000 
      5 CA          4.8053  -13.6727  -46.8922 C.3       1 UNK         0.1400 
      6 C6          4.9273  -14.7107  -48.0363 C.3       23 UNK        -0.0398 
      7 S7          3.7395  -16.0898  -47.9109 S.3       23 UNK        -0.2404 
      8 C8          3.0553  -16.0939  -49.5971 C.3       23 UNK        -0.0205 
      9 C9          1.9904  -17.1661  -49.7487 C.ar      23 UNK        -0.0193 
     10 C10         0.6384  -16.8352  -49.6320 C.ar      23 UNK        -0.1150 
     11 C11        -0.3456  -17.8234  -49.7213 C.ar      23 UNK        -0.0193 
     12 C12         0.0359  -19.1527  -49.9302 C.ar      23 UNK        -0.1150 
     13 C13         1.3843  -19.4942  -50.0706 C.ar      23 UNK        -0.0193 
     14 C14         2.3567  -18.4932  -49.9882 C.ar      23 UNK        -0.1150 
     15 C15         1.7842  -20.9483  -50.2899 C.3       23 UNK        -0.0205 
     16 S16         2.9220  -21.5877  -49.0115 S.3       23 UNK        -0.2404 
     17 C17         2.0558  -21.1734  -47.4573 C.3       23 UNK        -0.0398 
     18 CA          1.2438  -22.3376  -46.8465 C.3       11 UNK         0.1400 
     19 N           0.8419  -22.0324  -45.4733 N.am      11 UNK        -0.5000 
     20 C           0.2512  -22.8848  -44.6263 C.2       10 UNK         0.5000 
     21 O           0.0242  -24.0654  -44.8888 O.2       10 UNK        -0.5000 
     22 CA         -0.2082  -22.3034  -43.2765 C.3       10 UNK         0.1400 
     23 CB          0.9674  -22.2043  -42.2933 C.3       10 UNK        -0.1800 
     24 N          -0.8463  -20.9927  -43.4190 N.am      10 UNK        -0.5000 
     25 C          -1.9880  -20.7805  -44.0901 C.2       9 UNK         0.5000 
     26 O          -2.6463  -21.6777  -44.6163 O.2       9 UNK        -0.5000 
     27 CA         -2.4534  -19.3205  -44.2363 C.3       9 UNK         0.1400 
     28 CB         -3.1457  -18.8373  -42.9535 C.3       9 UNK        -0.1800 
     29 N          -1.3646  -18.4073  -44.5870 N.am      9 UNK        -0.5000 
     30 C          -0.6524  -18.4743  -45.7213 C.2       8 UNK         0.5000 
     31 O          -0.8626  -19.3006  -46.6072 O.2       8 UNK        -0.5000 
     32 CA          0.5266  -17.4941  -45.8654 C.3       8 UNK         0.1400 
     33 CB          0.0317  -16.0897  -46.2379 C.3       8 UNK        -0.1800 
     34 N           1.3423  -17.4216  -44.6529 N.am      8 UNK        -0.5000 
     35 C           1.9932  -18.4601  -44.1097 C.2       7 UNK         0.5000 
     36 O           2.0316  -19.5838  -44.6076 O.2       7 UNK        -0.5000 
     37 CA          2.6590  -18.2209  -42.7462 C.3       7 UNK         0.1400 
     38 CB          4.0346  -17.5573  -42.9119 C.3       7 UNK        -0.1800 
     39 N           1.8083  -17.4136  -41.8715 N.am      7 UNK        -0.5000 
     40 C           0.6718  -17.8563  -41.3134 C.2       6 UNK         0.5000 
     41 O           0.2487  -19.0049  -41.4463 O.2       6 UNK        -0.5000 
     42 CA         -0.1481  -16.8352  -40.5023 C.3       6 UNK         0.1400 
     43 CB          0.3874  -16.7289  -39.0668 C.3       6 UNK        -0.1800 
     44 N          -0.1603  -15.5060  -41.1152 N.am      6 UNK        -0.5000 
     45 C          -0.7542  -15.2170  -42.2818 C.2       5 UNK         0.5000 
     46 O          -1.4003  -16.0339  -42.9360 O.2       5 UNK        -0.5000 
     47 CA         -0.5568  -13.7915  -42.8337 C.3       5 UNK         0.1400 
     48 CB         -1.6645  -12.8581  -42.3243 C.3       5 UNK        -0.1800 
     49 N           0.7487  -13.2057  -42.5191 N.am      5 UNK        -0.5000 
     50 C           1.9372  -13.7285  -42.8458 C.2       4 UNK         0.5000 
     51 O           2.0681  -14.8003  -43.4393 O.2       4 UNK        -0.5000 
     52 CA          3.1735  -12.9136  -42.4207 C.3       4 UNK         0.1400 
     53 CB          4.4772  -13.7246  -42.5210 C.3       4 UNK        -0.1800 
     54 N           3.3123  -11.6983  -43.2187 N.am      4 UNK        -0.5000 
     55 C           2.5892  -10.5794  -43.0798 C.2       3 UNK         0.5000 
     56 O           1.7037  -10.4406  -42.2342 O.2       3 UNK        -0.5000 
     57 CA          2.9011   -9.4301  -44.0518 C.3       3 UNK         0.1400 
     58 CB          4.1362   -8.6455  -43.5817 C.3       3 UNK        -0.1800 
     59 N           3.1370   -9.9322  -45.4054 N.am      3 UNK        -0.5000 
     60 C           2.2122   -9.9743  -46.3745 C.2       2 UNK         0.5000 
     61 O           1.0639   -9.5490  -46.2421 O.2       2 UNK        -0.5000 
     62 CA          2.6337  -10.5872  -47.7268 C.3       2 UNK         0.1400 
     63 CB          3.0979   -9.4863  -48.6926 C.3       2 UNK        -0.1800 
     64 N           3.6921  -11.5919  -47.6091 N.am      2 UNK        -0.5000 
     65 C           3.5376  -12.7945  -47.0366 C.2       1 UNK         0.5000 
     66 O           2.4611  -13.1965  -46.5975 O.2       1 UNK        -0.5000 
     67 C           0.0311  -22.7250  -47.7172 C.2       11 UNK         0.5000 
     68 O           0.0786  -23.7543  -48.3891 O.2       11 UNK        -0.5000 
     69 N          -1.0477  -21.9304  -47.6573 N.am      12 UNK        -0.5000 
     70 CA         -2.3087  -22.1893  -48.3536 C.3       12 UNK         0.1400 
     71 CB         -3.2674  -21.0080  -48.1536 C.3       12 UNK        -0.1800 
     72 C          -2.9764  -23.5052  -47.9208 C.2       12 UNK         0.5000 
     73 O          -3.4655  -24.2406  -48.7780 O.2       12 UNK        -0.5000 
     74 N          -2.9541  -23.7966  -46.6129 N.am      13 UNK        -0.5000 
     75 CA         -3.4427  -25.0490  -46.0373 C.3       13 UNK         0.1400 
     76 CB         -3.4720  -24.9411  -44.5053 C.3       13 UNK        -0.1800 
     77 C          -2.6185  -26.2678  -46.4906 C.2       13 UNK         0.5000 
     78 O          -3.2038  -27.2838  -46.8656 O.2       13 UNK        -0.5000 
     79 N          -1.2841  -26.1350  -46.4872 N.am      14 UNK        -0.5000 
     80 CA         -0.3423  -27.1582  -46.9489 C.3       14 UNK         0.1400 
     81 CB          1.0888  -26.7468  -46.5710 C.3       14 UNK        -0.1800 
     82 C          -0.4494  -27.4356  -48.4605 C.2       14 UNK         0.5000 
     83 O          -0.3886  -28.5945  -48.8728 O.2       14 UNK        -0.5000 
     84 N          -0.6358  -26.3723  -49.2535 N.am      15 UNK        -0.5000 
     85 CA         -0.8572  -26.4284  -50.6999 C.3       15 UNK         0.1400 
     86 CB         -0.6189  -25.0284  -51.2891 C.3       15 UNK        -0.1800 
     87 C          -2.2617  -26.9328  -51.0895 C.2       15 UNK         0.5000 
     88 O          -2.4649  -27.2959  -52.2487 O.2       15 UNK        -0.5000 
     89 N          -3.1995  -26.9215  -50.1300 N.am      16 UNK        -0.5000 
     90 CA         -4.6309  -27.2044  -50.2694 C.3       16 UNK         0.1400 
     91 CB         -4.8741  -28.6801  -50.6469 C.3       16 UNK        -0.1800 
     92 C          -5.3267  -26.2059  -51.2181 C.2       16 UNK         0.5000 
     93 O          -6.1689  -26.5927  -52.0315 O.2       16 UNK        -0.5000 
     94 N          -4.9638  -24.9228  -51.0901 N.am      17 UNK        -0.5000 
     95 CA         -5.4313  -23.8009  -51.9065 C.3       17 UNK         0.1400 
     96 CB         -4.3780  -22.6789  -51.8486 C.3       17 UNK        -0.1800 
     97 C          -6.8424  -23.3197  -51.5023 C.2       17 UNK         0.5000 
     98 O          -7.0567  -22.1257  -51.2862 O.2       17 UNK        -0.5000 
     99 N          -7.7841  -24.2655  -51.3958 N.am      18 UNK        -0.5000 
    100 CA        -9.2013  -24.0131  -51.1321 C.3       18 UNK         0.1400 
    101 CB        -9.8565  -25.3090  -50.6308 C.3       18 UNK        -0.1800 
    102 C         -9.9320  -23.4790  -52.3786 C.2       18 UNK         0.5000 
    103 O        -10.8698  -22.6917  -52.2457 O.2       18 UNK        -0.5000 
    104 N         -9.4755  -23.9072  -53.5619 N.am      19 UNK        -0.5000 
    105 CA        -9.8907  -23.3905  -54.8620 C.3       19 UNK         0.1400 
    106 CB        -9.9020  -24.5496  -55.8713 C.3       19 UNK        -0.1800 
    107 C         -8.9155  -22.2919  -55.3171 C.2       19 UNK         0.5000 
    108 O         -7.7468  -22.3073  -54.9195 O.2       19 UNK        -0.5000 
    109 N         -9.4107  -21.3850  -56.1701 N.am      20 UNK        -0.5000 
    110 CA        -8.7055  -20.2243  -56.7246 C.3       20 UNK         0.1400 
    111 CB        -7.5793  -20.6735  -57.6849 C.3       20 UNK        -0.1800 
    112 C         -8.2536  -19.2443  -55.6180 C.2       20 UNK         0.5000 
    113 O         -9.0527  -18.9300  -54.7328 O.2       20 UNK        -0.5000 
    114 N         -7.0082  -18.7657  -55.6882 N.am      21 UNK        -0.5000 
    115 CA        -6.3837  -17.8593  -54.7317 C.3       21 UNK         0.1400 
    116 CB        -6.7957  -16.4079  -55.0419 C.3       21 UNK        -0.1800 
    117 C         -4.8598  -18.0346  -54.8075 C.2       21 UNK         0.5000 
    118 O         -4.3559  -18.6261  -55.7675 O.2       21 UNK        -0.5000 
    119 N         -4.1588  -17.5142  -53.7951 N.am      22 UNK        -0.5000 
    120 CA        -2.6910  -17.5031  -53.6950 C.3       22 UNK         0.1400 
    121 C         -2.0147  -16.6669  -54.8184 C.2       22 UNK         0.5000 
    122 N         -0.8789  -17.1144  -55.3361 N.am      22 UNK        -0.7600 
    123 O         -2.4871  -15.5953  -55.1922 O.2       22 UNK        -0.5000 
    124 C124       -2.2251  -16.9992  -52.3063 C.3       23 UNK        -0.0398 
    125 S125       -2.8536  -18.0314  -50.9390 S.3       23 UNK        -0.2404 
    126 C126       -1.8146  -17.4522  -49.5582 C.3       23 UNK        -0.0205 
    127 H127        8.3120  -11.7212  -46.7015 H         1 UNK         0.0600 
    128 H128        8.2425  -11.5355  -44.9462 H         1 UNK         0.0600 
    129 H129        7.6131  -10.2606  -45.9948 H         1 UNK         0.0600 
    130 H130        6.7606  -13.1124  -47.4607 H         1 UNK         0.3000 
    131 H131        4.6996  -14.2196  -45.9532 H         1 UNK         0.0600 
    132 H132        4.8471  -14.2225  -49.0092 H         1 UNK         0.0800 
    133 H133        5.9185  -15.1661  -48.0175 H         1 UNK         0.0800 
    134 H134        2.6377  -15.1112  -49.8226 H         1 UNK         0.0800 
    135 H135        3.8573  -16.2658  -50.3167 H         1 UNK         0.0800 
    136 H136        0.3554  -15.8079  -49.4500 H         1 UNK         0.1150 
    137 H137       -0.7226  -19.9209  -49.9798 H         1 UNK         0.1150 
    138 H138        3.4022  -18.7528  -50.0790 H         1 UNK         0.1150 
    139 H139        0.9030  -21.5903  -50.3302 H         1 UNK         0.0800 
    140 H140        2.2671  -21.0363  -51.2638 H         1 UNK         0.0800 
    141 H141        1.4343  -20.2868  -47.5767 H         1 UNK         0.0800 
    142 H142        2.8371  -20.8795  -46.7558 H         1 UNK         0.0800 
    143 H143        1.8980  -23.2105  -46.7940 H         1 UNK         0.0600 
    144 H144        1.0339  -21.0864  -45.1529 H         1 UNK         0.3000 
    145 H145       -0.9457  -22.9891  -42.8544 H         1 UNK         0.0600 
    146 H146        0.6326  -21.8649  -41.3129 H         1 UNK         0.0600 
    147 H147        1.4448  -23.1753  -42.1564 H         1 UNK         0.0600 
    148 H148        1.7302  -21.5091  -42.6443 H         1 UNK         0.0600 
    149 H149       -0.3821  -20.2072  -42.9750 H         1 UNK         0.3000 
    150 H150       -3.1843  -19.2875  -45.0467 H         1 UNK         0.0600 
    151 H151       -3.9667  -19.5006  -42.6785 H         1 UNK         0.0600 
    152 H152       -3.5643  -17.8393  -43.0846 H         1 UNK         0.0600 
    153 H153       -2.4547  -18.8016  -42.1110 H         1 UNK         0.0600 
    154 H154       -1.1687  -17.6602  -43.9265 H         1 UNK         0.3000 
    155 H155        1.1636  -17.8559  -46.6754 H         1 UNK         0.0600 
    156 H156       -0.5673  -15.6481  -45.4438 H         1 UNK         0.0600 
    157 H157        0.8678  -15.4204  -46.4405 H         1 UNK         0.0600 
    158 H158       -0.5902  -16.1169  -47.1318 H         1 UNK         0.0600 
    159 H159        1.4086  -16.5175  -44.1948 H         1 UNK         0.3000 
    160 H160        2.8106  -19.1921  -42.2704 H         1 UNK         0.0600 
    161 H161        3.9691  -16.6091  -43.4449 H         1 UNK         0.0600 
    162 H162        4.7062  -18.2010  -43.4811 H         1 UNK         0.0600 
    163 H163        4.5039  -17.3704  -41.9460 H         1 UNK         0.0600 
    164 H164        2.0448  -16.4352  -41.7894 H         1 UNK         0.3000 
    165 H165       -1.1774  -17.1972  -40.4560 H         1 UNK         0.0600 
    166 H166       -0.2334  -16.0673  -38.4625 H         1 UNK         0.0600 
    167 H167        0.3910  -17.7046  -38.5791 H         1 UNK         0.0600 
    168 H168        1.4086  -16.3463  -39.0434 H         1 UNK         0.0600 
    169 H169        0.3471  -14.7748  -40.6394 H         1 UNK         0.3000 
    170 H170       -0.6327  -13.8457  -43.9209 H         1 UNK         0.0600 
    171 H171       -2.6516  -13.2537  -42.5675 H         1 UNK         0.0600 
    172 H172       -1.6180  -12.7316  -41.2420 H         1 UNK         0.0600 
    173 H173       -1.5893  -11.8711  -42.7813 H         1 UNK         0.0600 
    174 H174        0.7460  -12.2869  -42.0898 H         1 UNK         0.3000 
    175 H175        3.0408  -12.6321  -41.3741 H         1 UNK         0.0600 
    176 H176        4.6767  -14.0447  -43.5438 H         1 UNK         0.0600 
    177 H177        5.3324  -13.1386  -42.1840 H         1 UNK         0.0600 
    178 H178        4.4303  -14.6182  -41.8978 H         1 UNK         0.0600 
    179 H179        4.0425  -11.7168  -43.9271 H         1 UNK         0.3000 
    180 H180        2.0497   -8.7461  -44.0465 H         1 UNK         0.0600 
    181 H181        5.0304   -9.2697  -43.5612 H         1 UNK         0.0600 
    182 H182        3.9878   -8.2509  -42.5757 H         1 UNK         0.0600 
    183 H183        4.3355   -7.7977  -44.2373 H         1 UNK         0.0600 
    184 H184        4.0406  -10.3589  -45.5727 H         1 UNK         0.3000 
    185 H185        1.7538  -11.0699  -48.1576 H         1 UNK         0.0600 
    186 H186        2.3216   -8.7317  -48.8268 H         1 UNK         0.0600 
    187 H187        3.9898   -8.9776  -48.3245 H         1 UNK         0.0600 
    188 H188        3.3253   -9.8948  -49.6774 H         1 UNK         0.0600 
    189 H189        4.6102  -11.3283  -47.9360 H         1 UNK         0.3000 
    190 H190       -0.9993  -21.0707  -47.1137 H         1 UNK         0.3000 
    191 H191       -2.0854  -22.2684  -49.4194 H         1 UNK         0.0600 
    192 H192       -3.4735  -20.8289  -47.0985 H         1 UNK         0.0600 
    193 H193       -4.2223  -21.1844  -48.6499 H         1 UNK         0.0600 
    194 H194       -2.8501  -20.0944  -48.5717 H         1 UNK         0.0600 
    195 H195       -2.5849  -23.1079  -45.9637 H         1 UNK         0.3000 
    196 H196       -4.4680  -25.1954  -46.3836 H         1 UNK         0.0600 
    197 H197       -3.8543  -25.8585  -44.0563 H         1 UNK         0.0600 
    198 H198       -4.1188  -24.1257  -44.1810 H         1 UNK         0.0600 
    199 H199       -2.4790  -24.7623  -44.0930 H         1 UNK         0.0600 
    200 H200       -0.8782  -25.2772  -46.1231 H         1 UNK         0.3000 
    201 H201       -0.5766  -28.0871  -46.4249 H         1 UNK         0.0600 
    202 H202        1.1928  -26.6302  -45.4921 H         1 UNK         0.0600 
    203 H203        1.3733  -25.8030  -47.0372 H         1 UNK         0.0600 
    204 H204        1.8097  -27.5013  -46.8881 H         1 UNK         0.0600 
    205 H205       -0.5922  -25.4430  -48.8403 H         1 UNK         0.3000 
    206 H206       -0.1273  -27.1137  -51.1354 H         1 UNK         0.0600 
    207 H207        0.3909  -24.6767  -51.0763 H         1 UNK         0.0600 
    208 H208       -0.7404  -25.0312  -52.3730 H         1 UNK         0.0600 
    209 H209       -1.3199  -24.2987  -50.8817 H         1 UNK         0.0600 
    210 H210       -2.9200  -26.5738  -49.2222 H         1 UNK         0.3000 
    211 H211       -5.0679  -27.0410  -49.2832 H         1 UNK         0.0600 
    212 H212       -4.5193  -28.9080  -51.6522 H         1 UNK         0.0600 
    213 H213       -5.9375  -28.9196  -50.6148 H         1 UNK         0.0600 
    214 H214       -4.3694  -29.3514  -49.9520 H         1 UNK         0.0600 
    215 H215       -4.3233  -24.6870  -50.3341 H         1 UNK         0.3000 
    216 H216       -5.4978  -24.1341  -52.9443 H         1 UNK         0.0600 
    217 H217       -4.2764  -22.2773  -50.8407 H         1 UNK         0.0600 
    218 H218       -4.6483  -21.8521  -52.5069 H         1 UNK         0.0600 
    219 H219       -3.3992  -23.0387  -52.1660 H         1 UNK         0.0600 
    220 H220       -7.5082  -25.2240  -51.5857 H         1 UNK         0.3000 
    221 H221       -9.2842  -23.2605  -50.3451 H         1 UNK         0.0600 
    222 H222       -9.3807  -25.6624  -49.7158 H         1 UNK         0.0600 
    223 H223       -9.7921  -26.1066  -51.3721 H         1 UNK         0.0600 
    224 H224      -10.9126  -25.1513  -50.4079 H         1 UNK         0.0600 
    225 H225       -8.6602  -24.5020  -53.5656 H         1 UNK         0.3000 
    226 H226      -10.8972  -22.9715  -54.7974 H         1 UNK         0.0600 
    227 H227      -10.5873  -25.3375  -55.5581 H         1 UNK         0.0600 
    228 H228      -10.2269  -24.2093  -56.8553 H         1 UNK         0.0600 
    229 H229       -8.9121  -24.9931  -55.9878 H         1 UNK         0.0600 
    230 H230      -10.3876  -21.4504  -56.4199 H         1 UNK         0.3000 
    231 H231       -9.4404  -19.6804  -57.3196 H         1 UNK         0.0600 
    232 H232       -6.7653  -21.1746  -57.1600 H         1 UNK         0.0600 
    233 H233       -7.1562  -19.8243  -58.2228 H         1 UNK         0.0600 
    234 H234       -7.9615  -21.3650  -58.4360 H         1 UNK         0.0600 
    235 H235       -6.3768  -19.1056  -56.4034 H         1 UNK         0.3000 
    236 H236       -6.7043  -18.1251  -53.7220 H         1 UNK         0.0600 
    237 H237       -6.3384  -15.7091  -54.3406 H         1 UNK         0.0600 
    238 H238       -6.4904  -16.1120  -56.0463 H         1 UNK         0.0600 
    239 H239       -7.8753  -16.2770  -54.9682 H         1 UNK         0.0600 
    240 H240       -4.6494  -17.0424  -53.0501 H         1 UNK         0.3000 
    241 H241       -2.3586  -18.5374  -53.8053 H         1 UNK         0.0600 
    242 H242       -0.4688  -17.9870  -55.0404 H         1 UNK         0.3800 
    243 H243       -0.4225  -16.5740  -56.0548 H         1 UNK         0.3800 
    244 H244       -2.5448  -15.9688  -52.1411 H         1 UNK         0.0800 
    245 H245       -1.1347  -16.9942  -52.2593 H         1 UNK         0.0800 
    246 H246       -1.9347  -16.3723  -49.4603 H         1 UNK         0.0800 
    247 H247       -2.1826  -17.8823  -48.6268 H         1 UNK         0.0800 
@<TRIPOS>BOND
     1    1    2 1    
     2    1  127 1    
     3    1  128 1    
     4    1  129 1    
     5    2    3 2    
     6    2    4 am   BACKBONE|DICT|INTERRES
     7    4    5 1    
     8    4  130 1    
     9    5    6 1    
    10    5   65 1    
    11    5  131 1    
    12    6    7 1    
    13    6  132 1    
    14    6  133 1    
    15    7    8 1    
    16    8    9 1    
    17    8  134 1    
    18    8  135 1    
    19    9   10 ar   
    20    9   14 ar   
    21   10   11 ar   
    22   10  136 1    
    23   11   12 ar   
    24   11  126 1    
    25   12   13 ar   
    26   12  137 1    
    27   13   14 ar   
    28   13   15 1    
    29   14  138 1    
    30   15   16 1    
    31   15  139 1    
    32   15  140 1    
    33   16   17 1    
    34   17   18 1    
    35   17  141 1    
    36   17  142 1    
    37   18   19 1    
    38   18   67 1    
    39   18  143 1    
    40   19   20 am   BACKBONE|DICT|INTERRES
    41   19  144 1    
    42   20   21 2    
    43   20   22 1    
    44   22   23 1    
    45   22   24 1    
    46   22  145 1    
    47   23  146 1    
    48   23  147 1    
    49   23  148 1    
    50   24   25 am   BACKBONE|DICT|INTERRES
    51   24  149 1    
    52   25   26 2    
    53   25   27 1    
    54   27   28 1    
    55   27   29 1    
    56   27  150 1    
    57   28  151 1    
    58   28  152 1    
    59   28  153 1    
    60   29   30 am   BACKBONE|DICT|INTERRES
    61   29  154 1    
    62   30   31 2    
    63   30   32 1    
    64   32   33 1    
    65   32   34 1    
    66   32  155 1    
    67   33  156 1    
    68   33  157 1    
    69   33  158 1    
    70   34   35 am   BACKBONE|DICT|INTERRES
    71   34  159 1    
    72   35   36 2    
    73   35   37 1    
    74   37   38 1    
    75   37   39 1    
    76   37  160 1    
    77   38  161 1    
    78   38  162 1    
    79   38  163 1    
    80   39   40 am   BACKBONE|DICT|INTERRES
    81   39  164 1    
    82   40   41 2    
    83   40   42 1    
    84   42   43 1    
    85   42   44 1    
    86   42  165 1    
    87   43  166 1    
    88   43  167 1    
    89   43  168 1    
    90   44   45 am   BACKBONE|DICT|INTERRES
    91   44  169 1    
    92   45   46 2    
    93   45   47 1    
    94   47   48 1    
    95   47   49 1    
    96   47  170 1    
    97   48  171 1    
    98   48  172 1    
    99   48  173 1    
   100   49   50 am   BACKBONE|DICT|INTERRES
   101   49  174 1    
   102   50   51 2    
   103   50   52 1    
   104   52   53 1    
   105   52   54 1    
   106   52  175 1    
   107   53  176 1    
   108   53  177 1    
   109   53  178 1    
   110   54   55 am   BACKBONE|DICT|INTERRES
   111   54  179 1    
   112   55   56 2    
   113   55   57 1    
   114   57   58 1    
   115   57   59 1    
   116   57  180 1    
   117   58  181 1    
   118   58  182 1    
   119   58  183 1    
   120   59   60 am   BACKBONE|DICT|INTERRES
   121   59  184 1    
   122   60   61 2    
   123   60   62 1    
   124   62   63 1    
   125   62   64 1    
   126   62  185 1    
   127   63  186 1    
   128   63  187 1    
   129   63  188 1    
   130   64   65 am   BACKBONE|DICT|INTERRES
   131   64  189 1    
   132   65   66 2    
   133   67   68 2    
   134   67   69 am   BACKBONE|DICT|INTERRES
   135   69   70 1    
   136   69  190 1    
   137   70   71 1    
   138   70   72 1    
   139   70  191 1    
   140   71  192 1    
   141   71  193 1    
   142   71  194 1    
   143   72   73 2    
   144   72   74 am   BACKBONE|DICT|INTERRES
   145   74   75 1    
   146   74  195 1    
   147   75   76 1    
   148   75   77 1    
   149   75  196 1    
   150   76  197 1    
   151   76  198 1    
   152   76  199 1    
   153   77   78 2    
   154   77   79 am   BACKBONE|DICT|INTERRES
   155   79   80 1    
   156   79  200 1    
   157   80   81 1    
   158   80   82 1    
   159   80  201 1    
   160   81  202 1    
   161   81  203 1    
   162   81  204 1    
   163   82   83 2    
   164   82   84 am   BACKBONE|DICT|INTERRES
   165   84   85 1    
   166   84  205 1    
   167   85   86 1    
   168   85   87 1    
   169   85  206 1    
   170   86  207 1    
   171   86  208 1    
   172   86  209 1    
   173   87   88 2    
   174   87   89 am   BACKBONE|DICT|INTERRES
   175   89   90 1    
   176   89  210 1    
   177   90   91 1    
   178   90   92 1    
   179   90  211 1    
   180   91  212 1    
   181   91  213 1    
   182   91  214 1    
   183   92   93 2    
   184   92   94 am   BACKBONE|DICT|INTERRES
   185   94   95 1    
   186   94  215 1    
   187   95   96 1    
   188   95   97 1    
   189   95  216 1    
   190   96  217 1    
   191   96  218 1    
   192   96  219 1    
   193   97   98 2    
   194   97   99 am   BACKBONE|DICT|INTERRES
   195   99  100 1    
   196   99  220 1    
   197  100  101 1    
   198  100  102 1    
   199  100  221 1    
   200  101  222 1    
   201  101  223 1    
   202  101  224 1    
   203  102  103 2    
   204  102  104 am   BACKBONE|DICT|INTERRES
   205  104  105 1    
   206  104  225 1    
   207  105  106 1    
   208  105  107 1    
   209  105  226 1    
   210  106  227 1    
   211  106  228 1    
   212  106  229 1    
   213  107  108 2    
   214  107  109 am   BACKBONE|DICT|INTERRES
   215  109  110 1    
   216  109  230 1    
   217  110  111 1    
   218  110  112 1    
   219  110  231 1    
   220  111  232 1    
   221  111  233 1    
   222  111  234 1    
   223  112  113 2    
   224  112  114 am   BACKBONE|DICT|INTERRES
   225  114  115 1    
   226  114  235 1    
   227  115  116 1    
   228  115  117 1    
   229  115  236 1    
   230  116  237 1    
   231  116  238 1    
   232  116  239 1    
   233  117  118 2    
   234  117  119 am   BACKBONE|DICT|INTERRES
   235  119  120 1    
   236  119  240 1    
   237  120  121 1    
   238  120  124 1    
   239  120  241 1    
   240  121  122 am   BACKBONE|DICT|INTERRES
   241  121  123 2    
   242  122  242 1    
   243  122  243 1    
   244  124  125 1    
   245  124  244 1    
   246  124  245 1    
   247  125  126 1    
   248  126  246 1    
   249  126  247 1    
@<TRIPOS>SUBSTRUCTURE
     1 UNK         1 GROUP             0       ****    0 ROOT    
