@<TRIPOS>MOLECULE
3R540
247   249    1
SMALL
USER_CHARGES


@<TRIPOS>ATOM
      1 CA         -3.4939  -11.8457  -43.3691 C.3       0 UNK        -0.1800 
      2 C          -3.9133  -13.2520  -42.9454 C.2       0 UNK         0.5000 
      3 O          -4.6608  -13.3944  -41.9803 O.2       0 UNK        -0.5000 
      4 N          -3.4676  -14.3169  -43.6265 N.am      1 UNK        -0.5000 
      5 CA         -2.5428  -14.3199  -44.7688 C.3       1 UNK         0.1400 
      6 C6         -2.7383  -15.5692  -45.6635 C.3       23 UNK        -0.0398 
      7 S7         -2.6156  -17.1638  -44.7759 S.3       23 UNK        -0.2404 
      8 C8         -3.5515  -18.2576  -45.8919 C.3       23 UNK        -0.0205 
      9 C9         -2.7642  -18.5750  -47.1530 C.ar      23 UNK        -0.0193 
     10 C10        -2.9922  -17.8614  -48.3337 C.ar      23 UNK        -0.1150 
     11 C11        -2.2507  -18.1426  -49.4853 C.ar      23 UNK        -0.0193 
     12 C12        -1.2736  -19.1417  -49.4478 C.ar      23 UNK        -0.1150 
     13 C13        -1.0525  -19.8789  -48.2813 C.ar      23 UNK        -0.0193 
     14 C14        -1.8041  -19.5897  -47.1376 C.ar      23 UNK        -0.1150 
     15 C15        -0.0562  -21.0298  -48.2883 C.3       23 UNK        -0.0205 
     16 S16         1.0636  -21.0202  -46.8476 S.3       23 UNK        -0.2404 
     17 C17         1.3663  -22.8099  -46.6419 C.3       23 UNK        -0.0398 
     18 CA          0.5426  -23.4969  -45.5198 C.3       11 UNK         0.1400 
     19 N           0.9121  -23.0260  -44.1789 N.am      11 UNK        -0.5000 
     20 C           1.2296  -23.8378  -43.1583 C.2       10 UNK         0.5000 
     21 O           1.2508  -25.0662  -43.2437 O.2       10 UNK        -0.5000 
     22 CA          1.5809  -23.1842  -41.8070 C.3       10 UNK         0.1400 
     23 CB          3.0873  -22.8925  -41.7297 C.3       10 UNK        -0.1800 
     24 N           0.8451  -21.9499  -41.5410 N.am      10 UNK        -0.5000 
     25 C          -0.4799  -21.8600  -41.3598 C.2       9 UNK         0.5000 
     26 O          -1.2352  -22.8314  -41.3502 O.2       9 UNK        -0.5000 
     27 CA         -1.0637  -20.4408  -41.1930 C.3       9 UNK         0.1400 
     28 CB         -1.2604  -20.1161  -39.7048 C.3       9 UNK        -0.1800 
     29 N          -0.2569  -19.3802  -41.8075 N.am      9 UNK        -0.5000 
     30 C           0.0948  -19.3130  -43.0990 C.2       8 UNK         0.5000 
     31 O          -0.2265  -20.1544  -43.9412 O.2       8 UNK        -0.5000 
     32 CA          1.0180  -18.1491  -43.4796 C.3       8 UNK         0.1400 
     33 CB          2.4059  -18.3281  -42.8266 C.3       8 UNK        -0.1800 
     34 N           1.1461  -18.0671  -44.9315 N.am      8 UNK        -0.5000 
     35 C           1.6933  -17.0447  -45.5962 C.2       7 UNK         0.5000 
     36 O           2.1408  -16.0326  -45.0507 O.2       7 UNK        -0.5000 
     37 CA          1.7484  -17.1547  -47.1266 C.3       7 UNK         0.1400 
     38 CB          0.4861  -16.5444  -47.7471 C.3       7 UNK        -0.1800 
     39 N           2.9040  -16.3965  -47.5880 N.am      7 UNK        -0.5000 
     40 C           4.0234  -16.9062  -48.1112 C.2       6 UNK         0.5000 
     41 O           4.1587  -18.0846  -48.4412 O.2       6 UNK        -0.5000 
     42 CA          5.2044  -15.9279  -48.2735 C.3       6 UNK         0.1400 
     43 CB          5.2476  -15.3664  -49.7027 C.3       6 UNK        -0.1800 
     44 N           5.1437  -14.8107  -47.3275 N.am      6 UNK        -0.5000 
     45 C           5.3625  -14.8949  -46.0093 C.2       5 UNK         0.5000 
     46 O           5.7457  -15.9241  -45.4522 O.2       5 UNK        -0.5000 
     47 CA          5.0930  -13.6337  -45.1619 C.3       5 UNK         0.1400 
     48 CB          6.3305  -12.7180  -45.1172 C.3       5 UNK        -0.1800 
     49 N           3.8833  -12.8822  -45.5301 N.am      5 UNK        -0.5000 
     50 C           3.6127  -12.1953  -46.6516 C.2       4 UNK         0.5000 
     51 O           4.3887  -12.1103  -47.6040 O.2       4 UNK        -0.5000 
     52 CA          2.2330  -11.5155  -46.7553 C.3       4 UNK         0.1400 
     53 CB          1.3321  -12.2931  -47.7265 C.3       4 UNK        -0.1800 
     54 N           1.5530  -11.3950  -45.4642 N.am      4 UNK        -0.5000 
     55 C           1.8386  -10.4580  -44.5468 C.2       3 UNK         0.5000 
     56 O           2.6663   -9.5639  -44.7265 O.2       3 UNK        -0.5000 
     57 CA          1.0933  -10.5270  -43.1963 C.3       3 UNK         0.1400 
     58 CB         -0.0763   -9.5307  -43.1793 C.3       3 UNK        -0.1800 
     59 N           0.5826  -11.8580  -42.8626 N.am      3 UNK        -0.5000 
     60 C           1.3302  -12.9531  -42.6704 C.2       2 UNK         0.5000 
     61 O           2.5610  -12.9517  -42.6995 O.2       2 UNK        -0.5000 
     62 CA          0.5776  -14.2806  -42.4556 C.3       2 UNK         0.1400 
     63 CB          0.4657  -14.6031  -40.9584 C.3       2 UNK        -0.1800 
     64 N          -0.7611  -14.3461  -43.0578 N.am      2 UNK        -0.5000 
     65 C          -1.0654  -14.1453  -44.3508 C.2       1 UNK         0.5000 
     66 O          -0.2458  -13.7890  -45.1962 O.2       1 UNK        -0.5000 
     67 C          -0.9795  -23.4157  -45.7629 C.2       11 UNK         0.5000 
     68 O          -1.4481  -23.9592  -46.7613 O.2       11 UNK        -0.5000 
     69 N          -1.7315  -22.7714  -44.8565 N.am      12 UNK        -0.5000 
     70 CA         -3.1770  -22.5318  -44.9520 C.3       12 UNK         0.1400 
     71 CB         -3.6286  -21.6958  -43.7477 C.3       12 UNK        -0.1800 
     72 C          -4.0445  -23.8013  -45.0815 C.2       12 UNK         0.5000 
     73 O          -5.1477  -23.7283  -45.6228 O.2       12 UNK        -0.5000 
     74 N          -3.5355  -24.9352  -44.5846 N.am      13 UNK        -0.5000 
     75 CA         -4.1761  -26.2470  -44.6726 C.3       13 UNK         0.1400 
     76 CB         -3.7124  -27.0906  -43.4739 C.3       13 UNK        -0.1800 
     77 C          -3.8825  -26.9881  -45.9946 C.2       13 UNK         0.5000 
     78 O          -4.5430  -27.9910  -46.2708 O.2       13 UNK        -0.5000 
     79 N          -2.8925  -26.5249  -46.7694 N.am      14 UNK        -0.5000 
     80 CA         -2.4448  -27.1532  -48.0112 C.3       14 UNK         0.1400 
     81 CB         -0.9195  -26.9808  -48.1251 C.3       14 UNK        -0.1800 
     82 C          -3.1439  -26.5425  -49.2374 C.2       14 UNK         0.5000 
     83 O          -3.7405  -25.4664  -49.1534 O.2       14 UNK        -0.5000 
     84 N          -2.9955  -27.2175  -50.3864 N.am      15 UNK        -0.5000 
     85 CA         -3.4940  -26.7842  -51.6986 C.3       15 UNK         0.1400 
     86 CB         -3.2574  -27.9072  -52.7194 C.3       15 UNK        -0.1800 
     87 C          -2.8776  -25.4612  -52.2000 C.2       15 UNK         0.5000 
     88 O          -3.4723  -24.7976  -53.0478 O.2       15 UNK        -0.5000 
     89 N          -1.7267  -25.0727  -51.6327 N.am      16 UNK        -0.5000 
     90 CA         -1.0654  -23.7818  -51.8328 C.3       16 UNK         0.1400 
     91 CB          0.2687  -23.7926  -51.0694 C.3       16 UNK        -0.1800 
     92 C          -1.9131  -22.5662  -51.4009 C.2       16 UNK         0.5000 
     93 O          -1.6430  -21.4605  -51.8651 O.2       16 UNK        -0.5000 
     94 N          -2.9083  -22.7900  -50.5316 N.am      17 UNK        -0.5000 
     95 CA         -3.8321  -21.7745  -50.0316 C.3       17 UNK         0.1400 
     96 CB         -4.1437  -22.0964  -48.5661 C.3       17 UNK        -0.1800 
     97 C          -5.1244  -21.6563  -50.8629 C.2       17 UNK         0.5000 
     98 O          -5.9962  -20.8649  -50.4984 O.2       17 UNK        -0.5000 
     99 N          -5.2556  -22.4332  -51.9491 N.am      18 UNK        -0.5000 
    100 CA        -6.3512  -22.3054  -52.9114 C.3       18 UNK         0.1400 
    101 CB        -6.3526  -23.5263  -53.8433 C.3       18 UNK        -0.1800 
    102 C         -6.2096  -21.0133  -53.7350 C.2       18 UNK         0.5000 
    103 O         -5.0869  -20.5918  -54.0168 O.2       18 UNK        -0.5000 
    104 N         -7.3394  -20.4329  -54.1607 N.am      19 UNK        -0.5000 
    105 CA        -7.3945  -19.1831  -54.9309 C.3       19 UNK         0.1400 
    106 CB        -8.8617  -18.8074  -55.1853 C.3       19 UNK        -0.1800 
    107 C         -6.6097  -19.2276  -56.2576 C.2       19 UNK         0.5000 
    108 O         -6.0060  -18.2261  -56.6432 O.2       19 UNK        -0.5000 
    109 N         -6.5882  -20.4035  -56.8995 N.am      20 UNK        -0.5000 
    110 CA        -5.8160  -20.6812  -58.1114 C.3       20 UNK         0.1400 
    111 CB        -6.2809  -22.0228  -58.6986 C.3       20 UNK        -0.1800 
    112 C         -4.2902  -20.6940  -57.8831 C.2       20 UNK         0.5000 
    113 O         -3.5424  -20.4371  -58.8275 O.2       20 UNK        -0.5000 
    114 N         -3.8554  -20.9907  -56.6507 N.am      21 UNK        -0.5000 
    115 CA        -2.4535  -20.9667  -56.2400 C.3       21 UNK         0.1400 
    116 CB        -2.2112  -22.0489  -55.1766 C.3       21 UNK        -0.1800 
    117 C         -2.0505  -19.5740  -55.7250 C.2       21 UNK         0.5000 
    118 O         -0.9622  -19.1032  -56.0592 O.2       21 UNK        -0.5000 
    119 N         -2.9322  -18.9328  -54.9446 N.am      22 UNK        -0.5000 
    120 CA        -2.7475  -17.5646  -54.4322 C.3       22 UNK         0.1400 
    121 C         -2.7849  -16.4706  -55.5366 C.2       22 UNK         0.5000 
    122 N         -3.6175  -16.5982  -56.5626 N.am      22 UNK        -0.7600 
    123 O         -2.0463  -15.4925  -55.4611 O.2       22 UNK        -0.5000 
    124 C124       -3.7484  -17.2091  -53.3039 C.3       23 UNK        -0.0398 
    125 S125       -3.6326  -18.3165  -51.8612 S.3       23 UNK        -0.2404 
    126 C126       -2.5115  -17.3823  -50.7757 C.3       23 UNK        -0.0205 
    127 H127       -3.8813  -11.6112  -44.3605 H         1 UNK         0.0600 
    128 H128       -2.4108  -11.7404  -43.3808 H         1 UNK         0.0600 
    129 H129       -3.8892  -11.1041  -42.6747 H         1 UNK         0.0600 
    130 H130       -3.7719  -15.2359  -43.3358 H         1 UNK         0.3000 
    131 H131       -2.7777  -13.4583  -45.3961 H         1 UNK         0.0600 
    132 H132       -3.7237  -15.5119  -46.1274 H         1 UNK         0.0800 
    133 H133       -2.0285  -15.5672  -46.4915 H         1 UNK         0.0800 
    134 H134       -3.7821  -19.1842  -45.3666 H         1 UNK         0.0800 
    135 H135       -4.5130  -17.8053  -46.1388 H         1 UNK         0.0800 
    136 H136       -3.7456  -17.0869  -48.3568 H         1 UNK         0.1150 
    137 H137       -0.7146  -19.3708  -50.3443 H         1 UNK         0.1150 
    138 H138       -1.6406  -20.1535  -46.2302 H         1 UNK         0.1150 
    139 H139       -0.6296  -21.9558  -48.3206 H         1 UNK         0.0800 
    140 H140        0.5490  -21.0136  -49.1959 H         1 UNK         0.0800 
    141 H141        2.4290  -22.9410  -46.4348 H         1 UNK         0.0800 
    142 H142        1.1989  -23.3171  -47.5936 H         1 UNK         0.0800 
    143 H143        0.7757  -24.5606  -45.6004 H         1 UNK         0.0600 
    144 H144        0.8823  -22.0230  -44.0363 H         1 UNK         0.3000 
    145 H145        1.3302  -23.8988  -41.0201 H         1 UNK         0.0600 
    146 H146        3.3656  -22.5092  -40.7478 H         1 UNK         0.0600 
    147 H147        3.6701  -23.7988  -41.9000 H         1 UNK         0.0600 
    148 H148        3.3944  -22.1594  -42.4768 H         1 UNK         0.0600 
    149 H149        1.3842  -21.0976  -41.5254 H         1 UNK         0.3000 
    150 H150       -2.0430  -20.4281  -41.6709 H         1 UNK         0.0600 
    151 H151       -0.3096  -20.0809  -39.1713 H         1 UNK         0.0600 
    152 H152       -1.8817  -20.8698  -39.2189 H         1 UNK         0.0600 
    153 H153       -1.7570  -19.1547  -39.5722 H         1 UNK         0.0600 
    154 H154        0.0611  -18.6549  -41.1816 H         1 UNK         0.3000 
    155 H155        0.5493  -17.2332  -43.1193 H         1 UNK         0.0600 
    156 H156        2.9045  -19.2267  -43.1924 H         1 UNK         0.0600 
    157 H157        2.3325  -18.4109  -41.7419 H         1 UNK         0.0600 
    158 H158        3.0603  -17.4806  -43.0298 H         1 UNK         0.0600 
    159 H159        0.7616  -18.8637  -45.4280 H         1 UNK         0.3000 
    160 H160        1.8246  -18.2041  -47.4154 H         1 UNK         0.0600 
    161 H161        0.5000  -16.6219  -48.8342 H         1 UNK         0.0600 
    162 H162        0.3687  -15.4940  -47.4825 H         1 UNK         0.0600 
    163 H163       -0.3993  -17.0663  -47.3917 H         1 UNK         0.0600 
    164 H164        2.9370  -15.4411  -47.2628 H         1 UNK         0.3000 
    165 H165        6.1264  -16.4844  -48.0927 H         1 UNK         0.0600 
    166 H166        5.3136  -16.1705  -50.4368 H         1 UNK         0.0600 
    167 H167        4.3549  -14.7830  -49.9323 H         1 UNK         0.0600 
    168 H168        6.1154  -14.7225  -49.8472 H         1 UNK         0.0600 
    169 H169        4.8710  -13.9025  -47.6949 H         1 UNK         0.3000 
    170 H170        4.9110  -13.9828  -44.1441 H         1 UNK         0.0600 
    171 H171        6.1633  -11.8626  -44.4626 H         1 UNK         0.0600 
    172 H172        6.5953  -12.3390  -46.1046 H         1 UNK         0.0600 
    173 H173        7.1977  -13.2568  -44.7335 H         1 UNK         0.0600 
    174 H174        3.1624  -12.8988  -44.8183 H         1 UNK         0.3000 
    175 H175        2.3881  -10.5158  -47.1665 H         1 UNK         0.0600 
    176 H176        0.3494  -11.8297  -47.8144 H         1 UNK         0.0600 
    177 H177        1.7684  -12.3245  -48.7256 H         1 UNK         0.0600 
    178 H178        1.1904  -13.3227  -47.4002 H         1 UNK         0.0600 
    179 H179        0.8721  -12.1167  -45.2471 H         1 UNK         0.3000 
    180 H180        1.8023  -10.2388  -42.4175 H         1 UNK         0.0600 
    181 H181       -0.8225   -9.7734  -43.9370 H         1 UNK         0.0600 
    182 H182        0.2723   -8.5161  -43.3767 H         1 UNK         0.0600 
    183 H183       -0.5726   -9.5185  -42.2088 H         1 UNK         0.0600 
    184 H184       -0.4192  -11.9582  -42.8174 H         1 UNK         0.3000 
    185 H185        1.1858  -15.0553  -42.9185 H         1 UNK         0.0600 
    186 H186        1.4463  -14.5895  -40.4806 H         1 UNK         0.0600 
    187 H187       -0.1637  -13.8802  -40.4380 H         1 UNK         0.0600 
    188 H188        0.0429  -15.5951  -40.7983 H         1 UNK         0.0600 
    189 H189       -1.5134  -14.6173  -42.4413 H         1 UNK         0.3000 
    190 H190       -1.2582  -22.3323  -44.0797 H         1 UNK         0.3000 
    191 H191       -3.3470  -21.9278  -45.8412 H         1 UNK         0.0600 
    192 H192       -3.0832  -20.7538  -43.7012 H         1 UNK         0.0600 
    193 H193       -4.6893  -21.4512  -43.8166 H         1 UNK         0.0600 
    194 H194       -3.4752  -22.2280  -42.8087 H         1 UNK         0.0600 
    195 H195       -2.6254  -24.9000  -44.1493 H         1 UNK         0.3000 
    196 H196       -5.2589  -26.1243  -44.6004 H         1 UNK         0.0600 
    197 H197       -4.1934  -28.0696  -43.4734 H         1 UNK         0.0600 
    198 H198       -3.9645  -26.6068  -42.5300 H         1 UNK         0.0600 
    199 H199       -2.6342  -27.2545  -43.4904 H         1 UNK         0.0600 
    200 H200       -2.4671  -25.6288  -46.5536 H         1 UNK         0.3000 
    201 H201       -2.6669  -28.2221  -47.9850 H         1 UNK         0.0600 
    202 H202       -0.5206  -27.5442  -48.9692 H         1 UNK         0.0600 
    203 H203       -0.6371  -25.9376  -48.2687 H         1 UNK         0.0600 
    204 H204       -0.4134  -27.3431  -47.2301 H         1 UNK         0.0600 
    205 H205       -2.4857  -28.0893  -50.3740 H         1 UNK         0.3000 
    206 H206       -4.5702  -26.6231  -51.6087 H         1 UNK         0.0600 
    207 H207       -3.7634  -28.8256  -52.4211 H         1 UNK         0.0600 
    208 H208       -3.6434  -27.6304  -53.7015 H         1 UNK         0.0600 
    209 H209       -2.1957  -28.1290  -52.8347 H         1 UNK         0.0600 
    210 H210       -1.3111  -25.6870  -50.9493 H         1 UNK         0.3000 
    211 H211       -0.8561  -23.6754  -52.8988 H         1 UNK         0.0600 
    212 H212        0.1160  -23.9220  -49.9970 H         1 UNK         0.0600 
    213 H213        0.8093  -22.8560  -51.2129 H         1 UNK         0.0600 
    214 H214        0.9175  -24.5968  -51.4169 H         1 UNK         0.0600 
    215 H215       -3.0627  -23.7318  -50.1883 H         1 UNK         0.3000 
    216 H216       -3.3491  -20.7988  -50.0626 H         1 UNK         0.0600 
    217 H217       -4.6884  -21.2810  -48.0889 H         1 UNK         0.0600 
    218 H218       -3.2188  -22.2448  -48.0123 H         1 UNK         0.0600 
    219 H219       -4.7423  -23.0025  -48.4665 H         1 UNK         0.0600 
    220 H220       -4.4919  -23.0441  -52.2114 H         1 UNK         0.3000 
    221 H221       -7.2956  -22.2797  -52.3640 H         1 UNK         0.0600 
    222 H222       -5.4477  -23.5688  -54.4512 H         1 UNK         0.0600 
    223 H223       -6.4196  -24.4558  -53.2777 H         1 UNK         0.0600 
    224 H224       -7.2034  -23.4981  -54.5250 H         1 UNK         0.0600 
    225 H225       -8.2269  -20.8436  -53.9085 H         1 UNK         0.3000 
    226 H226       -6.9454  -18.4013  -54.3152 H         1 UNK         0.0600 
    227 H227       -8.9346  -17.8701  -55.7387 H         1 UNK         0.0600 
    228 H228       -9.3787  -19.5726  -55.7657 H         1 UNK         0.0600 
    229 H229       -9.4029  -18.6722  -54.2486 H         1 UNK         0.0600 
    230 H230       -7.1085  -21.1733  -56.5055 H         1 UNK         0.3000 
    231 H231       -6.0326  -19.8958  -58.8386 H         1 UNK         0.0600 
    232 H232       -6.1071  -22.8469  -58.0054 H         1 UNK         0.0600 
    233 H233       -5.7462  -22.2518  -59.6214 H         1 UNK         0.0600 
    234 H234       -7.3443  -22.0021  -58.9376 H         1 UNK         0.0600 
    235 H235       -4.5314  -21.1136  -55.9065 H         1 UNK         0.3000 
    236 H236       -1.8177  -21.2018  -57.0963 H         1 UNK         0.0600 
    237 H237       -1.1718  -22.0441  -54.8467 H         1 UNK         0.0600 
    238 H238       -2.8341  -21.8989  -54.2953 H         1 UNK         0.0600 
    239 H239       -2.4258  -23.0435  -55.5676 H         1 UNK         0.0600 
    240 H240       -3.7729  -19.4215  -54.6479 H         1 UNK         0.3000 
    241 H241       -1.7473  -17.5252  -53.9960 H         1 UNK         0.0600 
    242 H242       -4.3012  -17.3491  -56.5981 H         1 UNK         0.3800 
    243 H243       -3.6310  -15.8870  -57.2758 H         1 UNK         0.3800 
    244 H244       -4.7705  -17.2589  -53.6823 H         1 UNK         0.0800 
    245 H245       -3.6024  -16.1814  -52.9661 H         1 UNK         0.0800 
    246 H246       -1.5692  -17.2005  -51.2948 H         1 UNK         0.0800 
    247 H247       -2.9427  -16.4042  -50.5577 H         1 UNK         0.0800 
@<TRIPOS>BOND
     1    1    2 1    
     2    1  127 1    
     3    1  128 1    
     4    1  129 1    
     5    2    3 2    
     6    2    4 am   BACKBONE|DICT|INTERRES
     7    4    5 1    
     8    4  130 1    
     9    5    6 1    
    10    5   65 1    
    11    5  131 1    
    12    6    7 1    
    13    6  132 1    
    14    6  133 1    
    15    7    8 1    
    16    8    9 1    
    17    8  134 1    
    18    8  135 1    
    19    9   10 ar   
    20    9   14 ar   
    21   10   11 ar   
    22   10  136 1    
    23   11   12 ar   
    24   11  126 1    
    25   12   13 ar   
    26   12  137 1    
    27   13   14 ar   
    28   13   15 1    
    29   14  138 1    
    30   15   16 1    
    31   15  139 1    
    32   15  140 1    
    33   16   17 1    
    34   17   18 1    
    35   17  141 1    
    36   17  142 1    
    37   18   19 1    
    38   18   67 1    
    39   18  143 1    
    40   19   20 am   BACKBONE|DICT|INTERRES
    41   19  144 1    
    42   20   21 2    
    43   20   22 1    
    44   22   23 1    
    45   22   24 1    
    46   22  145 1    
    47   23  146 1    
    48   23  147 1    
    49   23  148 1    
    50   24   25 am   BACKBONE|DICT|INTERRES
    51   24  149 1    
    52   25   26 2    
    53   25   27 1    
    54   27   28 1    
    55   27   29 1    
    56   27  150 1    
    57   28  151 1    
    58   28  152 1    
    59   28  153 1    
    60   29   30 am   BACKBONE|DICT|INTERRES
    61   29  154 1    
    62   30   31 2    
    63   30   32 1    
    64   32   33 1    
    65   32   34 1    
    66   32  155 1    
    67   33  156 1    
    68   33  157 1    
    69   33  158 1    
    70   34   35 am   BACKBONE|DICT|INTERRES
    71   34  159 1    
    72   35   36 2    
    73   35   37 1    
    74   37   38 1    
    75   37   39 1    
    76   37  160 1    
    77   38  161 1    
    78   38  162 1    
    79   38  163 1    
    80   39   40 am   BACKBONE|DICT|INTERRES
    81   39  164 1    
    82   40   41 2    
    83   40   42 1    
    84   42   43 1    
    85   42   44 1    
    86   42  165 1    
    87   43  166 1    
    88   43  167 1    
    89   43  168 1    
    90   44   45 am   BACKBONE|DICT|INTERRES
    91   44  169 1    
    92   45   46 2    
    93   45   47 1    
    94   47   48 1    
    95   47   49 1    
    96   47  170 1    
    97   48  171 1    
    98   48  172 1    
    99   48  173 1    
   100   49   50 am   BACKBONE|DICT|INTERRES
   101   49  174 1    
   102   50   51 2    
   103   50   52 1    
   104   52   53 1    
   105   52   54 1    
   106   52  175 1    
   107   53  176 1    
   108   53  177 1    
   109   53  178 1    
   110   54   55 am   BACKBONE|DICT|INTERRES
   111   54  179 1    
   112   55   56 2    
   113   55   57 1    
   114   57   58 1    
   115   57   59 1    
   116   57  180 1    
   117   58  181 1    
   118   58  182 1    
   119   58  183 1    
   120   59   60 am   BACKBONE|DICT|INTERRES
   121   59  184 1    
   122   60   61 2    
   123   60   62 1    
   124   62   63 1    
   125   62   64 1    
   126   62  185 1    
   127   63  186 1    
   128   63  187 1    
   129   63  188 1    
   130   64   65 am   BACKBONE|DICT|INTERRES
   131   64  189 1    
   132   65   66 2    
   133   67   68 2    
   134   67   69 am   BACKBONE|DICT|INTERRES
   135   69   70 1    
   136   69  190 1    
   137   70   71 1    
   138   70   72 1    
   139   70  191 1    
   140   71  192 1    
   141   71  193 1    
   142   71  194 1    
   143   72   73 2    
   144   72   74 am   BACKBONE|DICT|INTERRES
   145   74   75 1    
   146   74  195 1    
   147   75   76 1    
   148   75   77 1    
   149   75  196 1    
   150   76  197 1    
   151   76  198 1    
   152   76  199 1    
   153   77   78 2    
   154   77   79 am   BACKBONE|DICT|INTERRES
   155   79   80 1    
   156   79  200 1    
   157   80   81 1    
   158   80   82 1    
   159   80  201 1    
   160   81  202 1    
   161   81  203 1    
   162   81  204 1    
   163   82   83 2    
   164   82   84 am   BACKBONE|DICT|INTERRES
   165   84   85 1    
   166   84  205 1    
   167   85   86 1    
   168   85   87 1    
   169   85  206 1    
   170   86  207 1    
   171   86  208 1    
   172   86  209 1    
   173   87   88 2    
   174   87   89 am   BACKBONE|DICT|INTERRES
   175   89   90 1    
   176   89  210 1    
   177   90   91 1    
   178   90   92 1    
   179   90  211 1    
   180   91  212 1    
   181   91  213 1    
   182   91  214 1    
   183   92   93 2    
   184   92   94 am   BACKBONE|DICT|INTERRES
   185   94   95 1    
   186   94  215 1    
   187   95   96 1    
   188   95   97 1    
   189   95  216 1    
   190   96  217 1    
   191   96  218 1    
   192   96  219 1    
   193   97   98 2    
   194   97   99 am   BACKBONE|DICT|INTERRES
   195   99  100 1    
   196   99  220 1    
   197  100  101 1    
   198  100  102 1    
   199  100  221 1    
   200  101  222 1    
   201  101  223 1    
   202  101  224 1    
   203  102  103 2    
   204  102  104 am   BACKBONE|DICT|INTERRES
   205  104  105 1    
   206  104  225 1    
   207  105  106 1    
   208  105  107 1    
   209  105  226 1    
   210  106  227 1    
   211  106  228 1    
   212  106  229 1    
   213  107  108 2    
   214  107  109 am   BACKBONE|DICT|INTERRES
   215  109  110 1    
   216  109  230 1    
   217  110  111 1    
   218  110  112 1    
   219  110  231 1    
   220  111  232 1    
   221  111  233 1    
   222  111  234 1    
   223  112  113 2    
   224  112  114 am   BACKBONE|DICT|INTERRES
   225  114  115 1    
   226  114  235 1    
   227  115  116 1    
   228  115  117 1    
   229  115  236 1    
   230  116  237 1    
   231  116  238 1    
   232  116  239 1    
   233  117  118 2    
   234  117  119 am   BACKBONE|DICT|INTERRES
   235  119  120 1    
   236  119  240 1    
   237  120  121 1    
   238  120  124 1    
   239  120  241 1    
   240  121  122 am   BACKBONE|DICT|INTERRES
   241  121  123 2    
   242  122  242 1    
   243  122  243 1    
   244  124  125 1    
   245  124  244 1    
   246  124  245 1    
   247  125  126 1    
   248  126  246 1    
   249  126  247 1    
@<TRIPOS>SUBSTRUCTURE
     1 UNK         1 GROUP             0       ****    0 ROOT    
