@<TRIPOS>MOLECULE
3R540
247   249    1
SMALL
USER_CHARGES


@<TRIPOS>ATOM
      1 CA          0.6283  -15.9615  -51.4700 C.3       0 UNK        -0.1800 
      2 C           2.0131  -15.3800  -51.2201 C.2       0 UNK         0.5000 
      3 O           2.7782  -15.1793  -52.1631 O.2       0 UNK        -0.5000 
      4 N           2.3337  -15.1098  -49.9535 N.am      1 UNK        -0.5000 
      5 CA          3.5938  -14.5335  -49.4924 C.3       1 UNK         0.1400 
      6 C6          4.7575  -15.5600  -49.3988 C.3       23 UNK        -0.0398 
      7 S7          4.3136  -17.1502  -48.6023 S.3       23 UNK        -0.2404 
      8 C8          4.5125  -18.3059  -49.9951 C.3       23 UNK        -0.0205 
      9 C9          3.5508  -19.4772  -49.8914 C.ar      23 UNK        -0.0193 
     10 C10         2.3044  -19.4061  -50.5181 C.ar      23 UNK        -0.1150 
     11 C11         1.4076  -20.4756  -50.4651 C.ar      23 UNK        -0.0193 
     12 C12         1.7801  -21.6294  -49.7631 C.ar      23 UNK        -0.1150 
     13 C13         3.0204  -21.7141  -49.1226 C.ar      23 UNK        -0.0193 
     14 C14         3.9061  -20.6352  -49.1949 C.ar      23 UNK        -0.1150 
     15 C15         3.3972  -22.9793  -48.3612 C.3       23 UNK        -0.0205 
     16 S16         3.5260  -22.7287  -46.5602 S.3       23 UNK        -0.2404 
     17 C17         1.9059  -22.0069  -46.1325 C.3       23 UNK        -0.0398 
     18 CA          0.9762  -22.9526  -45.3232 C.3       11 UNK         0.1400 
     19 N           0.2356  -22.1758  -44.3263 N.am      11 UNK        -0.5000 
     20 C           0.1482  -22.4017  -43.0111 C.2       10 UNK         0.5000 
     21 O           0.6596  -23.3738  -42.4554 O.2       10 UNK        -0.5000 
     22 CA         -0.6396  -21.3707  -42.1686 C.3       10 UNK         0.1400 
     23 CB          0.3080  -20.6084  -41.2293 C.3       10 UNK        -0.1800 
     24 N          -1.3787  -20.3943  -42.9759 N.am      10 UNK        -0.5000 
     25 C          -2.5113  -20.6497  -43.6453 C.2       9 UNK         0.5000 
     26 O          -3.1157  -21.7178  -43.5641 O.2       9 UNK        -0.5000 
     27 CA         -3.0148  -19.5612  -44.6179 C.3       9 UNK         0.1400 
     28 CB         -3.9899  -18.6077  -43.9179 C.3       9 UNK        -0.1800 
     29 N          -1.9349  -18.7865  -45.2394 N.am      9 UNK        -0.5000 
     30 C          -0.9796  -19.3137  -46.0177 C.2       8 UNK         0.5000 
     31 O          -0.9435  -20.5032  -46.3161 O.2       8 UNK        -0.5000 
     32 CA          0.1641  -18.3963  -46.4774 C.3       8 UNK         0.1400 
     33 CB         -0.1171  -17.7749  -47.8523 C.3       8 UNK        -0.1800 
     34 N           0.4325  -17.3554  -45.4864 N.am      8 UNK        -0.5000 
     35 C           1.1929  -17.5553  -44.4021 C.2       7 UNK         0.5000 
     36 O           1.7708  -18.6145  -44.1573 O.2       7 UNK        -0.5000 
     37 CA          1.3071  -16.3871  -43.4102 C.3       7 UNK         0.1400 
     38 CB          2.2636  -15.3102  -43.9422 C.3       7 UNK        -0.1800 
     39 N           0.0223  -15.7707  -43.0789 N.am      7 UNK        -0.5000 
     40 C          -0.9514  -16.3626  -42.3738 C.2       6 UNK         0.5000 
     41 O          -0.9323  -17.5498  -42.0508 O.2       6 UNK        -0.5000 
     42 CA         -2.1418  -15.4835  -41.9572 C.3       6 UNK         0.1400 
     43 CB         -1.7259  -14.4800  -40.8696 C.3       6 UNK        -0.1800 
     44 N          -2.6685  -14.7565  -43.1079 N.am      6 UNK        -0.5000 
     45 C          -3.9157  -14.8636  -43.5845 C.2       5 UNK         0.5000 
     46 O          -4.8111  -15.4920  -43.0193 O.2       5 UNK        -0.5000 
     47 CA         -4.2296  -14.1616  -44.9246 C.3       5 UNK         0.1400 
     48 CB         -5.0570  -12.8895  -44.6845 C.3       5 UNK        -0.1800 
     49 N          -3.0514  -13.8105  -45.7225 N.am      5 UNK        -0.5000 
     50 C          -2.1519  -14.6787  -46.2028 C.2       4 UNK         0.5000 
     51 O          -2.2124  -15.8960  -46.0326 O.2       4 UNK        -0.5000 
     52 CA         -0.9255  -14.0844  -46.9193 C.3       4 UNK         0.1400 
     53 CB         -1.1831  -13.9670  -48.4287 C.3       4 UNK        -0.1800 
     54 N          -0.4565  -12.7926  -46.4035 N.am      4 UNK        -0.5000 
     55 C          -0.1690  -12.4994  -45.1270 C.2       3 UNK         0.5000 
     56 O          -0.4128  -13.2469  -44.1777 O.2       3 UNK        -0.5000 
     57 CA          0.5890  -11.1811  -44.8880 C.3       3 UNK         0.1400 
     58 CB          0.5220  -10.7248  -43.4197 C.3       3 UNK        -0.1800 
     59 N           1.9892  -11.3700  -45.2616 N.am      3 UNK        -0.5000 
     60 C           2.4564  -11.3471  -46.5160 C.2       2 UNK         0.5000 
     61 O           1.7784  -10.9845  -47.4812 O.2       2 UNK        -0.5000 
     62 CA          3.9072  -11.8303  -46.7469 C.3       2 UNK         0.1400 
     63 CB          4.5535  -12.5078  -45.5175 C.3       2 UNK        -0.1800 
     64 N           4.0155  -12.7086  -47.9186 N.am      2 UNK        -0.5000 
     65 C           3.3202  -13.8328  -48.1529 C.2       1 UNK         0.5000 
     66 O           2.4891  -14.3151  -47.3790 O.2       1 UNK        -0.5000 
     67 C          -0.0054  -23.7400  -46.2288 C.2       11 UNK         0.5000 
     68 O           0.3488  -24.1245  -47.3452 O.2       11 UNK        -0.5000 
     69 N          -1.2356  -23.9659  -45.7381 N.am      12 UNK        -0.5000 
     70 CA         -2.3738  -24.5539  -46.4547 C.3       12 UNK         0.1400 
     71 CB         -3.6189  -24.4890  -45.5576 C.3       12 UNK        -0.1800 
     72 C          -2.1731  -25.9825  -46.9985 C.2       12 UNK         0.5000 
     73 O          -2.9624  -26.4235  -47.8338 O.2       12 UNK        -0.5000 
     74 N          -1.1254  -26.6780  -46.5384 N.am      13 UNK        -0.5000 
     75 CA         -0.7216  -28.0006  -47.0154 C.3       13 UNK         0.1400 
     76 CB          0.4106  -28.5269  -46.1202 C.3       13 UNK        -0.1800 
     77 C          -0.2917  -28.0227  -48.4974 C.2       13 UNK         0.5000 
     78 O          -0.4243  -29.0650  -49.1405 O.2       13 UNK        -0.5000 
     79 N           0.2147  -26.8919  -49.0137 N.am      14 UNK        -0.5000 
     80 CA          0.6302  -26.7549  -50.4107 C.3       14 UNK         0.1400 
     81 CB          1.5807  -25.5588  -50.5516 C.3       14 UNK        -0.1800 
     82 C          -0.5625  -26.6093  -51.3720 C.2       14 UNK         0.5000 
     83 O          -0.5661  -27.2472  -52.4254 O.2       14 UNK        -0.5000 
     84 N          -1.5383  -25.7672  -50.9917 N.am      15 UNK        -0.5000 
     85 CA         -2.7573  -25.4234  -51.7411 C.3       15 UNK         0.1400 
     86 CB         -3.7384  -26.6130  -51.7358 C.3       15 UNK        -0.1800 
     87 C          -2.4760  -24.8793  -53.1627 C.2       15 UNK         0.5000 
     88 O          -3.1986  -25.1935  -54.1102 O.2       15 UNK        -0.5000 
     89 N          -1.4022  -24.0896  -53.2842 N.am      16 UNK        -0.5000 
     90 CA         -0.8694  -23.5623  -54.5407 C.3       16 UNK         0.1400 
     91 CB          0.6312  -23.2914  -54.3409 C.3       16 UNK        -0.1800 
     92 C          -1.5807  -22.2889  -55.0416 C.2       16 UNK         0.5000 
     93 O          -1.3472  -21.8850  -56.1820 O.2       16 UNK        -0.5000 
     94 N          -2.4046  -21.6663  -54.1926 N.am      17 UNK        -0.5000 
     95 CA         -3.1006  -20.4081  -54.4484 C.3       17 UNK         0.1400 
     96 CB         -2.3469  -19.2751  -53.7266 C.3       17 UNK        -0.1800 
     97 C          -4.5647  -20.4998  -53.9867 C.2       17 UNK         0.5000 
     98 O          -5.0066  -21.5501  -53.5137 O.2       17 UNK        -0.5000 
     99 N          -5.2925  -19.3871  -54.1455 N.am      18 UNK        -0.5000 
    100 CA        -6.6776  -19.2046  -53.7106 C.3       18 UNK         0.1400 
    101 CB        -7.1922  -17.8729  -54.2812 C.3       18 UNK        -0.1800 
    102 C         -6.8276  -19.2183  -52.1770 C.2       18 UNK         0.5000 
    103 O         -5.8469  -19.0274  -51.4521 O.2       18 UNK        -0.5000 
    104 N         -8.0702  -19.3984  -51.7096 N.am      19 UNK        -0.5000 
    105 CA        -8.4572  -19.4949  -50.2953 C.3       19 UNK         0.1400 
    106 CB        -9.9485  -19.8582  -50.2181 C.3       19 UNK        -0.1800 
    107 C         -8.1631  -18.2415  -49.4425 C.2       19 UNK         0.5000 
    108 O         -8.1511  -18.3380  -48.2153 O.2       19 UNK        -0.5000 
    109 N         -7.9153  -17.0972  -50.0952 N.am      20 UNK        -0.5000 
    110 CA        -7.4183  -15.8680  -49.4715 C.3       20 UNK         0.1400 
    111 CB        -7.5805  -14.7094  -50.4677 C.3       20 UNK        -0.1800 
    112 C         -5.9495  -15.9761  -49.0051 C.2       20 UNK         0.5000 
    113 O         -5.5289  -15.1906  -48.1556 O.2       20 UNK        -0.5000 
    114 N         -5.2064  -16.9348  -49.5703 N.am      21 UNK        -0.5000 
    115 CA        -3.8432  -17.2954  -49.2116 C.3       21 UNK         0.1400 
    116 CB        -2.9400  -17.0741  -50.4420 C.3       21 UNK        -0.1800 
    117 C         -3.8595  -18.7441  -48.6864 C.2       21 UNK         0.5000 
    118 O         -4.5754  -19.0228  -47.7242 O.2       21 UNK        -0.5000 
    119 N         -3.0818  -19.6386  -49.3092 N.am      22 UNK        -0.5000 
    120 CA        -2.9676  -21.0570  -48.9332 C.3       22 UNK         0.1400 
    121 C         -4.1064  -21.9803  -49.4591 C.2       22 UNK         0.5000 
    122 N         -5.0580  -21.5014  -50.2465 N.am      22 UNK        -0.7600 
    123 O         -4.1344  -23.1637  -49.1405 O.2       22 UNK        -0.5000 
    124 C124       -1.5553  -21.6150  -49.2479 C.3       23 UNK        -0.0398 
    125 S125       -1.1279  -21.6921  -51.0175 S.3       23 UNK        -0.2404 
    126 C126        0.0689  -20.3225  -51.1928 C.3       23 UNK        -0.0205 
    127 H127        0.6873  -16.8103  -52.1511 H         1 UNK         0.0600 
    128 H128       -0.0203  -15.2089  -51.9181 H         1 UNK         0.0600 
    129 H129        0.1680  -16.3015  -50.5433 H         1 UNK         0.0600 
    130 H130        1.6786  -15.2744  -49.2006 H         1 UNK         0.3000 
    131 H131        3.8835  -13.7560  -50.2028 H         1 UNK         0.0600 
    132 H132        5.1368  -15.7506  -50.4028 H         1 UNK         0.0800 
    133 H133        5.6042  -15.1328  -48.8588 H         1 UNK         0.0800 
    134 H134        4.3398  -17.7910  -50.9415 H         1 UNK         0.0800 
    135 H135        5.5433  -18.6618  -50.0240 H         1 UNK         0.0800 
    136 H136        2.0351  -18.5114  -51.0596 H         1 UNK         0.1150 
    137 H137        1.1069  -22.4688  -49.6974 H         1 UNK         0.1150 
    138 H138        4.8676  -20.6961  -48.7047 H         1 UNK         0.1150 
    139 H139        2.6722  -23.7707  -48.5450 H         1 UNK         0.0800 
    140 H140        4.3522  -23.3497  -48.7358 H         1 UNK         0.0800 
    141 H141        1.4016  -21.6130  -47.0144 H         1 UNK         0.0800 
    142 H142        2.1442  -21.1230  -45.5383 H         1 UNK         0.0800 
    143 H143        1.5893  -23.6954  -44.8096 H         1 UNK         0.0600 
    144 H144       -0.2680  -21.3854  -44.7153 H         1 UNK         0.3000 
    145 H145       -1.3524  -21.9267  -41.5563 H         1 UNK         0.0600 
    146 H146       -0.2441  -19.9282  -40.5804 H         1 UNK         0.0600 
    147 H147        0.8609  -21.2933  -40.5853 H         1 UNK         0.0600 
    148 H148        1.0368  -20.0193  -41.7875 H         1 UNK         0.0600 
    149 H149       -0.9806  -19.4637  -43.0329 H         1 UNK         0.3000 
    150 H150       -3.5553  -20.0696  -45.4186 H         1 UNK         0.0600 
    151 H151       -4.8325  -19.1535  -43.4921 H         1 UNK         0.0600 
    152 H152       -4.3962  -17.8786  -44.6197 H         1 UNK         0.0600 
    153 H153       -3.5075  -18.0638  -43.1063 H         1 UNK         0.0600 
    154 H154       -1.9436  -17.7839  -45.0969 H         1 UNK         0.3000 
    155 H155        1.0574  -19.0151  -46.5890 H         1 UNK         0.0600 
    156 H156       -1.0390  -17.1984  -47.8638 H         1 UNK         0.0600 
    157 H157        0.6990  -17.1217  -48.1609 H         1 UNK         0.0600 
    158 H158       -0.2118  -18.5532  -48.6085 H         1 UNK         0.0600 
    159 H159       -0.0724  -16.4867  -45.5822 H         1 UNK         0.3000 
    160 H160        1.7316  -16.7838  -42.4854 H         1 UNK         0.0600 
    161 H161        2.4276  -14.5266  -43.2024 H         1 UNK         0.0600 
    162 H162        1.8743  -14.8398  -44.8449 H         1 UNK         0.0600 
    163 H163        3.2369  -15.7363  -44.1890 H         1 UNK         0.0600 
    164 H164       -0.0846  -14.7937  -43.3431 H         1 UNK         0.3000 
    165 H165       -2.9015  -16.1444  -41.5351 H         1 UNK         0.0600 
    166 H166       -2.5844  -13.9084  -40.5170 H         1 UNK         0.0600 
    167 H167       -1.2991  -14.9927  -40.0067 H         1 UNK         0.0600 
    168 H168       -0.9815  -13.7709  -41.2348 H         1 UNK         0.0600 
    169 H169       -1.9970  -14.2050  -43.6330 H         1 UNK         0.3000 
    170 H170       -4.8302  -14.8569  -45.5143 H         1 UNK         0.0600 
    171 H171       -4.4931  -12.1443  -44.1220 H         1 UNK         0.0600 
    172 H172       -5.3680  -12.4380  -45.6269 H         1 UNK         0.0600 
    173 H173       -5.9630  -13.1121  -44.1192 H         1 UNK         0.0600 
    174 H174       -2.8979  -12.8275  -45.8906 H         1 UNK         0.3000 
    175 H175       -0.1048  -14.7887  -46.7772 H         1 UNK         0.0600 
    176 H176       -0.2820  -13.6590  -48.9597 H         1 UNK         0.0600 
    177 H177       -1.9669  -13.2406  -48.6464 H         1 UNK         0.0600 
    178 H178       -1.4958  -14.9227  -48.8498 H         1 UNK         0.0600 
    179 H179       -0.1492  -12.1281  -47.1027 H         1 UNK         0.3000 
    180 H180        0.1372  -10.4034  -45.5073 H         1 UNK         0.0600 
    181 H181        0.9851  -11.4478  -42.7469 H         1 UNK         0.0600 
    182 H182       -0.5125  -10.5942  -43.0994 H         1 UNK         0.0600 
    183 H183        1.0280   -9.7691  -43.2821 H         1 UNK         0.0600 
    184 H184        2.6010  -11.7054  -44.5320 H         1 UNK         0.3000 
    185 H185        4.4886  -10.9362  -46.9759 H         1 UNK         0.0600 
    186 H186        4.0026  -13.3946  -45.2049 H         1 UNK         0.0600 
    187 H187        5.5747  -12.8188  -45.7384 H         1 UNK         0.0600 
    188 H188        4.6085  -11.8269  -44.6674 H         1 UNK         0.0600 
    189 H189        4.6448  -12.3793  -48.6371 H         1 UNK         0.3000 
    190 H190       -1.4375  -23.6065  -44.8161 H         1 UNK         0.3000 
    191 H191       -2.5560  -23.9228  -47.3212 H         1 UNK         0.0600 
    192 H192       -3.8970  -23.4566  -45.3500 H         1 UNK         0.0600 
    193 H193       -4.4793  -24.9550  -46.0401 H         1 UNK         0.0600 
    194 H194       -3.4582  -24.9971  -44.6063 H         1 UNK         0.0600 
    195 H195       -0.5259  -26.2363  -45.8578 H         1 UNK         0.3000 
    196 H196       -1.5789  -28.6690  -46.9128 H         1 UNK         0.0600 
    197 H197        0.7213  -29.5258  -46.4295 H         1 UNK         0.0600 
    198 H198        0.0927  -28.5950  -45.0797 H         1 UNK         0.0600 
    199 H199        1.2893  -27.8819  -46.1627 H         1 UNK         0.0600 
    200 H200        0.2926  -26.0721  -48.4226 H         1 UNK         0.3000 
    201 H201        1.1827  -27.6520  -50.6992 H         1 UNK         0.0600 
    202 H202        2.4790  -25.6993  -49.9508 H         1 UNK         0.0600 
    203 H203        1.1010  -24.6334  -50.2369 H         1 UNK         0.0600 
    204 H204        1.8991  -25.4287  -51.5868 H         1 UNK         0.0600 
    205 H205       -1.4433  -25.3174  -50.0930 H         1 UNK         0.3000 
    206 H206       -3.2304  -24.6055  -51.1976 H         1 UNK         0.0600 
    207 H207       -3.9394  -26.9494  -50.7184 H         1 UNK         0.0600 
    208 H208       -4.6950  -26.3345  -52.1791 H         1 UNK         0.0600 
    209 H209       -3.3483  -27.4611  -52.2992 H         1 UNK         0.0600 
    210 H210       -0.8865  -23.8538  -52.4485 H         1 UNK         0.3000 
    211 H211       -0.9781  -24.3236  -55.3158 H         1 UNK         0.0600 
    212 H212        0.8050  -22.5381  -53.5712 H         1 UNK         0.0600 
    213 H213        1.0922  -22.9323  -55.2618 H         1 UNK         0.0600 
    214 H214        1.1600  -24.1986  -54.0474 H         1 UNK         0.0600 
    215 H215       -2.5976  -22.0963  -53.2985 H         1 UNK         0.3000 
    216 H216       -3.1176  -20.1975  -55.5195 H         1 UNK         0.0600 
    217 H217       -2.7739  -18.2978  -53.9525 H         1 UNK         0.0600 
    218 H218       -1.3003  -19.2430  -54.0299 H         1 UNK         0.0600 
    219 H219       -2.3783  -19.4061  -52.6455 H         1 UNK         0.0600 
    220 H220       -4.8411  -18.5683  -54.5243 H         1 UNK         0.3000 
    221 H221       -7.2737  -20.0221  -54.1211 H         1 UNK         0.0600 
    222 H222       -6.6274  -17.0239  -53.8932 H         1 UNK         0.0600 
    223 H223       -7.1180  -17.8553  -55.3688 H         1 UNK         0.0600 
    224 H224       -8.2412  -17.7115  -54.0298 H         1 UNK         0.0600 
    225 H225       -8.8191  -19.5240  -52.3755 H         1 UNK         0.3000 
    226 H226       -7.8843  -20.3143  -49.8563 H         1 UNK         0.0600 
    227 H227      -10.1531  -20.7996  -50.7285 H         1 UNK         0.0600 
    228 H228      -10.2708  -19.9769  -49.1827 H         1 UNK         0.0600 
    229 H229      -10.5732  -19.0867  -50.6698 H         1 UNK         0.0600 
    230 H230       -7.9670  -17.1053  -51.1027 H         1 UNK         0.3000 
    231 H231       -8.0293  -15.6543  -48.5920 H         1 UNK         0.0600 
    232 H232       -6.9970  -14.8742  -51.3745 H         1 UNK         0.0600 
    233 H233       -7.2469  -13.7679  -50.0293 H         1 UNK         0.0600 
    234 H234       -8.6236  -14.5802  -50.7570 H         1 UNK         0.0600 
    235 H235       -5.6485  -17.5668  -50.2313 H         1 UNK         0.3000 
    236 H236       -3.4784  -16.6688  -48.3959 H         1 UNK         0.0600 
    237 H237       -2.9226  -16.0210  -50.7231 H         1 UNK         0.0600 
    238 H238       -1.9104  -17.3676  -50.2433 H         1 UNK         0.0600 
    239 H239       -3.2932  -17.6349  -51.3076 H         1 UNK         0.0600 
    240 H240       -2.5684  -19.3576  -50.1293 H         1 UNK         0.3000 
    241 H241       -3.0686  -21.1070  -47.8475 H         1 UNK         0.0600 
    242 H242       -5.7618  -22.1334  -50.5889 H         1 UNK         0.3800 
    243 H243       -5.0727  -20.5330  -50.5469 H         1 UNK         0.3800 
    244 H244       -0.8046  -21.0138  -48.7398 H         1 UNK         0.0800 
    245 H245       -1.4418  -22.6177  -48.8378 H         1 UNK         0.0800 
    246 H246       -0.4089  -19.3964  -50.8741 H         1 UNK         0.0800 
    247 H247        0.2784  -20.2057  -52.2568 H         1 UNK         0.0800 
@<TRIPOS>BOND
     1    1    2 1    
     2    1  127 1    
     3    1  128 1    
     4    1  129 1    
     5    2    3 2    
     6    2    4 am   BACKBONE|DICT|INTERRES
     7    4    5 1    
     8    4  130 1    
     9    5    6 1    
    10    5   65 1    
    11    5  131 1    
    12    6    7 1    
    13    6  132 1    
    14    6  133 1    
    15    7    8 1    
    16    8    9 1    
    17    8  134 1    
    18    8  135 1    
    19    9   10 ar   
    20    9   14 ar   
    21   10   11 ar   
    22   10  136 1    
    23   11   12 ar   
    24   11  126 1    
    25   12   13 ar   
    26   12  137 1    
    27   13   14 ar   
    28   13   15 1    
    29   14  138 1    
    30   15   16 1    
    31   15  139 1    
    32   15  140 1    
    33   16   17 1    
    34   17   18 1    
    35   17  141 1    
    36   17  142 1    
    37   18   19 1    
    38   18   67 1    
    39   18  143 1    
    40   19   20 am   BACKBONE|DICT|INTERRES
    41   19  144 1    
    42   20   21 2    
    43   20   22 1    
    44   22   23 1    
    45   22   24 1    
    46   22  145 1    
    47   23  146 1    
    48   23  147 1    
    49   23  148 1    
    50   24   25 am   BACKBONE|DICT|INTERRES
    51   24  149 1    
    52   25   26 2    
    53   25   27 1    
    54   27   28 1    
    55   27   29 1    
    56   27  150 1    
    57   28  151 1    
    58   28  152 1    
    59   28  153 1    
    60   29   30 am   BACKBONE|DICT|INTERRES
    61   29  154 1    
    62   30   31 2    
    63   30   32 1    
    64   32   33 1    
    65   32   34 1    
    66   32  155 1    
    67   33  156 1    
    68   33  157 1    
    69   33  158 1    
    70   34   35 am   BACKBONE|DICT|INTERRES
    71   34  159 1    
    72   35   36 2    
    73   35   37 1    
    74   37   38 1    
    75   37   39 1    
    76   37  160 1    
    77   38  161 1    
    78   38  162 1    
    79   38  163 1    
    80   39   40 am   BACKBONE|DICT|INTERRES
    81   39  164 1    
    82   40   41 2    
    83   40   42 1    
    84   42   43 1    
    85   42   44 1    
    86   42  165 1    
    87   43  166 1    
    88   43  167 1    
    89   43  168 1    
    90   44   45 am   BACKBONE|DICT|INTERRES
    91   44  169 1    
    92   45   46 2    
    93   45   47 1    
    94   47   48 1    
    95   47   49 1    
    96   47  170 1    
    97   48  171 1    
    98   48  172 1    
    99   48  173 1    
   100   49   50 am   BACKBONE|DICT|INTERRES
   101   49  174 1    
   102   50   51 2    
   103   50   52 1    
   104   52   53 1    
   105   52   54 1    
   106   52  175 1    
   107   53  176 1    
   108   53  177 1    
   109   53  178 1    
   110   54   55 am   BACKBONE|DICT|INTERRES
   111   54  179 1    
   112   55   56 2    
   113   55   57 1    
   114   57   58 1    
   115   57   59 1    
   116   57  180 1    
   117   58  181 1    
   118   58  182 1    
   119   58  183 1    
   120   59   60 am   BACKBONE|DICT|INTERRES
   121   59  184 1    
   122   60   61 2    
   123   60   62 1    
   124   62   63 1    
   125   62   64 1    
   126   62  185 1    
   127   63  186 1    
   128   63  187 1    
   129   63  188 1    
   130   64   65 am   BACKBONE|DICT|INTERRES
   131   64  189 1    
   132   65   66 2    
   133   67   68 2    
   134   67   69 am   BACKBONE|DICT|INTERRES
   135   69   70 1    
   136   69  190 1    
   137   70   71 1    
   138   70   72 1    
   139   70  191 1    
   140   71  192 1    
   141   71  193 1    
   142   71  194 1    
   143   72   73 2    
   144   72   74 am   BACKBONE|DICT|INTERRES
   145   74   75 1    
   146   74  195 1    
   147   75   76 1    
   148   75   77 1    
   149   75  196 1    
   150   76  197 1    
   151   76  198 1    
   152   76  199 1    
   153   77   78 2    
   154   77   79 am   BACKBONE|DICT|INTERRES
   155   79   80 1    
   156   79  200 1    
   157   80   81 1    
   158   80   82 1    
   159   80  201 1    
   160   81  202 1    
   161   81  203 1    
   162   81  204 1    
   163   82   83 2    
   164   82   84 am   BACKBONE|DICT|INTERRES
   165   84   85 1    
   166   84  205 1    
   167   85   86 1    
   168   85   87 1    
   169   85  206 1    
   170   86  207 1    
   171   86  208 1    
   172   86  209 1    
   173   87   88 2    
   174   87   89 am   BACKBONE|DICT|INTERRES
   175   89   90 1    
   176   89  210 1    
   177   90   91 1    
   178   90   92 1    
   179   90  211 1    
   180   91  212 1    
   181   91  213 1    
   182   91  214 1    
   183   92   93 2    
   184   92   94 am   BACKBONE|DICT|INTERRES
   185   94   95 1    
   186   94  215 1    
   187   95   96 1    
   188   95   97 1    
   189   95  216 1    
   190   96  217 1    
   191   96  218 1    
   192   96  219 1    
   193   97   98 2    
   194   97   99 am   BACKBONE|DICT|INTERRES
   195   99  100 1    
   196   99  220 1    
   197  100  101 1    
   198  100  102 1    
   199  100  221 1    
   200  101  222 1    
   201  101  223 1    
   202  101  224 1    
   203  102  103 2    
   204  102  104 am   BACKBONE|DICT|INTERRES
   205  104  105 1    
   206  104  225 1    
   207  105  106 1    
   208  105  107 1    
   209  105  226 1    
   210  106  227 1    
   211  106  228 1    
   212  106  229 1    
   213  107  108 2    
   214  107  109 am   BACKBONE|DICT|INTERRES
   215  109  110 1    
   216  109  230 1    
   217  110  111 1    
   218  110  112 1    
   219  110  231 1    
   220  111  232 1    
   221  111  233 1    
   222  111  234 1    
   223  112  113 2    
   224  112  114 am   BACKBONE|DICT|INTERRES
   225  114  115 1    
   226  114  235 1    
   227  115  116 1    
   228  115  117 1    
   229  115  236 1    
   230  116  237 1    
   231  116  238 1    
   232  116  239 1    
   233  117  118 2    
   234  117  119 am   BACKBONE|DICT|INTERRES
   235  119  120 1    
   236  119  240 1    
   237  120  121 1    
   238  120  124 1    
   239  120  241 1    
   240  121  122 am   BACKBONE|DICT|INTERRES
   241  121  123 2    
   242  122  242 1    
   243  122  243 1    
   244  124  125 1    
   245  124  244 1    
   246  124  245 1    
   247  125  126 1    
   248  126  246 1    
   249  126  247 1    
@<TRIPOS>SUBSTRUCTURE
     1 UNK         1 GROUP             0       ****    0 ROOT    
