@<TRIPOS>MOLECULE
3R540
247   249    1
SMALL
USER_CHARGES


@<TRIPOS>ATOM
      1 CA         -1.6084   -9.0374  -49.7983 C.3       0 UNK        -0.1800 
      2 C          -0.5020   -9.9882  -49.3629 C.2       0 UNK         0.5000 
      3 O           0.6767   -9.6819  -49.5467 O.2       0 UNK        -0.5000 
      4 N          -0.8771  -11.1414  -48.7967 N.am      1 UNK        -0.5000 
      5 CA          0.0394  -12.1631  -48.2739 C.3       1 UNK         0.1400 
      6 C6         -0.6451  -13.5490  -48.1195 C.3       23 UNK        -0.0398 
      7 S7         -1.5946  -14.0469  -49.6026 S.3       23 UNK        -0.2404 
      8 C8         -0.3178  -14.7775  -50.6763 C.3       23 UNK        -0.0205 
      9 C9         -0.2496  -16.2882  -50.5222 C.ar      23 UNK        -0.0193 
     10 C10        -1.2121  -17.0962  -51.1384 C.ar      23 UNK        -0.1150 
     11 C11        -1.1677  -18.4859  -50.9968 C.ar      23 UNK        -0.0193 
     12 C12        -0.1477  -19.0645  -50.2402 C.ar      23 UNK        -0.1150 
     13 C13         0.8128  -18.2690  -49.6119 C.ar      23 UNK        -0.0193 
     14 C14         0.7656  -16.8801  -49.7647 C.ar      23 UNK        -0.1150 
     15 C15         1.8587  -18.9182  -48.7191 C.3       23 UNK        -0.0205 
     16 S16         1.6226  -18.5304  -46.9514 S.3       23 UNK        -0.2404 
     17 C17        -0.1817  -18.6985  -46.6963 C.3       23 UNK        -0.0398 
     18 CA         -0.6272  -20.1492  -46.4163 C.3       11 UNK         0.1400 
     19 N          -0.1091  -20.6530  -45.1383 N.am      11 UNK        -0.5000 
     20 C          -0.2555  -21.9077  -44.6880 C.2       10 UNK         0.5000 
     21 O          -0.8548  -22.7833  -45.3162 O.2       10 UNK        -0.5000 
     22 CA          0.3141  -22.2082  -43.2872 C.3       10 UNK         0.1400 
     23 CB          0.4243  -23.7176  -42.9863 C.3       10 UNK        -0.1800 
     24 N           1.5777  -21.5156  -43.0240 N.am      10 UNK        -0.5000 
     25 C           2.7549  -21.6930  -43.6429 C.2       9 UNK         0.5000 
     26 O           2.9418  -22.5232  -44.5334 O.2       9 UNK        -0.5000 
     27 CA          3.9310  -20.7935  -43.2042 C.3       9 UNK         0.1400 
     28 CB          4.3622  -19.8720  -44.3562 C.3       9 UNK        -0.1800 
     29 N           3.6422  -19.9721  -42.0253 N.am      9 UNK        -0.5000 
     30 C           3.5899  -20.4199  -40.7635 C.2       8 UNK         0.5000 
     31 O           3.8417  -21.5811  -40.4405 O.2       8 UNK        -0.5000 
     32 CA          3.1437  -19.4111  -39.6860 C.3       8 UNK         0.1400 
     33 CB          4.3460  -18.6140  -39.1586 C.3       8 UNK        -0.1800 
     34 N           2.1082  -18.4837  -40.1526 N.am      8 UNK        -0.5000 
     35 C           0.8703  -18.8443  -40.5238 C.2       7 UNK         0.5000 
     36 O           0.4569  -20.0033  -40.4892 O.2       7 UNK        -0.5000 
     37 CA         -0.0388  -17.7368  -41.0908 C.3       7 UNK         0.1400 
     38 CB         -0.6331  -16.8751  -39.9673 C.3       7 UNK        -0.1800 
     39 N           0.6586  -16.8861  -42.0557 N.am      7 UNK        -0.5000 
     40 C           1.1674  -17.3235  -43.2157 C.2       6 UNK         0.5000 
     41 O           1.0312  -18.4780  -43.6210 O.2       6 UNK        -0.5000 
     42 CA          2.0149  -16.3248  -44.0258 C.3       6 UNK         0.1400 
     43 CB          1.1404  -15.4196  -44.9064 C.3       6 UNK        -0.1800 
     44 N           2.8704  -15.5067  -43.1662 N.am      6 UNK        -0.5000 
     45 C           3.9122  -15.9839  -42.4705 C.2       5 UNK         0.5000 
     46 O           4.3010  -17.1486  -42.5360 O.2       5 UNK        -0.5000 
     47 CA          4.5961  -15.0144  -41.4930 C.3       5 UNK         0.1400 
     48 CB          5.6890  -14.1969  -42.1973 C.3       5 UNK        -0.1800 
     49 N           3.6271  -14.1215  -40.8557 N.am      5 UNK        -0.5000 
     50 C           2.7618  -14.5242  -39.9137 C.2       4 UNK         0.5000 
     51 O           2.7330  -15.6708  -39.4666 O.2       4 UNK        -0.5000 
     52 CA          1.7325  -13.4959  -39.4084 C.3       4 UNK         0.1400 
     53 CB          2.2926  -12.7222  -38.2060 C.3       4 UNK        -0.1800 
     54 N           1.2980  -12.5450  -40.4324 N.am      4 UNK        -0.5000 
     55 C           0.6272  -12.8638  -41.5479 C.2       3 UNK         0.5000 
     56 O           0.3051  -14.0167  -41.8359 O.2       3 UNK        -0.5000 
     57 CA          0.2702  -11.7127  -42.5158 C.3       3 UNK         0.1400 
     58 CB          0.5021  -10.3066  -41.9201 C.3       3 UNK        -0.1800 
     59 N           0.9467  -11.8018  -43.8158 N.am      3 UNK        -0.5000 
     60 C           2.2472  -12.0079  -44.0586 C.2       2 UNK         0.5000 
     61 O           3.0547  -12.2972  -43.1745 O.2       2 UNK        -0.5000 
     62 CA          2.7477  -11.8468  -45.5183 C.3       2 UNK         0.1400 
     63 CB          4.0997  -12.5513  -45.7406 C.3       2 UNK        -0.1800 
     64 N           1.8352  -12.2650  -46.5943 N.am      2 UNK        -0.5000 
     65 C           0.6793  -11.6872  -46.9479 C.2       1 UNK         0.5000 
     66 O           0.1251  -10.8128  -46.2764 O.2       1 UNK        -0.5000 
     67 C          -2.1639  -20.2500  -46.5260 C.2       11 UNK         0.5000 
     68 O          -2.6766  -20.3804  -47.6353 O.2       11 UNK        -0.5000 
     69 N          -2.8718  -20.2271  -45.3870 N.am      12 UNK        -0.5000 
     70 CA         -4.3207  -20.4194  -45.3048 C.3       12 UNK         0.1400 
     71 CB         -4.7830  -20.1691  -43.8619 C.3       12 UNK        -0.1800 
     72 C          -4.7749  -21.8114  -45.7867 C.2       12 UNK         0.5000 
     73 O          -5.8136  -21.9154  -46.4385 O.2       12 UNK        -0.5000 
     74 N          -3.9748  -22.8487  -45.4973 N.am      13 UNK        -0.5000 
     75 CA         -4.2145  -24.2167  -45.9601 C.3       13 UNK         0.1400 
     76 CB         -3.3577  -25.1993  -45.1476 C.3       13 UNK        -0.1800 
     77 C          -3.9397  -24.3597  -47.4663 C.2       13 UNK         0.5000 
     78 O          -4.7037  -25.0251  -48.1662 O.2       13 UNK        -0.5000 
     79 N          -2.8841  -23.6874  -47.9470 N.am      14 UNK        -0.5000 
     80 CA         -2.5465  -23.5944  -49.3671 C.3       14 UNK         0.1400 
     81 CB         -1.1677  -22.9408  -49.5332 C.3       14 UNK        -0.1800 
     82 C          -3.6188  -22.8403  -50.1736 C.2       14 UNK         0.5000 
     83 O          -3.9598  -23.2736  -51.2709 O.2       14 UNK        -0.5000 
     84 N          -4.1637  -21.7570  -49.6039 N.am      15 UNK        -0.5000 
     85 CA         -5.2487  -20.9666  -50.1862 C.3       15 UNK         0.1400 
     86 CB         -5.4025  -19.6533  -49.4050 C.3       15 UNK        -0.1800 
     87 C          -6.5816  -21.7336  -50.2364 C.2       15 UNK         0.5000 
     88 O          -7.3223  -21.5885  -51.2086 O.2       15 UNK        -0.5000 
     89 N          -6.8507  -22.5536  -49.2094 N.am      16 UNK        -0.5000 
     90 CA         -8.0058  -23.4506  -49.1488 C.3       16 UNK         0.1400 
     91 CB         -8.1467  -24.0217  -47.7297 C.3       16 UNK        -0.1800 
     92 C          -7.9277  -24.5803  -50.1930 C.2       16 UNK         0.5000 
     93 O          -8.9427  -24.9031  -50.8116 O.2       16 UNK        -0.5000 
     94 N          -6.7252  -25.1408  -50.3895 N.am      17 UNK        -0.5000 
     95 CA         -6.4318  -26.1185  -51.4399 C.3       17 UNK         0.1400 
     96 CB         -5.0724  -26.7758  -51.1563 C.3       17 UNK        -0.1800 
     97 C          -6.4475  -25.4941  -52.8491 C.2       17 UNK         0.5000 
     98 O          -6.8780  -26.1474  -53.8007 O.2       17 UNK        -0.5000 
     99 N          -5.9687  -24.2463  -52.9495 N.am      18 UNK        -0.5000 
    100 CA        -5.8424  -23.3656  -54.1154 C.3       18 UNK         0.1400 
    101 CB        -7.2063  -23.1061  -54.7819 C.3       18 UNK        -0.1800 
    102 C         -4.7935  -23.8282  -55.1419 C.2       18 UNK         0.5000 
    103 O         -3.9888  -23.0103  -55.5968 O.2       18 UNK        -0.5000 
    104 N         -4.8400  -25.1192  -55.5038 N.am      19 UNK        -0.5000 
    105 CA        -3.9234  -25.8689  -56.3755 C.3       19 UNK         0.1400 
    106 CB        -2.5537  -26.0099  -55.6805 C.3       19 UNK        -0.1800 
    107 C         -3.7794  -25.3128  -57.8107 C.2       19 UNK         0.5000 
    108 O         -2.8352  -25.6812  -58.5109 O.2       19 UNK        -0.5000 
    109 N         -4.6892  -24.4074  -58.2050 N.am      20 UNK        -0.5000 
    110 CA        -4.6265  -23.5298  -59.3817 C.3       20 UNK         0.1400 
    111 CB        -4.7444  -24.3454  -60.6861 C.3       20 UNK        -0.1800 
    112 C         -3.3989  -22.5852  -59.3740 C.2       20 UNK         0.5000 
    113 O         -2.9980  -22.0968  -60.4322 O.2       20 UNK        -0.5000 
    114 N         -2.8236  -22.3497  -58.1864 N.am      21 UNK        -0.5000 
    115 CA        -1.6028  -21.5777  -57.9724 C.3       21 UNK         0.1400 
    116 CB        -0.6211  -22.4217  -57.1431 C.3       21 UNK        -0.1800 
    117 C         -1.8992  -20.2516  -57.2592 C.2       21 UNK         0.5000 
    118 O         -1.3380  -19.2245  -57.6438 O.2       21 UNK        -0.5000 
    119 N         -2.7694  -20.2868  -56.2425 N.am      22 UNK        -0.5000 
    120 CA        -3.1065  -19.1239  -55.4043 C.3       22 UNK         0.1400 
    121 C         -4.5491  -19.1598  -54.8227 C.2       22 UNK         0.5000 
    122 N         -5.4434  -19.9991  -55.3301 N.am      22 UNK        -0.7600 
    123 O         -4.8794  -18.3952  -53.9208 O.2       22 UNK        -0.5000 
    124 C124       -2.0031  -18.8059  -54.3558 C.3       23 UNK        -0.0398 
    125 S125       -1.7101  -20.1531  -53.1569 S.3       23 UNK        -0.2404 
    126 C126       -2.2443  -19.3706  -51.6043 C.3       23 UNK        -0.0205 
    127 H127       -1.5132   -8.0864  -49.2743 H         1 UNK         0.0600 
    128 H128       -1.5398   -8.8467  -50.8693 H         1 UNK         0.0600 
    129 H129       -2.5981   -9.4439  -49.5882 H         1 UNK         0.0600 
    130 H130       -1.8597  -11.3328  -48.6650 H         1 UNK         0.3000 
    131 H131        0.8474  -12.2756  -48.9999 H         1 UNK         0.0600 
    132 H132        0.0897  -14.3233  -47.8927 H         1 UNK         0.0800 
    133 H133       -1.3403  -13.5366  -47.2781 H         1 UNK         0.0800 
    134 H134        0.6524  -14.3200  -50.4778 H         1 UNK         0.0800 
    135 H135       -0.5567  -14.5366  -51.7132 H         1 UNK         0.0800 
    136 H136       -2.0066  -16.6387  -51.7110 H         1 UNK         0.1150 
    137 H137       -0.1193  -20.1371  -50.1197 H         1 UNK         0.1150 
    138 H138        1.5030  -16.2630  -49.2708 H         1 UNK         0.1150 
    139 H139        1.8495  -20.0024  -48.8408 H         1 UNK         0.0800 
    140 H140        2.8514  -18.5859  -49.0254 H         1 UNK         0.0800 
    141 H141       -0.7144  -18.2754  -47.5478 H         1 UNK         0.0800 
    142 H142       -0.4639  -18.0675  -45.8537 H         1 UNK         0.0800 
    143 H143       -0.2168  -20.7861  -47.2019 H         1 UNK         0.0600 
    144 H144        0.3983  -19.9788  -44.5682 H         1 UNK         0.3000 
    145 H145       -0.4040  -21.7906  -42.5804 H         1 UNK         0.0600 
    146 H146        0.8240  -23.8919  -41.9873 H         1 UNK         0.0600 
    147 H147       -0.5546  -24.1964  -43.0316 H         1 UNK         0.0600 
    148 H148        1.0687  -24.2298  -43.7010 H         1 UNK         0.0600 
    149 H149        1.5288  -20.7909  -42.3190 H         1 UNK         0.3000 
    150 H150        4.7686  -21.4524  -42.9673 H         1 UNK         0.0600 
    151 H151        4.6159  -20.4456  -45.2484 H         1 UNK         0.0600 
    152 H152        5.2416  -19.2872  -44.0863 H         1 UNK         0.0600 
    153 H153        3.5682  -19.1773  -44.6289 H         1 UNK         0.0600 
    154 H154        3.4942  -18.9828  -42.1955 H         1 UNK         0.3000 
    155 H155        2.7256  -19.9819  -38.8543 H         1 UNK         0.0600 
    156 H156        4.7983  -18.0037  -39.9405 H         1 UNK         0.0600 
    157 H157        5.1187  -19.2807  -38.7740 H         1 UNK         0.0600 
    158 H158        4.0533  -17.9512  -38.3441 H         1 UNK         0.0600 
    159 H159        2.3551  -17.4989  -40.1652 H         1 UNK         0.3000 
    160 H160       -0.8649  -18.2211  -41.6159 H         1 UNK         0.0600 
    161 H161       -1.2936  -16.1054  -40.3673 H         1 UNK         0.0600 
    162 H162        0.1416  -16.3804  -39.3827 H         1 UNK         0.0600 
    163 H163       -1.2209  -17.4848  -39.2802 H         1 UNK         0.0600 
    164 H164        0.7444  -15.8999  -41.8276 H         1 UNK         0.3000 
    165 H165        2.6638  -16.9042  -44.6844 H         1 UNK         0.0600 
    166 H166        1.7587  -14.8129  -45.5646 H         1 UNK         0.0600 
    167 H167        0.4790  -16.0030  -45.5444 H         1 UNK         0.0600 
    168 H168        0.5137  -14.7513  -44.3175 H         1 UNK         0.0600 
    169 H169        2.6045  -14.5405  -43.0283 H         1 UNK         0.3000 
    170 H170        5.0778  -15.6096  -40.7143 H         1 UNK         0.0600 
    171 H171        6.4586  -14.8528  -42.6059 H         1 UNK         0.0600 
    172 H172        5.2916  -13.6100  -43.0243 H         1 UNK         0.0600 
    173 H173        6.1789  -13.5128  -41.5044 H         1 UNK         0.0600 
    174 H174        3.5411  -13.1896  -41.2443 H         1 UNK         0.3000 
    175 H175        0.8521  -14.0487  -39.0754 H         1 UNK         0.0600 
    176 H176        1.5427  -12.0540  -37.7822 H         1 UNK         0.0600 
    177 H177        2.6033  -13.4043  -37.4133 H         1 UNK         0.0600 
    178 H178        3.1608  -12.1223  -38.4820 H         1 UNK         0.0600 
    179 H179        1.5439  -11.5774  -40.2830 H         1 UNK         0.3000 
    180 H180       -0.7971  -11.8129  -42.7177 H         1 UNK         0.0600 
    181 H181        1.5591  -10.1068  -41.7394 H         1 UNK         0.0600 
    182 H182       -0.0330  -10.1796  -40.9780 H         1 UNK         0.0600 
    183 H183        0.1362   -9.5352  -42.5980 H         1 UNK         0.0600 
    184 H184        0.3840  -11.5385  -44.6210 H         1 UNK         0.3000 
    185 H185        2.9183  -10.7766  -45.6499 H         1 UNK         0.0600 
    186 H186        4.0228  -13.6277  -45.5816 H         1 UNK         0.0600 
    187 H187        4.4727  -12.3858  -46.7514 H         1 UNK         0.0600 
    188 H188        4.8610  -12.1716  -45.0579 H         1 UNK         0.0600 
    189 H189        2.1984  -12.9925  -47.1924 H         1 UNK         0.3000 
    190 H190       -2.3765  -20.1094  -44.5159 H         1 UNK         0.3000 
    191 H191       -4.7938  -19.6758  -45.9495 H         1 UNK         0.0600 
    192 H192       -4.3191  -20.8658  -43.1626 H         1 UNK         0.0600 
    193 H193       -5.8640  -20.2858  -43.7733 H         1 UNK         0.0600 
    194 H194       -4.5394  -19.1566  -43.5395 H         1 UNK         0.0600 
    195 H195       -3.1003  -22.6793  -45.0185 H         1 UNK         0.3000 
    196 H196       -5.2646  -24.4610  -45.7857 H         1 UNK         0.0600 
    197 H197       -3.5660  -26.2289  -45.4411 H         1 UNK         0.0600 
    198 H198       -3.5667  -25.1166  -44.0810 H         1 UNK         0.0600 
    199 H199       -2.2912  -25.0280  -45.2948 H         1 UNK         0.0600 
    200 H200       -2.3067  -23.1684  -47.2996 H         1 UNK         0.3000 
    201 H201       -2.4883  -24.6100  -49.7644 H         1 UNK         0.0600 
    202 H202       -0.3929  -23.5187  -49.0292 H         1 UNK         0.0600 
    203 H203       -1.1516  -21.9323  -49.1249 H         1 UNK         0.0600 
    204 H204       -0.8924  -22.8719  -50.5866 H         1 UNK         0.0600 
    205 H205       -3.7677  -21.4127  -48.7326 H         1 UNK         0.3000 
    206 H206       -4.9728  -20.7204  -51.2140 H         1 UNK         0.0600 
    207 H207       -4.4784  -19.0751  -49.4174 H         1 UNK         0.0600 
    208 H208       -6.1828  -19.0289  -49.8415 H         1 UNK         0.0600 
    209 H209       -5.6690  -19.8343  -48.3634 H         1 UNK         0.0600 
    210 H210       -6.2235  -22.5626  -48.4133 H         1 UNK         0.3000 
    211 H211       -8.8994  -22.8610  -49.3641 H         1 UNK         0.0600 
    212 H212       -7.2753  -24.6090  -47.4407 H         1 UNK         0.0600 
    213 H213       -9.0193  -24.6719  -47.6562 H         1 UNK         0.0600 
    214 H214       -8.2718  -23.2257  -46.9955 H         1 UNK         0.0600 
    215 H215       -5.9547  -24.8675  -49.7886 H         1 UNK         0.3000 
    216 H216       -7.1987  -26.8953  -51.4098 H         1 UNK         0.0600 
    217 H217       -4.8381  -27.5297  -51.9088 H         1 UNK         0.0600 
    218 H218       -5.0699  -27.2719  -50.1855 H         1 UNK         0.0600 
    219 H219       -4.2625  -26.0457  -51.1592 H         1 UNK         0.0600 
    220 H220       -5.5195  -23.8700  -52.1186 H         1 UNK         0.3000 
    221 H221       -5.4859  -22.4145  -53.7166 H         1 UNK         0.0600 
    222 H222       -7.6411  -24.0148  -55.1984 H         1 UNK         0.0600 
    223 H223       -7.9169  -22.6928  -54.0659 H         1 UNK         0.0600 
    224 H224       -7.1132  -22.3898  -55.5985 H         1 UNK         0.0600 
    225 H225       -5.5769  -25.6717  -55.0712 H         1 UNK         0.3000 
    226 H226       -4.3502  -26.8672  -56.4794 H         1 UNK         0.0600 
    227 H227       -2.0451  -25.0489  -55.5950 H         1 UNK         0.0600 
    228 H228       -1.8956  -26.6805  -56.2341 H         1 UNK         0.0600 
    229 H229       -2.6617  -26.4215  -54.6769 H         1 UNK         0.0600 
    230 H230       -5.4259  -24.1952  -57.5478 H         1 UNK         0.3000 
    231 H231       -5.5014  -22.8813  -59.3205 H         1 UNK         0.0600 
    232 H232       -5.6110  -25.0059  -60.6612 H         1 UNK         0.0600 
    233 H233       -3.8602  -24.9577  -60.8644 H         1 UNK         0.0600 
    234 H234       -4.8641  -23.6887  -61.5485 H         1 UNK         0.0600 
    235 H235       -3.2405  -22.7618  -57.3573 H         1 UNK         0.3000 
    236 H236       -1.1244  -21.3451  -58.9261 H         1 UNK         0.0600 
    237 H237       -0.3710  -23.3502  -57.6568 H         1 UNK         0.0600 
    238 H238        0.3109  -21.8817  -56.9715 H         1 UNK         0.0600 
    239 H239       -1.0351  -22.6820  -56.1678 H         1 UNK         0.0600 
    240 H240       -3.1619  -21.1744  -55.9469 H         1 UNK         0.3000 
    241 H241       -3.1471  -18.2603  -56.0706 H         1 UNK         0.0600 
    242 H242       -6.3806  -19.9896  -54.9612 H         1 UNK         0.3800 
    243 H243       -5.2136  -20.5920  -56.1100 H         1 UNK         0.3800 
    244 H244       -1.0594  -18.6104  -54.8659 H         1 UNK         0.0800 
    245 H245       -2.2375  -17.8795  -53.8308 H         1 UNK         0.0800 
    246 H246       -2.4798  -20.1576  -50.8913 H         1 UNK         0.0800 
    247 H247       -3.1696  -18.8137  -51.7584 H         1 UNK         0.0800 
@<TRIPOS>BOND
     1    1    2 1    
     2    1  127 1    
     3    1  128 1    
     4    1  129 1    
     5    2    3 2    
     6    2    4 am   BACKBONE|DICT|INTERRES
     7    4    5 1    
     8    4  130 1    
     9    5    6 1    
    10    5   65 1    
    11    5  131 1    
    12    6    7 1    
    13    6  132 1    
    14    6  133 1    
    15    7    8 1    
    16    8    9 1    
    17    8  134 1    
    18    8  135 1    
    19    9   10 ar   
    20    9   14 ar   
    21   10   11 ar   
    22   10  136 1    
    23   11   12 ar   
    24   11  126 1    
    25   12   13 ar   
    26   12  137 1    
    27   13   14 ar   
    28   13   15 1    
    29   14  138 1    
    30   15   16 1    
    31   15  139 1    
    32   15  140 1    
    33   16   17 1    
    34   17   18 1    
    35   17  141 1    
    36   17  142 1    
    37   18   19 1    
    38   18   67 1    
    39   18  143 1    
    40   19   20 am   BACKBONE|DICT|INTERRES
    41   19  144 1    
    42   20   21 2    
    43   20   22 1    
    44   22   23 1    
    45   22   24 1    
    46   22  145 1    
    47   23  146 1    
    48   23  147 1    
    49   23  148 1    
    50   24   25 am   BACKBONE|DICT|INTERRES
    51   24  149 1    
    52   25   26 2    
    53   25   27 1    
    54   27   28 1    
    55   27   29 1    
    56   27  150 1    
    57   28  151 1    
    58   28  152 1    
    59   28  153 1    
    60   29   30 am   BACKBONE|DICT|INTERRES
    61   29  154 1    
    62   30   31 2    
    63   30   32 1    
    64   32   33 1    
    65   32   34 1    
    66   32  155 1    
    67   33  156 1    
    68   33  157 1    
    69   33  158 1    
    70   34   35 am   BACKBONE|DICT|INTERRES
    71   34  159 1    
    72   35   36 2    
    73   35   37 1    
    74   37   38 1    
    75   37   39 1    
    76   37  160 1    
    77   38  161 1    
    78   38  162 1    
    79   38  163 1    
    80   39   40 am   BACKBONE|DICT|INTERRES
    81   39  164 1    
    82   40   41 2    
    83   40   42 1    
    84   42   43 1    
    85   42   44 1    
    86   42  165 1    
    87   43  166 1    
    88   43  167 1    
    89   43  168 1    
    90   44   45 am   BACKBONE|DICT|INTERRES
    91   44  169 1    
    92   45   46 2    
    93   45   47 1    
    94   47   48 1    
    95   47   49 1    
    96   47  170 1    
    97   48  171 1    
    98   48  172 1    
    99   48  173 1    
   100   49   50 am   BACKBONE|DICT|INTERRES
   101   49  174 1    
   102   50   51 2    
   103   50   52 1    
   104   52   53 1    
   105   52   54 1    
   106   52  175 1    
   107   53  176 1    
   108   53  177 1    
   109   53  178 1    
   110   54   55 am   BACKBONE|DICT|INTERRES
   111   54  179 1    
   112   55   56 2    
   113   55   57 1    
   114   57   58 1    
   115   57   59 1    
   116   57  180 1    
   117   58  181 1    
   118   58  182 1    
   119   58  183 1    
   120   59   60 am   BACKBONE|DICT|INTERRES
   121   59  184 1    
   122   60   61 2    
   123   60   62 1    
   124   62   63 1    
   125   62   64 1    
   126   62  185 1    
   127   63  186 1    
   128   63  187 1    
   129   63  188 1    
   130   64   65 am   BACKBONE|DICT|INTERRES
   131   64  189 1    
   132   65   66 2    
   133   67   68 2    
   134   67   69 am   BACKBONE|DICT|INTERRES
   135   69   70 1    
   136   69  190 1    
   137   70   71 1    
   138   70   72 1    
   139   70  191 1    
   140   71  192 1    
   141   71  193 1    
   142   71  194 1    
   143   72   73 2    
   144   72   74 am   BACKBONE|DICT|INTERRES
   145   74   75 1    
   146   74  195 1    
   147   75   76 1    
   148   75   77 1    
   149   75  196 1    
   150   76  197 1    
   151   76  198 1    
   152   76  199 1    
   153   77   78 2    
   154   77   79 am   BACKBONE|DICT|INTERRES
   155   79   80 1    
   156   79  200 1    
   157   80   81 1    
   158   80   82 1    
   159   80  201 1    
   160   81  202 1    
   161   81  203 1    
   162   81  204 1    
   163   82   83 2    
   164   82   84 am   BACKBONE|DICT|INTERRES
   165   84   85 1    
   166   84  205 1    
   167   85   86 1    
   168   85   87 1    
   169   85  206 1    
   170   86  207 1    
   171   86  208 1    
   172   86  209 1    
   173   87   88 2    
   174   87   89 am   BACKBONE|DICT|INTERRES
   175   89   90 1    
   176   89  210 1    
   177   90   91 1    
   178   90   92 1    
   179   90  211 1    
   180   91  212 1    
   181   91  213 1    
   182   91  214 1    
   183   92   93 2    
   184   92   94 am   BACKBONE|DICT|INTERRES
   185   94   95 1    
   186   94  215 1    
   187   95   96 1    
   188   95   97 1    
   189   95  216 1    
   190   96  217 1    
   191   96  218 1    
   192   96  219 1    
   193   97   98 2    
   194   97   99 am   BACKBONE|DICT|INTERRES
   195   99  100 1    
   196   99  220 1    
   197  100  101 1    
   198  100  102 1    
   199  100  221 1    
   200  101  222 1    
   201  101  223 1    
   202  101  224 1    
   203  102  103 2    
   204  102  104 am   BACKBONE|DICT|INTERRES
   205  104  105 1    
   206  104  225 1    
   207  105  106 1    
   208  105  107 1    
   209  105  226 1    
   210  106  227 1    
   211  106  228 1    
   212  106  229 1    
   213  107  108 2    
   214  107  109 am   BACKBONE|DICT|INTERRES
   215  109  110 1    
   216  109  230 1    
   217  110  111 1    
   218  110  112 1    
   219  110  231 1    
   220  111  232 1    
   221  111  233 1    
   222  111  234 1    
   223  112  113 2    
   224  112  114 am   BACKBONE|DICT|INTERRES
   225  114  115 1    
   226  114  235 1    
   227  115  116 1    
   228  115  117 1    
   229  115  236 1    
   230  116  237 1    
   231  116  238 1    
   232  116  239 1    
   233  117  118 2    
   234  117  119 am   BACKBONE|DICT|INTERRES
   235  119  120 1    
   236  119  240 1    
   237  120  121 1    
   238  120  124 1    
   239  120  241 1    
   240  121  122 am   BACKBONE|DICT|INTERRES
   241  121  123 2    
   242  122  242 1    
   243  122  243 1    
   244  124  125 1    
   245  124  244 1    
   246  124  245 1    
   247  125  126 1    
   248  126  246 1    
   249  126  247 1    
@<TRIPOS>SUBSTRUCTURE
     1 UNK         1 GROUP             0       ****    0 ROOT    
